data_image0
_chemical_formula_structural       Al4H34C70N10O20
_chemical_formula_sum              "Al4 H34 C70 N10 O20"
_cell_length_a       6.749582508205062
_cell_length_b       21.603763847075292
_cell_length_c       25.112227809053458
_cell_angle_alpha    96.3017896745301
_cell_angle_beta     89.99967140245052
_cell_angle_gamma    90.00084399027463

_space_group_name_H-M_alt    "P 1"
_space_group_IT_number       1

loop_
  _space_group_symop_operation_xyz
  'x, y, z'

loop_
  _atom_site_type_symbol
  _atom_site_label
  _atom_site_symmetry_multiplicity
  _atom_site_fract_x
  _atom_site_fract_y
  _atom_site_fract_z
  _atom_site_occupancy
  Al  Al1       1.0  0.0962245879273809  0.5005003519057425  0.4989614142135679  1.0000
  Al  Al2       1.0  0.5962273256923467  0.49950453546068035  0.5010384676469429  1.0000
  Al  Al3       1.0  0.698453878958226  0.9994946314170082  0.0008835574355786004  1.0000
  Al  Al4       1.0  0.19844771688148202  0.0005025276387370848  0.9991137344293078  1.0000
  H   H1        1.0  0.23571531196029838  0.19245931770234395  0.8110466790164778  1.0000
  H   H2        1.0  0.7357049666963391  0.8075214520827745  0.18893648644183264  1.0000
  H   H3        1.0  0.5982366729842781  0.1795511153803561  0.8124026720455434  1.0000
  H   H4        1.0  0.0982391937383511  0.8204841515171355  0.18762573335695984  1.0000
  H   H5        1.0  0.5425105723829233  0.3774969057116381  0.6163415687323165  1.0000
  H   H6        1.0  0.04252136370947569  0.6225014475552514  0.3836635853487351  1.0000
  H   H7        1.0  0.22568791251291023  0.19238709714711186  0.2362195257517428  1.0000
  H   H8        1.0  0.7256896453362102  0.8076129399687845  0.7637813356386118  1.0000
  H   H9        1.0  0.0447897003846833  0.15893485773712973  0.27516756748661914  1.0000
  H   H10       1.0  0.5447877020404732  0.8410625474215583  0.7248335752684696  1.0000
  H   H11       1.0  0.1069541520018191  0.28013267193038877  0.18800289635594677  1.0000
  H   H12       1.0  0.606943532309934  0.719865149605248  0.8119993496677297  1.0000
  H   H13       1.0  0.7071981562536179  0.33278921297406344  0.22946336557775743  1.0000
  H   H14       1.0  0.20718600242513927  0.667211256961231  0.7705379272032432  1.0000
  H   H15       1.0  0.5652819862312269  0.26250548866937623  0.29820240560843564  1.0000
  H   H16       1.0  0.06528165482992418  0.7374884982791556  0.7018002958509726  1.0000
  H   H17       1.0  0.2533185982906118  0.12169963062172684  0.883529425263042  1.0000
  H   H18       1.0  0.7533097837789599  0.8782725512743926  0.11644727815227901  1.0000
  H   H19       1.0  0.9479248315164668  0.364148677064236  0.23988403266255895  1.0000
  H   H20       1.0  0.4479068826646396  0.6358471075728788  0.7601192636003375  1.0000
  H   H21       1.0  0.6188134882139166  0.10937444234502891  0.8851983676831239  1.0000
  H   H22       1.0  0.11882640586469509  0.8906527620432886  0.11482397299525361  1.0000
  H   H23       1.0  0.19781474803526317  0.32030363295693587  0.6876593566948728  1.0000
  H   H24       1.0  0.6978082504071281  0.6796994795500668  0.3123299447653309  1.0000
  H   H25       1.0  0.1769949579068708  0.39067312066777765  0.6150680937856805  1.0000
  H   H26       1.0  0.677003243611189  0.6093202132787214  0.3849140024958117  1.0000
  H   H27       1.0  0.5606501843299084  0.30650384641500494  0.6885913241974676  1.0000
  H   H28       1.0  0.06064177238247479  0.6935016616454704  0.31141862846894236  1.0000
  H   H29       1.0  0.7388498342447108  0.2120478897150876  0.32383358401871476  1.0000
  H   H30       1.0  0.23884786993004067  0.7879476230108795  0.6761676429924749  1.0000
  H   H31       1.0  0.3440972284508205  0.4176787657083808  0.4935915606374905  1.0000
  H   H32       1.0  0.8441009030147697  0.5823272077443138  0.5064043236832773  1.0000
  H   H33       1.0  0.4502416110560147  0.0823545370038019  0.008969784447195702  1.0000
  H   H34       1.0  0.9502363163801704  0.9176401158894978  0.9910355070443515  1.0000
  C   C1        1.0  0.3441285638554703  0.5765574232574552  0.5775203223632915  1.0000
  C   C2        1.0  0.8441332751857756  0.42344658142508973  0.4224783592568357  1.0000
  C   C3        1.0  0.34967357676116256  0.5713017140892234  0.43260111203927204  1.0000
  C   C4        1.0  0.8496645028441349  0.42869872665470155  0.5673947464880982  1.0000
  C   C5        1.0  0.10123679852151211  0.17403235811425335  0.8274150312033371  1.0000
  C   C6        1.0  0.6012320307048497  0.825960034142405  0.17257719540225477  1.0000
  C   C7        1.0  0.11115765032005949  0.1349099516857209  0.867623949275604  1.0000
  C   C8        1.0  0.6111538875826668  0.8650773084080757  0.1323638405209451  1.0000
  C   C9        1.0  0.9369739432728962  0.1119920650749862  0.8887827849793553  1.0000
  C   C10       1.0  0.43697641760822137  0.8880053938906659  0.11121572813864589  1.0000
  C   C11       1.0  0.7523097263488481  0.12802466040854912  0.8685239300914916  1.0000
  C   C12       1.0  0.2523140881076671  0.8719926705379496  0.1314885553910585  1.0000
  C   C13       1.0  0.7411873134029675  0.1668968747667634  0.8282269449556948  1.0000
  C   C14       1.0  0.24118771761535376  0.8331253180353215  0.1717915803544514  1.0000
  C   C15       1.0  0.9157988503667837  0.19100356818971428  0.8072944042938063  1.0000
  C   C16       1.0  0.4157933353051462  0.8090059026115316  0.1927121889531946  1.0000
  C   C17       1.0  0.9043046091707865  0.23185826315478422  0.7671356272029969  1.0000
  C   C18       1.0  0.4042965247658402  0.7681483125558447  0.23287417943743802  1.0000
  C   C19       1.0  0.8921449739755829  0.2675565650819466  0.7327792852927785  1.0000
  C   C20       1.0  0.3921302111592978  0.7324577489495568  0.2672261591418277  1.0000
  C   C21       1.0  0.054791507677549596  0.33282356877116837  0.6717858154942177  1.0000
  C   C22       1.0  0.5547900951214046  0.6671762973808272  0.328204906297259  1.0000
  C   C23       1.0  0.04345723220395569  0.371822568547458  0.6315709152671332  1.0000
  C   C24       1.0  0.5434607465480353  0.6281736114684267  0.36841660956677896  1.0000
  C   C25       1.0  0.8587437510495732  0.38780326155308836  0.6112446225322472  1.0000
  C   C26       1.0  0.35875693338157794  0.6121963911826783  0.38875202002208914  1.0000
  C   C27       1.0  0.6848493132517107  0.36446526936624224  0.6322696162091787  1.0000
  C   C28       1.0  0.1848520817546273  0.6355346412131625  0.3677317106057386  1.0000
  C   C29       1.0  0.6950235112479176  0.3251934443968523  0.6723743538919466  1.0000
  C   C30       1.0  0.19501840115658814  0.6748101473121226  0.32763017172345593  1.0000
  C   C31       1.0  0.8804625726443833  0.30840237300847667  0.6926385028207704  1.0000
  C   C32       1.0  0.38045116738273066  0.6916031597261921  0.30736372966680386  1.0000
  C   C33       1.0  0.7136382476719872  0.1988312609204144  0.2361871376285549  1.0000
  C   C34       1.0  0.21363411548846764  0.8011657974345713  0.7638125325143577  1.0000
  C   C35       1.0  0.0793396398663759  0.1996584367869687  0.2543106742350858  1.0000
  C   C36       1.0  0.5793487038001857  0.8003395308885218  0.7456900144764589  1.0000
  C   C37       1.0  0.0778103008116844  0.25953619268038614  0.2958325065273044  1.0000
  C   C38       1.0  0.5778141496453272  0.7404618178765221  0.70416858524554  1.0000
  C   C39       1.0  0.8423709628813044  0.3785709695100863  0.37517813159455216  1.0000
  C   C40       1.0  0.3423780662123619  0.6214299841217753  0.624822145444078  1.0000
  C   C41       1.0  0.9252917050391715  0.20575856888958557  0.20965990663897574  1.0000
  C   C42       1.0  0.4252927661763621  0.7942387230514643  0.7903414280171505  1.0000
  C   C43       1.0  0.7104993897479304  0.24089572316671595  0.2912857424671813  1.0000
  C   C44       1.0  0.2104999928001448  0.7591006429721221  0.7087159329796081  1.0000
  C   C45       1.0  0.8681370467444438  0.2925389498153806  0.2913807283934631  1.0000
  C   C46       1.0  0.3681396136928327  0.7074577811736305  0.7086218974223611  1.0000
  C   C47       1.0  0.8618014485378468  0.32093939944263644  0.2373345545225334  1.0000
  C   C48       1.0  0.3617929460328497  0.6790582303341497  0.7626680841801702  1.0000
  C   C49       1.0  0.9461021510096758  0.2732154992760343  0.19236997479008983  1.0000
  C   C50       1.0  0.446093782801313  0.7267824443708123  0.807632129529985  1.0000
  C   C51       1.0  0.8438015251196235  0.33987368721891204  0.336367700951925  1.0000
  C   C52       1.0  0.3438010137399061  0.6601258161992832  0.6636357732166119  1.0000
  C   C53       1.0  0.9497057580038941  0.15872625626469272  0.1645805450815487  1.0000
  C   C54       1.0  0.44970395530116747  0.8412706283558579  0.8354203487977045  1.0000
  C   C55       1.0  0.9512430065452334  0.12048060088878296  0.12548034372700556  1.0000
  C   C56       1.0  0.4512439341533465  0.8795170680296139  0.8745193486449805  1.0000
  C   C57       1.0  0.4454656586537382  0.9286384070607102  0.0671631954115384  1.0000
  C   C58       1.0  0.945506495802448  0.07135996522372075  0.932834906398341  1.0000
  C   C59       1.0  0.44986233665306935  0.9239996889143075  0.9221119312514362  1.0000
  C   C60       1.0  0.9499014726437736  0.07599751107573383  0.07788776186780672  1.0000
  C   C61       1.0  0.6779188507736009  0.13385764507915351  0.24556196913909636  1.0000
  C   C62       1.0  0.17791946449299453  0.8661389447213782  0.7544389581516883  1.0000
  C   C63       1.0  0.10995071243649329  0.2417308877180275  0.34990578410162954  1.0000
  C   C64       1.0  0.6099547508402949  0.7582654091325485  0.6500952510249505  1.0000
  C   C65       1.0  0.2314135611151045  0.304860766449437  0.2854809245643182  1.0000
  C   C66       1.0  0.7314076674554997  0.6951373441210651  0.7145191208343319  1.0000
  C   C67       1.0  0.8621227204592898  0.2808660349670974  0.1400290640207515  1.0000
  C   C68       1.0  0.3621072690752385  0.7191351027193778  0.8599719829589603  1.0000
  C   C69       1.0  0.5577478207945106  0.21644081770019602  0.1999287013457263  1.0000
  C   C70       1.0  0.05774674008850409  0.783552277837565  0.8000708056093729  1.0000
  N   N1        1.0  0.6478075496668012  0.08323299355711104  0.2553750538545358  1.0000
  N   N2        1.0  0.147818152563346  0.9167645092667629  0.744623121027118  1.0000
  N   N3        1.0  0.1358286456802205  0.2256761747027413  0.392159043839932  1.0000
  N   N4        1.0  0.6358533533907432  0.7743228459371  0.6078443610614599  1.0000
  N   N5        1.0  0.3493744022990484  0.3416823778626751  0.27649228833824685  1.0000
  N   N6        1.0  0.8493577137417319  0.6583116777082483  0.7235043521491775  1.0000
  N   N7        1.0  0.800864623178768  0.28873008088235963  0.09792705022066168  1.0000
  N   N8        1.0  0.3008422326685718  0.7112712063288172  0.9020736947391869  1.0000
  N   N9        1.0  0.4301671504545652  0.23093612166401567  0.17265671501023414  1.0000
  N   N10       1.0  0.9301601454410077  0.7690536020803763  0.8273393825226735  1.0000
  O   O1        1.0  0.5151292077467956  0.5552313213416867  0.4514750081389635  1.0000
  O   O2        1.0  0.015111191447040498  0.4447698442697927  0.5485201863577841  1.0000
  O   O3        1.0  0.17614756511579802  0.56048797128571  0.5579504388776114  1.0000
  O   O4        1.0  0.6761409010495073  0.43951307530861083  0.4420529077305347  1.0000
  O   O5        1.0  0.1788699275269749  0.5558654041464096  0.44869988523318943  1.0000
  O   O6        1.0  0.6788514674022252  0.44414101293522634  0.5513018714982464  1.0000
  O   O7        1.0  0.0144348470479159  0.44113149630955917  0.4394993102422902  1.0000
  O   O8        1.0  0.5144439866266665  0.5588771248074524  0.56049630857337  1.0000
  O   O9        1.0  0.3456391167334658  0.4627759736400847  0.49777882215490615  1.0000
  O   O10       1.0  0.8456451315016834  0.5372301867016064  0.5022222665037717  1.0000
  O   O11       1.0  0.27983581372417626  0.9414652680100275  0.9393687692716881  1.0000
  O   O12       1.0  0.7798121441274972  0.05852259879690541  0.060632769337836116  1.0000
  O   O13       1.0  0.6160692910259443  0.9438051682028004  0.050800885176578  1.0000
  O   O14       1.0  0.11606359515101158  0.0561854039594962  0.9491873073504138  1.0000
  O   O15       1.0  0.6181292796510647  0.9400417444453028  0.9415087236774299  1.0000
  O   O16       1.0  0.11809571178176978  0.05996428004483791  0.0584883232819067  1.0000
  O   O17       1.0  0.7797179387212269  0.0553752398733209  0.9515427293062259  1.0000
  O   O18       1.0  0.27972556235723534  0.9446269636443888  0.048462457531961406  1.0000
  O   O19       1.0  0.4489738328391866  0.037317766727952104  0.0024499128586086  1.0000
  O   O20       1.0  0.9489617151820936  0.9626776760520317  0.9975505773203822  1.0000
