data_image0
_chemical_formula_structural       Ni2H34C46N8O10
_chemical_formula_sum              "Ni2 H34 C46 N8 O10"
_cell_length_a       8.0548658169258
_cell_length_b       9.803928606107691
_cell_length_c       11.886351079703207
_cell_angle_alpha    80.62352743325181
_cell_angle_beta     89.64447552514494
_cell_angle_gamma    83.84973267142864

_space_group_name_H-M_alt    "P 1"
_space_group_IT_number       1

loop_
  _space_group_symop_operation_xyz
  'x, y, z'

loop_
  _atom_site_type_symbol
  _atom_site_label
  _atom_site_symmetry_multiplicity
  _atom_site_fract_x
  _atom_site_fract_y
  _atom_site_fract_z
  _atom_site_occupancy
  Ni  Ni1       1.0  0.31097425597720724  0.9676480757305441  0.4683423377406228  1.0000
  Ni  Ni2       1.0  0.6890276838423403  0.03235441313047  0.5316575882524361  1.0000
  H   H1        1.0  0.1105751724527266  0.22159870790788722  0.5924307537862035  1.0000
  H   H2        1.0  0.8894291097794849  0.7784047933335217  0.40757240031500436  1.0000
  H   H3        1.0  0.3313715057203979  0.8204408306328332  0.7312079980897508  1.0000
  H   H4        1.0  0.668626035047204  0.1795574766962176  0.26879247481623025  1.0000
  H   H5        1.0  0.16555438099237565  0.9368876507077102  0.9023623182385309  1.0000
  H   H6        1.0  0.8344453597715784  0.0631127377371996  0.0976387237704586  1.0000
  H   H7        1.0  0.13072695583074534  0.1195883945676712  0.9890392743036499  1.0000
  H   H8        1.0  0.86927444965756  0.8804088608195216  0.01096384140296181  1.0000
  H   H9        1.0  0.9742656027369778  0.2866970675467684  0.0908321376712209  1.0000
  H   H10       1.0  0.025731657431492746  0.7133032904021518  0.9091706002597135  1.0000
  H   H11       1.0  0.7386910275962107  0.49321349174952167  0.7737538236562713  1.0000
  H   H12       1.0  0.2613054148195602  0.5067837412461669  0.22624931365635353  1.0000
  H   H13       1.0  0.8895456258813398  0.321763115782872  0.6739961729559738  1.0000
  H   H14       1.0  0.11045329807069493  0.678234128408569  0.3260069535536445  1.0000
  H   H15       1.0  0.8353001400399408  0.41577375660119037  0.1749682892288931  1.0000
  H   H16       1.0  0.1646950606669293  0.5842234900968677  0.8250331683662964  1.0000
  H   H17       1.0  0.6842929008650245  0.5854792157085171  0.27063678474831937  1.0000
  H   H18       1.0  0.3157082221426037  0.41452012889903495  0.7293652257453614  1.0000
  H   H19       1.0  0.46949994667382106  0.7995728192421296  0.9482853840728039  1.0000
  H   H20       1.0  0.5304966358063296  0.200423393268693  0.05171619944760411  1.0000
  H   H21       1.0  0.626752407313873  0.6311547983792565  0.8513110292637619  1.0000
  H   H22       1.0  0.37324459724094083  0.36883831407644857  0.1486892631178875  1.0000
  H   H23       1.0  0.5260574875447972  0.7268286583910565  0.35034138969942313  1.0000
  H   H24       1.0  0.4739471875431251  0.27318112575940745  0.6496576008020298  1.0000
  H   H25       1.0  0.23881809997293865  0.09457378330670001  0.20086393911873296  1.0000
  H   H26       1.0  0.7611722739626715  0.905422497715925  0.7991292458144699  1.0000
  H   H27       1.0  0.3679554992307958  0.9566569568402911  0.02897453660565225  1.0000
  H   H28       1.0  0.6320424636114624  0.04333825043364211  0.9710246451615632  1.0000
  H   H29       1.0  0.2148784067234573  0.45064837406774666  0.4586443291887647  1.0000
  H   H30       1.0  0.785126012280415  0.5493541742396105  0.5413513732039235  1.0000
  H   H31       1.0  0.008764706288069107  0.1305105821224899  0.43067963112965657  1.0000
  H   H32       1.0  0.9912361332981093  0.8694908710056523  0.5693195890321618  1.0000
  H   H33       1.0  0.16333366824348167  0.1817142373922493  0.35639408313706167  1.0000
  H   H34       1.0  0.8366677344224982  0.818283075895657  0.6436039772127202  1.0000
  C   C1        1.0  0.15077161808738984  0.12816127171940653  0.6519765351616442  1.0000
  C   C2        1.0  0.8492318459217358  0.8718391142188935  0.3480261757617811  1.0000
  C   C3        1.0  0.2629508436558011  0.9223002253912757  0.7274583789405044  1.0000
  C   C4        1.0  0.7370479383503153  0.07769807788552902  0.2725429311234393  1.0000
  C   C5        1.0  0.18435084460752904  0.9793836221582878  0.813971501674196  1.0000
  C   C6        1.0  0.8156465551549276  0.020615724955874295  0.1860288399050489  1.0000
  C   C7        1.0  0.0196237665848003  0.20771251947051186  0.8243671550111955  1.0000
  C   C8        1.0  0.9803777808494233  0.7922836768313246  0.17563777714108397  1.0000
  C   C9        1.0  0.0407436276565747  0.1988881911843592  0.9421293042490716  1.0000
  C   C10       1.0  0.959254873280031  0.801112172362437  0.057873428280359525  1.0000
  C   C11       1.0  0.9514462691255191  0.29506433696006706  0.9996291962290584  1.0000
  C   C12       1.0  0.04855637713091453  0.704932924025009  0.00037391407605013585  1.0000
  C   C13       1.0  0.8386338691861468  0.40321552025983465  0.9423016500338974  1.0000
  C   C14       1.0  0.16136381446814602  0.5967817086836149  0.05770232443669698  1.0000
  C   C15       1.0  0.8210337341819737  0.4103182026890265  0.8235674905986413  1.0000
  C   C16       1.0  0.17896519024044727  0.5896790318523059  0.17643647847044971  1.0000
  C   C17       1.0  0.9088229056650834  0.3142312954965618  0.7653667953989682  1.0000
  C   C18       1.0  0.09117573627666793  0.685768028265116  0.23463606845719207  1.0000
  C   C19       1.0  0.7438875168829783  0.5059516227459396  0.0033803296360446333  1.0000
  C   C20       1.0  0.25611044737045324  0.4940435555776332  0.9966213798095822  1.0000
  C   C21       1.0  0.7545098414276835  0.49763252900908145  0.12255762963763317  1.0000
  C   C22       1.0  0.24549032235171353  0.5023647400804806  0.8774438063515362  1.0000
  C   C23       1.0  0.6667326460810798  0.5959415306504497  0.1787795079229539  1.0000
  C   C24       1.0  0.33326957574875843  0.4040588786403347  0.8212206807235561  1.0000
  C   C25       1.0  0.563214746384567  0.7063895606900272  0.11710731581980133  1.0000
  C   C26       1.0  0.43678995745192845  0.2936108501463864  0.882893704583175  1.0000
  C   C27       1.0  0.5496467588776711  0.715790686270431  0.9989332730686087  1.0000
  C   C28       1.0  0.4503545046647162  0.2842076282021253  0.00106802619232841  1.0000
  C   C29       1.0  0.6390204777794963  0.6177594733855472  0.9435703614221964  1.0000
  C   C30       1.0  0.36097886871759494  0.3822346611006679  0.056432316508129104  1.0000
  C   C31       1.0  0.46484478452531164  0.8085620740972886  0.2875687400054119  1.0000
  C   C32       1.0  0.5351624003770611  0.19143835758499247  0.7124314270350852  1.0000
  C   C33       1.0  0.31662100778316227  0.9966969317179917  0.2064660331479047  1.0000
  C   C34       1.0  0.6833728087984953  0.003301397417899907  0.7935310857246943  1.0000
  C   C35       1.0  0.3796620390022269  0.9294212314627046  0.12056558045615158  1.0000
  C   C36       1.0  0.6203319181141894  0.07057606753819101  0.8794308271837039  1.0000
  C   C37       1.0  0.19785021184591048  0.6727793835925624  0.552073832578543  1.0000
  C   C38       1.0  0.8021513026062621  0.3272262728743982  0.44792148663696446  1.0000
  C   C39       1.0  0.3410003592003363  0.47321302734913934  0.4767002789052697  1.0000
  C   C40       1.0  0.6589990967310089  0.5267894985667141  0.5232954450934315  1.0000
  C   C41       1.0  0.3600752643540588  0.5917633953158301  0.5249974312794521  1.0000
  C   C42       1.0  0.6399276314010082  0.4082412366140105  0.47499717130180835  1.0000
  C   C43       1.0  0.5234255379569887  0.6189431027440263  0.5485557779467527  1.0000
  C   C44       1.0  0.4765774997439963  0.38106047010045774  0.45144064108018256  1.0000
  C   C45       1.0  0.5767302968591466  0.7408468914171777  0.5962342956420628  1.0000
  C   C46       1.0  0.4232706832617836  0.2591535315759685  0.4037642132870046  1.0000
  N   N1        1.0  0.24139637897317806  0.015869454631179305  0.6270741411271885  1.0000
  N   N2        1.0  0.7586057023219014  0.9841319847946011  0.37292675875206527  1.0000
  N   N3        1.0  0.11284975325222041  0.11072375002525094  0.7654803514743165  1.0000
  N   N4        1.0  0.8871513697554081  0.8892755945823011  0.23452165901937153  1.0000
  N   N5        1.0  0.37055312846948146  0.920179417464226  0.31033678145481497  1.0000
  N   N6        1.0  0.6294475696411581  0.07982308509915012  0.6896614648208014  1.0000
  N   N7        1.0  0.4746590827000006  0.8093315052235964  0.1727151662086755  1.0000
  N   N8        1.0  0.5253420398372411  0.19066784903407102  0.8272860017255397  1.0000
  O   O1        1.0  0.1709438695487363  0.8047877956205127  0.5129039642140896  1.0000
  O   O2        1.0  0.829058744666419  0.19521890622944227  0.48709121827319274  1.0000
  O   O3        1.0  0.09177948585123374  0.6050544942337338  0.6061136676897689  1.0000
  O   O4        1.0  0.9082251868847492  0.39495533816731404  0.3938811100143269  1.0000
  O   O5        1.0  0.5302375879067895  0.865567418872381  0.5444422850751494  1.0000
  O   O6        1.0  0.4697621528571646  0.13443296957252932  0.45555875693384007  1.0000
  O   O7        1.0  0.6804040721401916  0.714536847605217  0.6773920352809597  1.0000
  O   O8        1.0  0.31959346768663727  0.28546147902406455  0.3226067525060756  1.0000
  O   O9        1.0  0.1099927767132058  0.09719795383741568  0.3891194570014632  1.0000
  O   O10       1.0  0.8900098690728485  0.9027993167977754  0.6108828107441725  1.0000
