data_image0
_chemical_formula_structural       Rb4H52C72O4
_chemical_formula_sum              "Rb4 H52 C72 O4"
_cell_length_a       5.552591582
_cell_length_b       11.701023308944087
_cell_length_c       21.115117800253046
_cell_angle_alpha    89.99915064875007
_cell_angle_beta     89.99950623877082
_cell_angle_gamma    92.9786944120503

_space_group_name_H-M_alt    "P 1"
_space_group_IT_number       1

loop_
  _space_group_symop_operation_xyz
  'x, y, z'

loop_
  _atom_site_type_symbol
  _atom_site_label
  _atom_site_symmetry_multiplicity
  _atom_site_fract_x
  _atom_site_fract_y
  _atom_site_fract_z
  _atom_site_occupancy
  Rb  Rb1       1.0  0.2432003353550698  0.9489113756199926  0.9512355172772828  1.0000
  Rb  Rb2       1.0  0.24322676782051633  0.44890000612016934  0.5487636920333117  1.0000
  Rb  Rb3       1.0  0.7567760406625439  0.051093992462078595  0.048760798300932606  1.0000
  Rb  Rb4       1.0  0.7567878235243057  0.55109252513531  0.45123593870518874  1.0000
  H   H1        1.0  0.3384549354534983  0.5243694369996277  0.962268844310536  1.0000
  H   H2        1.0  0.33847287195130343  0.024356109968373105  0.5377289442170792  1.0000
  H   H3        1.0  0.6615863689010979  0.47563678689093786  0.0377265240790265  1.0000
  H   H4        1.0  0.6615042943315358  0.9756235844343522  0.46227494887036613  1.0000
  H   H5        1.0  0.5617190194192432  0.46001035779519844  0.8682381114920759  1.0000
  H   H6        1.0  0.561704111800033  0.9600179889759629  0.6317639393844772  1.0000
  H   H7        1.0  0.4383144249495388  0.53998987550127  0.1317615192464245  1.0000
  H   H8        1.0  0.438279092836602  0.0399839556888608  0.3682427952689267  1.0000
  H   H9        1.0  0.850630413701552  0.597102182772872  0.8144647908354727  1.0000
  H   H10       1.0  0.8505853321459043  0.09709523507522988  0.6855443639559837  1.0000
  H   H11       1.0  0.1493769536542828  0.4029066085563072  0.1855272623937978  1.0000
  H   H12       1.0  0.1493918137878723  0.902900719244144  0.3144576347541559  1.0000
  H   H13       1.0  0.6647779016273745  0.814047359707473  0.0684196988095991  1.0000
  H   H14       1.0  0.664741543177861  0.31403708370312694  0.4315741966305636  1.0000
  H   H15       1.0  0.3352173476785012  0.1859494504334975  0.9315808791175543  1.0000
  H   H16       1.0  0.3352465230066954  0.6859434668091069  0.5684178565987068  1.0000
  H   H17       1.0  0.4520876833048105  0.8369187396248989  0.1706881313497632  1.0000
  H   H18       1.0  0.45201491403880567  0.3369423563259133  0.3293114472223309  1.0000
  H   H19       1.0  0.5479371513415285  0.16306865679263888  0.829316708926342  1.0000
  H   H20       1.0  0.5479781596752601  0.6630510308558611  0.6706829739785789  1.0000
  H   H21       1.0  0.041881842146679595  0.7404733382761606  0.1867609756153144  1.0000
  H   H22       1.0  0.041810598135242606  0.2405012661519592  0.3132476012489818  1.0000
  H   H23       1.0  0.9581320928183388  0.2595132022019939  0.813249547792708  1.0000
  H   H24       1.0  0.9581734502560194  0.7595083808155891  0.6867496615178865  1.0000
  H   H25       1.0  0.8456777433131819  0.6330528658800816  0.0977181382475223  1.0000
  H   H26       1.0  0.845638527087857  0.13306474738436688  0.4022937537770659  1.0000
  H   H27       1.0  0.15434746620146458  0.3669379536798658  0.9022862284342495  1.0000
  H   H28       1.0  0.1543324256133971  0.8669568805489121  0.597703035395476  1.0000
  H   H29       1.0  0.0469992319561428  0.6222435313356769  0.9939385705431291  1.0000
  H   H30       1.0  0.0469729854096883  0.12223537749459719  0.5060672690880352  1.0000
  H   H31       1.0  0.9530108935837018  0.377757557703859  0.0060624809783505  1.0000
  H   H32       1.0  0.9529700158014334  0.8777776926546322  0.4939280993015274  1.0000
  H   H33       1.0  0.2282146139974586  0.6866388788488181  0.8284386650443097  1.0000
  H   H34       1.0  0.22822566609242048  0.1866592328775027  0.6715638594265698  1.0000
  H   H35       1.0  0.7717756071755344  0.3133613543429519  0.1715647544488093  1.0000
  H   H36       1.0  0.7718052071281037  0.813350413972266  0.3284376656892363  1.0000
  H   H37       1.0  0.4935384302509646  0.8074404732852543  0.7586730111577253  1.0000
  H   H38       1.0  0.4935424054516986  0.3074544042710983  0.7413285661245014  1.0000
  H   H39       1.0  0.5064490324498151  0.19256746197367386  0.2413294611467407  1.0000
  H   H40       1.0  0.5064588086916189  0.6925475403152035  0.2586810100948611  1.0000
  H   H41       1.0  0.3874855539807101  0.006351928044694001  0.7319840764608898  1.0000
  H   H42       1.0  0.3874695213928305  0.5063486058548747  0.7680151328496977  1.0000
  H   H43       1.0  0.6125048549400773  0.9936500169603946  0.2680103447400128  1.0000
  H   H44       1.0  0.6125261023236206  0.4936516270751524  0.2319977585299569  1.0000
  H   H45       1.0  0.013465330085914199  0.0829534596620363  0.7774524470013803  1.0000
  H   H46       1.0  0.013478703391918107  0.5829612082114721  0.7225458151205615  1.0000
  H   H47       1.0  0.986521945816456  0.9170527645164483  0.22253250231299404  1.0000
  H   H48       1.0  0.9865532211206369  0.4170415924058162  0.2774547628065989  1.0000
  H   H49       1.0  0.7433303881180748  0.9607668922983092  0.8451541768114339  1.0000
  H   H50       1.0  0.743329447665573  0.4607992954142617  0.6548445589048271  1.0000
  H   H51       1.0  0.2566611658753927  0.0392290623089764  0.1548374028235102  1.0000
  H   H52       1.0  0.25670074919905517  0.5392206208627428  0.3451555454279998  1.0000
  C   C1        1.0  0.6781081398592832  0.7747489944438328  0.9350063868838561  1.0000
  C   C2        1.0  0.678120408212635  0.2747495645904081  0.5649985055586555  1.0000
  C   C3        1.0  0.3219168620671057  0.22525637361205497  0.0649908758830122  1.0000
  C   C4        1.0  0.3218582576112751  0.7252438224343223  0.4350015987741714  1.0000
  C   C5        1.0  0.5063012642929863  0.6937047415676574  0.9643294532267747  1.0000
  C   C6        1.0  0.5062823712176651  0.19369923019883117  0.5356778071873691  1.0000
  C   C7        1.0  0.4937184486941176  0.3062852222623107  0.0356730190776844  1.0000
  C   C8        1.0  0.49370036505821696  0.8062984357113833  0.4643232443341105  1.0000
  C   C9        1.0  0.4644372408050827  0.5841088453504142  0.9381344774128806  1.0000
  C   C10       1.0  0.4644184610253177  0.08410359808332402  0.5618637847090611  1.0000
  C   C11       1.0  0.5355690017084669  0.4158896763683017  0.0618656269199533  1.0000
  C   C12       1.0  0.5355656076132931  0.9158897888890536  0.4381382140010786  1.0000
  C   C13       1.0  0.5880162331344323  0.5475718225038052  0.8853149757306086  1.0000
  C   C14       1.0  0.5880106300745851  0.0475705022931052  0.6146847071743125  1.0000
  C   C15       1.0  0.4119818480752429  0.4524344013213337  0.1146827606305862  1.0000
  C   C16       1.0  0.4119938113424978  0.9524280193209123  0.3853191859131329  1.0000
  C   C17       1.0  0.7525188880909822  0.6244595380698286  0.8560833130927747  1.0000
  C   C18       1.0  0.7524853959100994  0.1244677273722203  0.643920632161084  1.0000
  C   C19       1.0  0.2474818373933658  0.3755543877177701  0.1439172648343785  1.0000
  C   C20       1.0  0.24750330535580634  0.8755350731011119  0.356085155303667  1.0000
  C   C21       1.0  0.7946146921813123  0.7366477165169059  0.8780244646626656  1.0000
  C   C22       1.0  0.7946177389409356  0.23666396478603244  0.6219761654309082  1.0000
  C   C23       1.0  0.2053812863934468  0.2633721997339292  0.1219765868588212  1.0000
  C   C24       1.0  0.20537456426360728  0.7633388357003879  0.3780291484395164  1.0000
  C   C25       1.0  0.3738729219670063  0.7171543607415956  0.0234031372569561  1.0000
  C   C26       1.0  0.3738312379836444  0.21715528926937816  0.4765931261548459  1.0000
  C   C27       1.0  0.6261327579473885  0.28283902603448047  0.9766059653680871  1.0000
  C   C28       1.0  0.6261454395554651  0.7828363862692101  0.5234041366120223  1.0000
  C   C29       1.0  0.48040971692647355  0.7797893794682764  0.0741274576371254  1.0000
  C   C30       1.0  0.4803660537943202  0.2798076596648045  0.4258688057746767  1.0000
  C   C31       1.0  0.5196017612065019  0.2201911706251707  0.925879750610612  1.0000
  C   C32       1.0  0.5196067201659814  0.7201977083125612  0.5741312985581573  1.0000
  C   C33       1.0  0.3617912384104827  0.7897567873722835  0.132045675842555  1.0000
  C   C34       1.0  0.36174697495378166  0.28978425895844856  0.3679520083522263  1.0000
  C   C35       1.0  0.6382493363192197  0.2102263301335938  0.8679591644335432  1.0000
  C   C36       1.0  0.6382366985861266  0.7102219648797784  0.632045254414642  1.0000
  C   C37       1.0  0.13310695664073083  0.7364892207217011  0.1411363189469554  1.0000
  C   C38       1.0  0.1330921793555788  0.2365009345006541  0.3588741522946464  1.0000
  C   C39       1.0  0.8669072596662488  0.2634998872604939  0.8588685213291427  1.0000
  C   C40       1.0  0.8669168219523014  0.7634898853995579  0.6411179009346242  1.0000
  C   C41       1.0  0.023098988839287002  0.6755417861823787  0.091084028916633  1.0000
  C   C42       1.0  0.023076276331409  0.17554388736981247  0.4089302310795944  1.0000
  C   C43       1.0  0.976916840968947  0.3244456102089829  0.9089217585481252  1.0000
  C   C44       1.0  0.9769275096043941  0.8244486441604977  0.5910594541780512  1.0000
  C   C45       1.0  0.1388430994215426  0.6678764424346468  0.0328153509093099  1.0000
  C   C46       1.0  0.13881385218627423  0.16787018877687387  0.4671927523606598  1.0000
  C   C47       1.0  0.8611698781846825  0.3321178002284526  0.9671899629611147  1.0000
  C   C48       1.0  0.8611711743366894  0.8321154964162645  0.5327997744629371  1.0000
  C   C49       1.0  0.960740881736605  0.8130803853109682  0.8404902198803512  1.0000
  C   C50       1.0  0.9606936664519877  0.31308771283353554  0.6595137253735146  1.0000
  C   C51       1.0  0.03924583122755369  0.18692070366313368  0.1595131996127677  1.0000
  C   C52       1.0  0.0393181662680391  0.6869125203713223  0.3404892205252779  1.0000
  C   C53       1.0  0.17595114059412248  0.7722089112602432  0.8155166438354655  1.0000
  C   C54       1.0  0.175915212716653  0.27221913755114  0.6844849334467611  1.0000
  C   C55       1.0  0.8240253291871865  0.2277973126434176  0.1844782509597636  1.0000
  C   C56       1.0  0.8240902598129266  0.7277887978779206  0.3155113821314544  1.0000
  C   C57       1.0  0.32722225294367047  0.8408223321080327  0.7767079567195267  1.0000
  C   C58       1.0  0.3272065840692662  0.3408269903212187  0.7232978829116378  1.0000
  C   C59       1.0  0.6727599009434471  0.1591864592080512  0.2232845701040702  1.0000
  C   C60       1.0  0.6728022090739358  0.6591783776299778  0.276703168609842  1.0000
  C   C61       1.0  0.2696255922043562  0.9528326546831637  0.7623656261243851  1.0000
  C   C62       1.0  0.2696235854605434  0.4528390876938175  0.7376364247521678  1.0000
  C   C63       1.0  0.7303813065533759  0.0471718577081788  0.2376273742935453  1.0000
  C   C64       1.0  0.7303707998433565  0.5471662801395922  0.2623688891182567  1.0000
  C   C65       1.0  0.05904521235604681  0.9952933105297319  0.7875561083709713  1.0000
  C   C66       1.0  0.05906975404762699  0.49529685686446356  0.7124445217225954  1.0000
  C   C67       1.0  0.940959604387082  0.004708634580048  0.21243452407532004  1.0000
  C   C68       1.0  0.9409463364822414  0.5047093667381972  0.2875612657421556  1.0000
  C   C69       1.0  0.9067946125608515  0.9266516571752561  0.8260640630893477  1.0000
  C   C70       1.0  0.9067691943601444  0.4266693126727219  0.6739365670042261  1.0000
  C   C71       1.0  0.09321172373335428  0.0733477203781447  0.1739341468661735  1.0000
  C   C72       1.0  0.0932345706162678  0.5733394783031045  0.326068273271872  1.0000
  O   O1        1.0  0.7249669443624142  0.877591136344307  0.9583119637094768  1.0000
  O   O2        1.0  0.7249897196189679  0.3775750235176289  0.5416773001202486  1.0000
  O   O3        1.0  0.27502079961250553  0.12241936636631578  0.0416867198403708  1.0000
  O   O4        1.0  0.27501483628385864  0.6224080942892484  0.4583166474863276  1.0000
