data_image0
_chemical_formula_structural       K2H14C16N6O5
_chemical_formula_sum              "K2 H14 C16 N6 O5"
_cell_length_a       4.474309116425439
_cell_length_b       6.521120256567302
_cell_length_c       17.41799627420618
_cell_angle_alpha    81.0058811399432
_cell_angle_beta     82.63056042022937
_cell_angle_gamma    68.7913238649968

_space_group_name_H-M_alt    "P 1"
_space_group_IT_number       1

loop_
  _space_group_symop_operation_xyz
  'x, y, z'

loop_
  _atom_site_type_symbol
  _atom_site_label
  _atom_site_symmetry_multiplicity
  _atom_site_fract_x
  _atom_site_fract_y
  _atom_site_fract_z
  _atom_site_occupancy
  K   K1        1.0  0.8864935442973382  0.32205869499092893  0.9289713297964326  1.0000
  K   K2        1.0  0.12674699447112678  0.6805761354845001  0.0704690877030103  1.0000
  H   H1        1.0  0.5428840267499598  0.9517377099979567  0.9592088467068436  1.0000
  H   H2        1.0  0.446784949222078  0.0549082394669327  0.03844114111533513  1.0000
  H   H3        1.0  0.1247633238204102  0.697517560280815  0.7636748315162905  1.0000
  H   H4        1.0  0.5742808664872286  0.3084435555670097  0.23408870995737632  1.0000
  H   H5        1.0  0.7903242814382169  0.87308727713566  0.8169334432902744  1.0000
  H   H6        1.0  0.47704343372650027  0.13532333053988307  0.1798970838653204  1.0000
  H   H7        1.0  0.353289252550596  0.5348073507261899  0.5929814891817954  1.0000
  H   H8        1.0  0.45910597748154924  0.4613709836226292  0.4132215335634655  1.0000
  H   H9        1.0  0.7900836586654593  0.25753866841665024  0.5188316737409765  1.0000
  H   H10       1.0  0.5558347671951512  0.7347830254485145  0.48419593660212706  1.0000
  H   H11       1.0  0.906080959347996  0.8581943458102971  0.5535125222578401  1.0000
  H   H12       1.0  0.32359087028270755  0.13465148948189656  0.44421559693783763  1.0000
  H   H13       1.0  0.6032037060460103  0.7110899930373975  0.6653953858151239  1.0000
  H   H14       1.0  0.9887847087620547  0.2865665186290443  0.3305620503125297  1.0000
  C   C1        1.0  0.23064708447497412  0.7732646971191172  0.8726055746136794  1.0000
  C   C2        1.0  0.8784009540126124  0.2254492995146862  0.12681488410133576  1.0000
  C   C3        1.0  0.0469183523362635  0.8370519798170121  0.7983698510807002  1.0000
  C   C4        1.0  0.6774841461126898  0.16757492817639263  0.19995112337888807  1.0000
  C   C5        1.0  0.29593197655609776  0.04570419412376479  0.6887398308575428  1.0000
  C   C6        1.0  0.024583445537430606  0.9542121706753618  0.31122638928572843  1.0000
  C   C7        1.0  0.22787466446212093  0.2761841610366176  0.6695829796887408  1.0000
  C   C8        1.0  0.16061052830275474  0.7231992634992463  0.3330244118799399  1.0000
  C   C9        1.0  0.4030895677596719  0.35750933439739196  0.6074825016954221  1.0000
  C   C10       1.0  0.3528312046413192  0.639067745895936  0.39635493293982893  1.0000
  C   C11       1.0  0.6437450841580556  0.20283023903217406  0.5667096963690951  1.0000
  C   C12       1.0  0.40450646625161146  0.7916163316624958  0.4353642679809369  1.0000
  C   C13       1.0  0.7109099163379043  0.9723567567850606  0.5868704053503606  1.0000
  C   C14       1.0  0.27059501297475935  0.022446404557946695  0.41216795958577274  1.0000
  C   C15       1.0  0.53997301410044  0.8886245679599086  0.6480155740922199  1.0000
  C   C16       1.0  0.0784890088353619  0.10913452363997318  0.3499165035972709  1.0000
  N   N1        1.0  0.07940722213493968  0.030862793782318886  0.7503111784181086  1.0000
  N   N2        1.0  0.8535958442398555  0.9722046592063691  0.24939669463135766  1.0000
  N   N3        1.0  0.8958395140638299  0.23654815815952185  0.7686424758951702  1.0000
  N   N4        1.0  0.8874773843854912  0.7674118210575429  0.2331265299807157  1.0000
  N   N5        1.0  0.9809461052139743  0.38513265352009546  0.7207436034170414  1.0000
  N   N6        1.0  0.06973848342771291  0.6168657413228045  0.2827712007576579  1.0000
  O   O1        1.0  0.2430374521301531  0.5903290128136403  0.9119291745113429  1.0000
  O   O2        1.0  0.7509734348148033  0.4117953797023474  0.08784813968532754  1.0000
  O   O3        1.0  0.6286301573549696  0.009126722609138892  0.9978827131554197  1.0000
  O   O4        1.0  0.3468261092773378  0.9107060202138654  0.8889816170722752  1.0000
  O   O5        1.0  0.14919278951980175  0.08013636225960138  0.1105688075704165  1.0000
