data_image0
_chemical_formula_structural       H24Pb2C36N8O8
_chemical_formula_sum              "H24 Pb2 C36 N8 O8"
_cell_length_a       7.11780102329799
_cell_length_b       8.623731150841879
_cell_length_c       13.836013034483711
_cell_angle_alpha    100.42715360720246
_cell_angle_beta     99.72363941973133
_cell_angle_gamma    100.81779441170708

_space_group_name_H-M_alt    "P 1"
_space_group_IT_number       1

loop_
  _space_group_symop_operation_xyz
  'x, y, z'

loop_
  _atom_site_type_symbol
  _atom_site_label
  _atom_site_symmetry_multiplicity
  _atom_site_fract_x
  _atom_site_fract_y
  _atom_site_fract_z
  _atom_site_occupancy
  H   H1        1.0  0.986977251507419  0.7860340436758619  0.16351133085768776  1.0000
  H   H2        1.0  0.013046881887781593  0.21399608857748123  0.8365034472901842  1.0000
  H   H3        1.0  0.8911908443193399  0.9281643993419453  0.3173457720241403  1.0000
  H   H4        1.0  0.10875080118759682  0.07175822746580708  0.6826754235906878  1.0000
  H   H5        1.0  0.09841697894611914  0.9379277993541637  0.4878692276199816  1.0000
  H   H6        1.0  0.9015102522272757  0.0619488739526801  0.5121520444418621  1.0000
  H   H7        1.0  0.8633773149334374  0.5776967062914835  0.5042785099930429  1.0000
  H   H8        1.0  0.13660618926786583  0.42224793227775603  0.49571795526510004  1.0000
  H   H9        1.0  0.92519621252535  0.43487315004816923  0.3373654883917255  1.0000
  H   H10       1.0  0.07479035912064802  0.5650945767684662  0.6626265880649244  1.0000
  H   H11       1.0  0.6931867042839245  0.4309918622664028  0.18000797025671741  1.0000
  H   H12       1.0  0.30684920677891375  0.5690464719833628  0.8199827954711838  1.0000
  H   H13       1.0  0.4656880319316202  0.9642421519049409  0.7607049476159775  1.0000
  H   H14       1.0  0.5343150749709551  0.035706833742338503  0.23930467495622315  1.0000
  H   H15       1.0  0.7310313330978105  0.8014023564208871  0.7670218087146384  1.0000
  H   H16       1.0  0.26902340941038727  0.19859643337193236  0.2329771901862118  1.0000
  H   H17       1.0  0.10946158111453032  0.9265038386907565  0.8259889004468166  1.0000
  H   H18       1.0  0.8905744786756812  0.07353448847892712  0.17399609589858767  1.0000
  H   H19       1.0  0.30907530572937963  0.8456833110683848  0.8679494675042253  1.0000
  H   H20       1.0  0.6909446383634262  0.15434570768193376  0.13204817074911554  1.0000
  H   H21       1.0  0.1380239848220555  0.07853196349311994  0.005518697077448605  1.0000
  H   H22       1.0  0.8619857226272599  0.92148758106503  0.9944834411800942  1.0000
  H   H23       1.0  0.33584448323894384  0.9958711820013235  0.04612566640496849  1.0000
  H   H24       1.0  0.6641981052339716  0.004174284107406796  0.9538592844762664  1.0000
  Pb  Pb1       1.0  0.2887789249526236  0.5502833991344931  0.08387669625490451  1.0000
  Pb  Pb2       1.0  0.7111889636098782  0.4497799813562936  0.916118423175327  1.0000
  C   C1        1.0  0.06808387559544828  0.792147846125772  0.23897923474719826  1.0000
  C   C2        1.0  0.9319217108209016  0.20785962100997327  0.761035639043364  1.0000
  C   C3        1.0  0.017108295782861747  0.872850999655036  0.3248455552923063  1.0000
  C   C4        1.0  0.9828519896575401  0.12709428784525303  0.6751719388157725  1.0000
  C   C5        1.0  0.12890676474449955  0.8780372126440243  0.41795079906403043  1.0000
  C   C6        1.0  0.8710451980602373  0.12188146912651382  0.5820658663041771  1.0000
  C   C7        1.0  0.28850078472670765  0.8034709708322225  0.4247059148151281  1.0000
  C   C8        1.0  0.7114792490393073  0.19647742945353036  0.5753043749759217  1.0000
  C   C9        1.0  0.3281243673401662  0.7228664418496822  0.3344053305234668  1.0000
  C   C10       1.0  0.6718865332275146  0.27712989721156595  0.6656008594902689  1.0000
  C   C11       1.0  0.4920880295079258  0.6435021232728035  0.3381318237667018  1.0000
  C   C12       1.0  0.5079335383974667  0.35650489683783354  0.6618678715167194  1.0000
  C   C13       1.0  0.612311135065774  0.6488242434244642  0.4317521197072198  1.0000
  C   C14       1.0  0.3876986180747153  0.3511587063454585  0.5682467002934644  1.0000
  C   C15       1.0  0.7703351372881074  0.5720449560579369  0.43204691002772944  1.0000
  C   C16       1.0  0.22965943183519502  0.4279213338274985  0.5679500929285057  1.0000
  C   C17       1.0  0.8034282605053065  0.49410336937987853  0.3419962235770414  1.0000
  C   C18       1.0  0.19656810983045858  0.5058775060339685  0.65799750059238  1.0000
  C   C19       1.0  0.6756209114439359  0.49316093161442615  0.2527134247890289  1.0000
  C   C20       1.0  0.32440394602832623  0.5068606316964194  0.7472802350588241  1.0000
  C   C21       1.0  0.41229737222741397  0.8092865613900458  0.5208648418131504  1.0000
  C   C22       1.0  0.5876931688175234  0.19066764664792402  0.479141290812045  1.0000
  C   C23       1.0  0.5701865526653549  0.7307891589033062  0.524348533912658  1.0000
  C   C24       1.0  0.4298207351148663  0.26918166315089564  0.4756537744169763  1.0000
  C   C25       1.0  0.4912807945513221  0.8929141053490781  0.6922254695463439  1.0000
  C   C26       1.0  0.508723634356244  0.10704338036214985  0.3077808794927393  1.0000
  C   C27       1.0  0.6423964705340381  0.8074308541991189  0.6957464686610211  1.0000
  C   C28       1.0  0.35763445528531435  0.19255151551830352  0.30425571432286364  1.0000
  C   C29       1.0  0.05019403961011186  0.7444766573251087  0.9101316597061102  1.0000
  C   C30       1.0  0.9498049413447659  0.2555712278091775  0.0898552600323015  1.0000
  C   C31       1.0  0.1851149769031367  0.890548082203303  0.8914262614754452  1.0000
  C   C32       1.0  0.8149035913496904  0.1094895079922154  0.10856279895007502  1.0000
  C   C33       1.0  0.2602404155528149  0.0330686103236388  0.9811156060461602  1.0000
  C   C34       1.0  0.7397753918227609  0.9669739351704509  0.018874466593956644  1.0000
  C   C35       1.0  0.39511149204806634  0.17823375961896207  0.9620848993344426  1.0000
  C   C36       1.0  0.6048644394019721  0.8218318353353811  0.03790254381920735  1.0000
  N   N1        1.0  0.2180820918164131  0.7195617275125347  0.2439370105628741  1.0000
  N   N2        1.0  0.7819424795325177  0.28046473033575137  0.7560716198680312  1.0000
  N   N3        1.0  0.5253275873678973  0.5649738180123266  0.2510773705286838  1.0000
  N   N4        1.0  0.474704904960504  0.4350585136593709  0.7489174714047879  1.0000
  N   N5        1.0  0.6829986194131978  0.7285023467488189  0.6128309007310622  1.0000
  N   N6        1.0  0.3170292449711383  0.2714837652148675  0.38716924098383754  1.0000
  N   N7        1.0  0.37575705198759835  0.8925272243100582  0.6057828877372559  1.0000
  N   N8        1.0  0.6242278207941894  0.1074137240762596  0.3942263083395617  1.0000
  O   O1        1.0  0.05837331671812515  0.724240996635807  0.000183133817984096  1.0000
  O   O2        1.0  0.9416003094304203  0.2758173438999806  0.99980546010017  1.0000
  O   O3        1.0  0.935915260289697  0.6473538885599482  0.8334223176175473  1.0000
  O   O4        1.0  0.06409039710637643  0.35269259400624975  0.16656579471387542  1.0000
  O   O5        1.0  0.46184655461623697  0.30131108191226735  0.035970051065625314  1.0000
  O   O6        1.0  0.5381271758183389  0.6987521345757346  0.9640183688064997  1.0000
  O   O7        1.0  0.43641924564852985  0.17326180445888895  0.8758479778646378  1.0000
  O   O8        1.0  0.5635213669248884  0.8268181741189553  0.12413196743193577  1.0000
