data_image0
_chemical_formula_structural       Cd4H32C64N40O4
_chemical_formula_sum              "Cd4 H32 C64 N40 O4"
_cell_length_a       8.030917662658762
_cell_length_b       14.814063194
_cell_length_c       15.45
_cell_angle_alpha    90.0
_cell_angle_beta     97.0742817375082
_cell_angle_gamma    90.0

_space_group_name_H-M_alt    "P 1"
_space_group_IT_number       1

loop_
  _space_group_symop_operation_xyz
  'x, y, z'

loop_
  _atom_site_type_symbol
  _atom_site_label
  _atom_site_symmetry_multiplicity
  _atom_site_fract_x
  _atom_site_fract_y
  _atom_site_fract_z
  _atom_site_occupancy
  Cd  Cd1       1.0  0.4999986921848673  0.500003267368271  1.0813267082031454e-06  1.0000
  Cd  Cd2       1.0  3.7642189382999994e-06  0.9999977592913183  0.4999989464740012  1.0000
  Cd  Cd3       1.0  0.9999898559318579  6.7503424717e-06  0.9999971499643083  1.0000
  Cd  Cd4       1.0  0.500001201664162  0.4999965170257923  0.49999800572900455  1.0000
  H   H1        1.0  0.6437077880974371  0.596099117734056  0.17747722006890143  1.0000
  H   H2        1.0  0.8562882884571579  0.0960945002972977  0.32252149316688167  1.0000
  H   H3        1.0  0.35628583205335207  0.4039026917627453  0.8225201708677903  1.0000
  H   H4        1.0  0.1437065864332823  0.9038978587200432  0.6774759780939377  1.0000
  H   H5        1.0  0.8923106089635124  0.6815733042160517  0.24932266418505125  1.0000
  H   H6        1.0  0.6076842128514386  0.1815707118820313  0.2506804994709384  1.0000
  H   H7        1.0  0.1076867754062221  0.3184237800410159  0.7506807929667405  1.0000
  H   H8        1.0  0.3923119167786453  0.8184277224435306  0.7493235246059201  1.0000
  H   H9        1.0  0.08124313735991247  0.684955900830083  0.9988475088973916  1.0000
  H   H10       1.0  0.4187681022214135  0.1849573587015456  0.5011608481625061  1.0000
  H   H11       1.0  0.9187655396666372  0.3150465837009692  0.0011612019158918037  1.0000
  H   H12       1.0  0.5812455937637182  0.815041750658267  0.4988481839472882  1.0000
  H   H13       1.0  0.8239448645938336  0.6019125126731952  0.9376852823298236  1.0000
  H   H14       1.0  0.6760650140968778  0.1019099203391747  0.5623175507173175  1.0000
  H   H15       1.0  0.1760650671723596  0.3980926719948457  0.062315741817293706  1.0000
  H   H16       1.0  0.3239474271486102  0.8980844637809113  0.43768492857643093  1.0000
  H   H17       1.0  0.8776602688530202  0.9755338431290852  0.19428900678774852  1.0000
  H   H18       1.0  0.6223433361394584  0.4755285506580762  0.3057037159008901  1.0000
  H   H19       1.0  0.1223383702563581  0.024471341538955506  0.8057048219503075  1.0000
  H   H20       1.0  0.377666595626735  0.5244685335989914  0.6942888940067462  1.0000
  H   H21       1.0  0.6359258928109313  0.9095958228028636  0.2607285643909379  1.0000
  H   H22       1.0  0.8640814764004858  0.4095912053660982  0.23926763551603614  1.0000
  H   H23       1.0  0.36408027473632376  0.09040733676243921  0.739268982537837  1.0000
  H   H24       1.0  0.13592971010535845  0.5904045288224822  0.7607276437124925  1.0000
  H   H25       1.0  0.4981354038100747  0.7687965044332188  0.016923871194222808  1.0000
  H   H26       1.0  0.0018645431144363996  0.2687945871334421  0.4830734069614594  1.0000
  H   H27       1.0  0.5018632352993038  0.23120463002933894  0.9830744882881677  1.0000
  H   H28       1.0  0.998132841255291  0.7312004720208805  0.5169229304492262  1.0000
  H   H29       1.0  0.7432651053351194  0.8420356951799803  0.9603968163121268  1.0000
  H   H30       1.0  0.7567397543970031  0.3420378280856937  0.5395985756974043  1.0000
  H   H31       1.0  0.2567360432535537  0.1579627391455816  0.03959911482176181  1.0000
  H   H32       1.0  0.24326264893131364  0.6579626313426132  0.4603954940130351  1.0000
  C   C1        1.0  0.7444947501885153  0.6172870926933598  0.14069042068883422  1.0000
  C   C2        1.0  0.7555025811057305  0.11728517539359022  0.35931031461864654  1.0000
  C   C3        1.0  0.25550263418121927  0.3827153918376922  0.8593098002170054  1.0000
  C   C4        1.0  0.24449605800364785  0.8827105587949902  0.6406899866113209  1.0000
  C   C5        1.0  0.882301550804776  0.664696772995285  0.18030586683707386  1.0000
  C   C6        1.0  0.6176982899687644  0.16469418066126457  0.3196982653646145  1.0000
  C   C7        1.0  0.1176970883046025  0.3353030113987785  0.8196983178880402  1.0000
  C   C8        1.0  0.3823041133595523  0.8353022285615594  0.6803061603328757  1.0000
  C   C9        1.0  0.0074882862092664  0.6900389087134613  0.1294450701880265  1.0000
  C   C10       1.0  0.4925141701945392  0.1900376664479353  0.3705594883570172  1.0000
  C   C11       1.0  0.9925141171190501  0.3099615507148457  0.8705600027586585  1.0000
  C   C12       1.0  0.5074894878734284  0.8099587427748887  0.6294463121629834  1.0000
  C   C13       1.0  0.9870058100716788  0.6673597831015172  0.0406598070217612  1.0000
  C   C14       1.0  0.5130015591397379  0.1673585408359912  0.4593461016230762  1.0000
  C   C15       1.0  0.0129978479962816  0.3326433764637855  0.9593459934982393  1.0000
  C   C16       1.0  0.4870083726264625  0.8326378683868327  0.540660747766758  1.0000
  C   C17       1.0  0.8443180722312178  0.6201836646492183  0.006535783511246518  1.0000
  C   C18       1.0  0.6556880422405555  0.1201817473494415  0.4934668085635111  1.0000
  C   C19       1.0  0.15568809531603725  0.37982084498457885  0.9934656469126822  1.0000
  C   C20       1.0  0.3443206347859942  0.8798139868391319  0.5065360770070484  1.0000
  C   C21       1.0  0.1563782021215161  0.7368032562748114  0.16915772162313664  1.0000
  C   C22       1.0  0.34362676376157697  0.2368013389750345  0.330846350320968  1.0000
  C   C23       1.0  0.8436254559464442  0.2631972031535028  0.8308474316476763  1.0000
  C   C24       1.0  0.6563806585253216  0.7631950702477894  0.6691583966730408  1.0000
  C   C25       1.0  0.3983522334360572  0.7987403486163346  0.1761982308474614  1.0000
  C   C26       1.0  0.10165022296774848  0.2987357311795762  0.3238017969532408  1.0000
  C   C27       1.0  0.6016489151526156  0.2012628109489611  0.8238022310307545  1.0000
  C   C28       1.0  0.8983559445795064  0.7012586529405098  0.6761989862214932  1.0000
  C   C29       1.0  0.7900631299241139  0.9293513750890483  0.15734153262331324  1.0000
  C   C30       1.0  0.7099367108494261  0.42934675765229  0.3426522435913171  1.0000
  C   C31       1.0  0.2099329997059769  0.07065313454474162  0.8426527827156747  1.0000
  C   C32       1.0  0.2900707114374796  0.5706496515705339  0.6573415001664387  1.0000
  C   C33       1.0  0.6562890625311439  0.8924884298694593  0.19434347152302683  1.0000
  C   C34       1.0  0.8437157972009783  0.3924838124326939  0.3056512732373093  1.0000
  C   C35       1.0  0.34371083131788527  0.107515404730087  0.8056517320375394  1.0000
  C   C36       1.0  0.1562928798255712  0.6075119217558793  0.6943438453429637  1.0000
  C   C37       1.0  0.5461492711163558  0.8347844772937592  0.14316842805781962  1.0000
  C   C38       1.0  0.9538493149175338  0.3347798598569938  0.35682656233107224  1.0000
  C   C39       1.0  0.4538481132533789  0.1652193573057872  0.856827909352873  1.0000
  C   C40       1.0  0.0461543431504268  0.6652151992973359  0.6431701767002593  1.0000
  C   C41       1.0  0.5783057387723787  0.8147386602811582  0.05806710425677862  1.0000
  C   C42       1.0  0.9216953567408053  0.3147347178786433  0.44192998852793863  1.0000
  C   C43       1.0  0.4216916455973489  0.18526382424989415  0.9419305276522965  1.0000
  C   C44       1.0  0.07830579184786757  0.6852603412756864  0.5580665898551375  1.0000
  C   C45       1.0  0.7148051006771678  0.8549727265325728  0.026560017712320402  1.0000
  C   C46       1.0  0.7851947400963721  0.3549714842670468  0.47343505300069927  1.0000
  C   C47       1.0  0.2851922836925667  0.1450290829642285  0.9734363196983723  1.0000
  C   C48       1.0  0.2148076632319516  0.6450262750242715  0.5265596639589347  1.0000
  C   C49       1.0  0.2887632727260083  0.5301023694282989  0.18009275388151022  1.0000
  C   C50       1.0  0.21123416471921524  0.0300970769572899  0.3199088943702577  1.0000
  C   C51       1.0  0.7112290926851443  0.4699014651712474  0.8199052039802482  1.0000
  C   C52       1.0  0.7887732575676907  0.969897307162789  0.6800887328826448  1.0000
  C   C53       1.0  0.24564916373862636  0.49762174654322433  0.32086024461428053  1.0000
  C   C54       1.0  0.2543495284462409  0.9976351394252063  0.17913824771565606  1.0000
  C   C55       1.0  0.7543532395896975  0.502369937439866  0.6791357668437287  1.0000
  C   C56       1.0  0.7456541296217196  0.0023774706195567  0.8208565495680988  1.0000
  C   C57       1.0  0.6856625176516147  0.3094627004059731  0.10526981404908753  1.0000
  C   C58       1.0  0.814318502027227  0.8094592174317654  0.3947350550382539  1.0000
  C   C59       1.0  0.3143223193216542  0.6905458594333069  0.8947393123533305  1.0000
  C   C60       1.0  0.18567511812356935  0.1905412419965415  0.6052688083903419  1.0000
  C   C61       1.0  0.8435250767747389  0.1783170468092692  0.10477045555563083  1.0000
  C   C62       1.0  0.6564459049869313  0.6783149139035629  0.39523312368950064  1.0000
  C   C63       1.0  0.15643968436418723  0.8216881378587717  0.8952360911623601  1.0000
  C   C64       1.0  0.3435401867259813  0.3216848704905004  0.6047702577943357  1.0000
  N   N1        1.0  0.7254201980850823  0.594747024136396  0.05560719737457731  1.0000
  N   N2        1.0  0.7745821521677525  0.0947437567681249  0.44439450647860224  1.0000
  N   N3        1.0  0.2745771862846524  0.4052574854974011  0.9443923762820676  1.0000
  N   N4        1.0  0.22542276063985864  0.905250627351954  0.5556068436211917  1.0000
  N   N5        1.0  0.8179271332500591  0.9122406069844118  0.07481072742419312  1.0000
  N   N6        1.0  0.682075217002776  0.4122373396161408  0.4251832094386999  1.0000
  N   N7        1.0  0.18207025111967565  0.0877632276151346  0.9251830209897349  1.0000
  N   N8        1.0  0.3179309505444863  0.5877604196751776  0.5748104539949354  1.0000
  N   N9        1.0  0.19690378321853064  0.7621615928149269  0.2506271112113297  1.0000
  N   N10       1.0  0.3031049468835079  0.2621583254466557  0.24937655445597787  1.0000
  N   N11       1.0  0.8031036390683679  0.23784021668188163  0.7493782830318738  1.0000
  N   N12       1.0  0.6969049848826927  0.7378347086049288  0.750627058687904  1.0000
  N   N13       1.0  0.3537976833346902  0.8019305604698346  0.2552430887694683  1.0000
  N   N14       1.0  0.14620853728805364  0.301924592964582  0.24475718000362431  1.0000
  N   N15       1.0  0.6462047199936265  0.1980732741297118  0.7447581006820699  1.0000
  N   N16       1.0  0.8538026492177906  0.6980670910185154  0.7552432772184332  1.0000
  N   N17       1.0  0.3598982274951226  0.539798561358829  0.11826145639439292  1.0000
  N   N18       1.0  0.1400967004707994  0.03978314337410891  0.38173938395992485  1.0000
  N   N19       1.0  0.6400878642177898  0.4602133736516834  0.8817380415942894  1.0000
  N   N20       1.0  0.8599094670764558  0.960203140335004  0.6182562212212802  1.0000
  N   N21       1.0  0.19727267667455095  0.5259293077104985  0.24292580741106923  1.0000
  N   N22       1.0  0.3027235060310218  0.0259348157874513  0.2570744660181887  1.0000
  N   N23       1.0  0.8027196887365946  0.4740637263410862  0.757074739447447  1.0000
  N   N24       1.0  0.6972864257351716  0.9740676687436007  0.7429207328862122  1.0000
  N   N25       1.0  0.2741079136569269  0.4712447833236908  0.39341346774433117  1.0000
  N   N26       1.0  0.2258907785279405  0.9712669516508896  0.10658373008723031  1.0000
  N   N27       1.0  0.7259020181092666  0.5287401503169278  0.6065856146552165  1.0000
  N   N28       1.0  0.7741040963624997  0.0287530837705958  0.8934059741832954  1.0000
  N   N29       1.0  0.6330776338137694  0.3820315821450109  0.0858446104976878  1.0000
  N   N30       1.0  0.8669121690425996  0.8820240489653204  0.41415823186178363  1.0000
  N   N31       1.0  0.3669247695145472  0.6179810278997522  0.9141617569473797  1.0000
  N   N32       1.0  0.13309148902536794  0.1179743853602488  0.5858404489171178  1.0000
  N   N33       1.0  0.7329210316908146  0.2301738527334649  0.13329967274562904  1.0000
  N   N34       1.0  0.7670512048105067  0.7301710447935079  0.3667065758203948  1.0000
  N   N35       1.0  0.267048748406701  0.7698340320715644  0.8667110787640198  1.0000
  N   N36       1.0  0.23293488690241296  0.2698300896690498  0.6333000419093935  1.0000
  N   N37       1.0  0.9423922872069426  0.1253666854041882  0.08541351106897824  1.0000
  N   N38       1.0  0.5575761850754404  0.6253638774642312  0.4145873185311332  1.0000
  N   N39       1.0  0.057564945494114284  0.8746391742980961  0.9145873757107168  1.0000
  N   N40       1.0  0.4424111613771231  0.3746318567243421  0.5854103180341144  1.0000
  O   O1        1.0  0.2793150831891751  0.7575247825691136  0.1186154212892419  1.0000
  O   O2        1.0  0.2206836089956923  0.2575221902350933  0.38138566003746643  1.0000
  O   O3        1.0  0.7206823011805594  0.24247567685919347  0.8813854468657923  1.0000
  O   O4        1.0  0.7793187943326314  0.7424748940219743  0.6186155294140719  1.0000
