data_image0
_chemical_formula_structural       Cd4H40C28N48
_chemical_formula_sum              "Cd4 H40 C28 N48"
_cell_length_a       11.015512553146236
_cell_length_b       11.036940342677468
_cell_length_c       12.76478038979552
_cell_angle_alpha    105.35362172652927
_cell_angle_beta     90.00017494036882
_cell_angle_gamma    119.93577997094566

_space_group_name_H-M_alt    "P 1"
_space_group_IT_number       1

loop_
  _space_group_symop_operation_xyz
  'x, y, z'

loop_
  _atom_site_type_symbol
  _atom_site_label
  _atom_site_symmetry_multiplicity
  _atom_site_fract_x
  _atom_site_fract_y
  _atom_site_fract_z
  _atom_site_occupancy
  Cd  Cd1       1.0  0.8440055436476399  0.9999993549400441  0.749998206981857  1.0000
  Cd  Cd2       1.0  0.1559938755133031  0.999999097398806  0.2500003633809698  1.0000
  Cd  Cd3       1.0  0.999998844810925  0.9999995440091283  0.5000004072403997  1.0000
  Cd  Cd4       1.0  0.9999991616653718  0.9999984077755071  0.9999985939358708  1.0000
  H   H1        1.0  0.628281415597698  0.4496371355593567  0.9868230712294592  1.0000
  H   H2        1.0  0.178644385464736  0.550364580992664  0.5131776056181678  1.0000
  H   H3        1.0  0.3717179359436146  0.5503634675747121  0.013174457962676913  1.0000
  H   H4        1.0  0.8213547769492989  0.44963382826907156  0.4868241222800336  1.0000
  H   H5        1.0  0.496555754101145  0.2863372110672842  0.887805787215889  1.0000
  H   H6        1.0  0.21022031147451506  0.7136661997285996  0.6121951453658525  1.0000
  H   H7        1.0  0.50344395621903  0.713662294013247  0.11219149085751215  1.0000
  H   H8        1.0  0.7897799488106189  0.2863344052578398  0.3878063012791486  1.0000
  H   H9        1.0  0.7313581631932492  0.5644626114159763  0.840832678408411  1.0000
  H   H10       1.0  0.16689730124135596  0.435539659500968  0.6591682453490081  1.0000
  H   H11       1.0  0.26864481939283286  0.43553799132492094  0.15916406729296992  1.0000
  H   H12       1.0  0.8331047750340729  0.5644609462177783  0.34083476827708387  1.0000
  H   H13       1.0  0.5494489946215211  0.5068892623246767  0.836287871949395  1.0000
  H   H14       1.0  0.04256253511995573  0.49311593046024876  0.6637148840211539  1.0000
  H   H15       1.0  0.4505512647277783  0.49311134080398494  0.16370965724269135  1.0000
  H   H16       1.0  0.9574377255394991  0.5068846752693048  0.3362881296050162  1.0000
  H   H17       1.0  0.6189920139616945  0.453671241617613  0.6493285159747728  1.0000
  H   H18       1.0  0.16532664489481874  0.5463306095149676  0.8506721619147015  1.0000
  H   H19       1.0  0.38100514146311326  0.546324969323919  0.3506680087425877  1.0000
  H   H20       1.0  0.8346750724145835  0.4536710938857596  0.14933031933953345  1.0000
  H   H21       1.0  0.6705532771255706  0.3389835963329801  0.6827431275009914  1.0000
  H   H22       1.0  0.3315750337724026  0.6610191546507379  0.8172588260787421  1.0000
  H   H23       1.0  0.32944442714119765  0.6610137122851398  0.31725286484447685  1.0000
  H   H24       1.0  0.6684272329404592  0.3389836475412267  0.1827454732753537  1.0000
  H   H25       1.0  0.9996383009530305  0.3531537192834335  0.88641930354207  1.0000
  H   H26       1.0  0.6464839046048497  0.646844098831572  0.6135800187687366  1.0000
  H   H27       1.0  0.00036176889465617726  0.6468446892297803  0.11358085737492021  1.0000
  H   H28       1.0  0.3535167144591327  0.3531554081013367  0.38642117675752985  1.0000
  H   H29       1.0  0.5551970338643102  0.08585339951819289  0.8370317583376022  1.0000
  H   H30       1.0  0.46934541416936065  0.9141481184962995  0.6629668091281218  1.0000
  H   H31       1.0  0.4448026768301929  0.9141461063054521  0.16296708671695379  1.0000
  H   H32       1.0  0.5306557537365819  0.0858524861131826  0.3370338540262594  1.0000
  H   H33       1.0  0.2144783360018749  0.9292719562093623  0.6316059721669518  1.0000
  H   H34       1.0  0.2852060173609772  0.07072939287997569  0.8683934331118692  1.0000
  H   H35       1.0  0.7855199182298519  0.07072645231466622  0.3683941887501234  1.0000
  H   H36       1.0  0.7147924267466904  0.9292712110026071  0.13160566306146385  1.0000
  H   H37       1.0  0.3452477673634391  0.34547887121249937  0.599748024824642  1.0000
  H   H38       1.0  0.99977087070679  0.6545207393753074  0.9002513113625241  1.0000
  H   H39       1.0  0.6547504864939526  0.654519536568415  0.4002505691112717  1.0000
  H   H40       1.0  0.00022647571694992658  0.34547766915412137  0.09974884955459372  1.0000
  C   C1        1.0  0.6051089205028434  0.3797353481423826  0.9014380914684281  1.0000
  C   C2        1.0  0.2253765035901765  0.6202684242617522  0.5985630865308806  1.0000
  C   C3        1.0  0.39489043122564044  0.6202652553632434  0.09856022121428512  1.0000
  C   C4        1.0  0.7746246646901014  0.3797321810908442  0.4014391436046624  1.0000
  C   C5        1.0  0.6236789950904293  0.46728395453682464  0.8218664608296821  1.0000
  C   C6        1.0  0.15639802627683255  0.5327190202692266  0.6781352518645677  1.0000
  C   C7        1.0  0.3763221722540209  0.5327166489579936  0.178131851852946  1.0000
  C   C8        1.0  0.8436031420034453  0.4672815850833628  0.3218669782709754  1.0000
  C   C9        1.0  0.5994094287306027  0.3820105015008223  0.7004468917358082  1.0000
  C   C10       1.0  0.21740330926416354  0.6179911565657079  0.7995545681467533  1.0000
  C   C11       1.0  0.4005882759104935  0.6179868078603974  0.2995506675908217  1.0000
  C   C12       1.0  0.7825989572615344  0.3820116452547068  0.2004489477167581  1.0000
  C   C13       1.0  0.8880794779974368  0.3175864483121629  0.8809079465321831  1.0000
  C   C14       1.0  0.5704937784899543  0.6824135843351726  0.6190916355405349  1.0000
  C   C15       1.0  0.11192023288423066  0.6824130578830392  0.11909168201296441  1.0000
  C   C16       1.0  0.42950738960315965  0.3175870206458669  0.3809098111044236  1.0000
  C   C17       1.0  0.6634287756152304  0.1785178976588426  0.8548261655183467  1.0000
  C   C18       1.0  0.48491326289216374  0.8214828837469027  0.645173179732666  1.0000
  C   C19       1.0  0.3365700272712928  0.8214816081702097  0.1451726795362589  1.0000
  C   C20       1.0  0.5150879053881141  0.1785177216056937  0.3548290504028841  1.0000
  C   C21       1.0  0.2793220658025675  0.043192062779503694  0.634297095981715  1.0000
  C   C22       1.0  0.23613091241583825  0.9568091928105887  0.8657030920609969  1.0000
  C   C23       1.0  0.7206774546416668  0.9568052469424729  0.3657012468354211  1.0000
  C   C24       1.0  0.7638704457403804  0.0431936079005624  0.1342980733308039  1.0000
  C   C25       1.0  0.3415801719803753  0.2520966631588664  0.6163910776078154  1.0000
  C   C26       1.0  0.08948550929233791  0.7479028986869167  0.883608612086448  1.0000
  C   C27       1.0  0.6584166248527409  0.7479006462077605  0.3836064817188642  1.0000
  C   C28       1.0  0.9105129351896578  0.2520977059387803  0.11639205106805413  1.0000
  N   N1        1.0  0.6980250739339483  0.3196513660287508  0.8894803466373702  1.0000
  N   N2        1.0  0.3783744484907461  0.6803487456001706  0.6105187508103854  1.0000
  N   N3        1.0  0.3019746367605549  0.6803481397948943  0.11051849841718563  1.0000
  N   N4        1.0  0.6216261703860653  0.3196507609611814  0.38948166122529676  1.0000
  N   N5        1.0  0.8418383373540478  0.4104818674981203  0.9067731174084344  1.0000
  N   N6        1.0  0.4313567072921246  0.5895170722333563  0.593225187479419  1.0000
  N   N7        1.0  0.15816082449849492  0.5895165406489441  0.09322626001801383  1.0000
  N   N8        1.0  0.5686448192055168  0.4104824339510316  0.40677444106564314  1.0000
  N   N9        1.0  0.7822605635094321  0.1733966498023278  0.8483357946374639  1.0000
  N   N10       1.0  0.6088656422152923  0.8266026866781857  0.6516643229154226  1.0000
  N   N11       1.0  0.21773859853027497  0.8266017587162936  0.15166436627957586  1.0000
  N   N12       1.0  0.3911364336858014  0.17339791829744663  0.3483371237295004  1.0000
  N   N13       1.0  0.4548449323507313  0.25696584824959257  0.6614961428640741  1.0000
  N   N14       1.0  0.19788332866879454  0.7430367873567293  0.8385068915614937  1.0000
  N   N15       1.0  0.5451533213194963  0.7430325591597722  0.33850166758125516  1.0000
  N   N16       1.0  0.8021180298617525  0.2569660140975358  0.16149584081147592  1.0000
  N   N17       1.0  0.41679623302447066  0.1242057931889491  0.6743284015964974  1.0000
  N   N18       1.0  0.2925934121091842  0.8757976027913797  0.8256740978459617  1.0000
  N   N19       1.0  0.5832025694877174  0.8757937118969892  0.32566887647693943  1.0000
  N   N20       1.0  0.7074073972050668  0.12420410024319038  0.1743275999177314  1.0000
  N   N21       1.0  0.2284014261505618  0.11706794447540146  0.5974755079502501  1.0000
  N   N22       1.0  0.11133423297112456  0.8829321610589961  0.9025241859529629  1.0000
  N   N23       1.0  0.7715962788648627  0.8829293656289326  0.40252361835755585  1.0000
  N   N24       1.0  0.8886647601656676  0.11706954087171788  0.0974751613390694  1.0000
  N   N25       1.0  0.9189175290515124  0.8599174246788408  0.6235188239390155  1.0000
  N   N26       1.0  0.05900116811272941  0.14008327395060863  0.8764818450284011  1.0000
  N   N27       1.0  0.08108163261385931  0.1400809830966665  0.37647976999685545  1.0000
  N   N28       1.0  0.9409999997932132  0.8599173306588739  0.12351881812598012  1.0000
  N   N29       1.0  0.92598972669289  0.7577394163656306  0.6327934089264035  1.0000
  N   N30       1.0  0.16825149542933102  0.24226168784596785  0.8672075057990084  1.0000
  N   N31       1.0  0.07400852753883672  0.24225899215839058  0.36720675199067193  1.0000
  N   N32       1.0  0.8317484058897762  0.7577400148224598  0.13279340847415005  1.0000
  N   N33       1.0  0.9314422063075939  0.6578505204663898  0.6418864349899209  1.0000
  N   N34       1.0  0.2735933485593591  0.3421499234422285  0.8581129076483692  1.0000
  N   N35       1.0  0.06855604773696201  0.3421478876860816  0.3581129424365771  1.0000
  N   N36       1.0  0.7264069113514324  0.6578506808010971  0.14188697201547032  1.0000
  N   N37       1.0  0.9348682183335908  0.14812445548209746  0.6326491082298844  1.0000
  N   N38       1.0  0.7867453149636392  0.8518762073864182  0.8673509639580602  1.0000
  N   N39       1.0  0.0651300355238007  0.851873952298817  0.3673494857060291  1.0000
  N   N40       1.0  0.21325585294230365  0.14812439722306442  0.132649699196314  1.0000
  N   N41       1.0  0.8591961625035367  0.18949195214925402  0.6077102024362305  1.0000
  N   N42       1.0  0.669702972764199  0.810505466116112  0.8922896576486751  1.0000
  N   N43       1.0  0.14080299934900609  0.8105064559978105  0.3922891749902249  1.0000
  N   N44       1.0  0.33029709689632364  0.18949294202554506  0.10770971977773773  1.0000
  N   N45       1.0  0.7877148213242364  0.23190030366995984  0.5851707563946675  1.0000
  N   N46       1.0  0.555814821590417  0.768097120050605  0.9148288611142661  1.0000
  N   N47       1.0  0.21228579736541056  0.768099202519835  0.41482887215043723  1.0000
  N   N48       1.0  0.4441857972864014  0.23190238651073966  0.08517155092142302  1.0000
