data_image0
_chemical_formula_structural       Zn2H40C68N10O8
_chemical_formula_sum              "Zn2 H40 C68 N10 O8"
_cell_length_a       11.007203953551151
_cell_length_b       18.2119583584641
_cell_length_c       19.622468132335786
_cell_angle_alpha    90.00030591044143
_cell_angle_beta     89.88167771968601
_cell_angle_gamma    90.00054050128679

_space_group_name_H-M_alt    "P 1"
_space_group_IT_number       1

loop_
  _space_group_symop_operation_xyz
  'x, y, z'

loop_
  _atom_site_type_symbol
  _atom_site_label
  _atom_site_symmetry_multiplicity
  _atom_site_fract_x
  _atom_site_fract_y
  _atom_site_fract_z
  _atom_site_occupancy
  Zn  Zn1       1.0  0.4999974100689855  0.42393605745731844  0.5000017788570047  1.0000
  Zn  Zn2       1.0  0.49999766264983236  0.5715797071492545  0.5000004698881568  1.0000
  H   H1        1.0  0.0777618160365918  0.7508382060701566  0.5467111682200924  1.0000
  H   H2        1.0  0.9173058393280585  0.25185744378450187  0.5437337598586041  1.0000
  H   H3        1.0  0.9222499567847108  0.7508372926875994  0.453289994827152  1.0000
  H   H4        1.0  0.08267628101076241  0.2518556368603129  0.456273717942679  1.0000
  H   H5        1.0  0.4559074108965858  0.6103628944675351  0.7149901743929377  1.0000
  H   H6        1.0  0.4499456689763619  0.3820019273948958  0.2815360588952132  1.0000
  H   H7        1.0  0.5440821654774339  0.61035929325368  0.2850131942735175  1.0000
  H   H8        1.0  0.550072112798155  0.3820104526797011  0.7184690947747612  1.0000
  H   H9        1.0  0.4557622104442984  0.6133005262046326  0.8426027538412769  1.0000
  H   H10       1.0  0.44572471097701083  0.3841889381529953  0.154145926255346  1.0000
  H   H11       1.0  0.5442255952515894  0.6132969220352892  0.15740115564600643  1.0000
  H   H12       1.0  0.5542985560187362  0.38420023648232876  0.8458582231220008  1.0000
  H   H13       1.0  0.4492028945208305  0.3067618063070583  0.6014688251050728  1.0000
  H   H14       1.0  0.3296719961314452  0.6888818223024629  0.45531120557828336  1.0000
  H   H15       1.0  0.5507909893961127  0.3067642862768594  0.3985274599137796  1.0000
  H   H16       1.0  0.670329717082879  0.6888761956355935  0.5446903764362148  1.0000
  H   H17       1.0  0.3191454713376061  0.06533270726318821  0.5430448871396436  1.0000
  H   H18       1.0  0.6813412061320747  0.930463643610111  0.4575010376502959  1.0000
  H   H19       1.0  0.6808809544382229  0.06533098109910901  0.4569515194607305  1.0000
  H   H20       1.0  0.3186806607282974  0.9304659162379496  0.5425013793020028  1.0000
  H   H21       1.0  0.11174703879072469  0.2921539643014556  0.3357179553563938  1.0000
  H   H22       1.0  0.08242208506582932  0.38644687093491825  0.3201373837489285  1.0000
  H   H23       1.0  0.2243581669904771  0.34797639456698454  0.296185784695389  1.0000
  H   H24       1.0  0.24949075794415881  0.4211915476695225  0.4007967752303969  1.0000
  H   H25       1.0  0.27865996253908065  0.32877652764319987  0.4189526553224781  1.0000
  H   H26       1.0  0.9229556167450496  0.588620800664387  0.3270254181800425  1.0000
  H   H27       1.0  0.8212956889801858  0.5236736274697762  0.3630803051785918  1.0000
  H   H28       1.0  0.7676948709303417  0.587643531567352  0.3023141762981112  1.0000
  H   H29       1.0  0.7068105882905656  0.6233050947501084  0.4211279812293256  1.0000
  H   H30       1.0  0.7969437898529178  0.6913254908107549  0.3817863552600329  1.0000
  H   H31       1.0  0.7756490876872918  0.3479905849977669  0.7038277089919589  1.0000
  H   H32       1.0  0.8882666056208848  0.29217208353567514  0.6642949786870177  1.0000
  H   H33       1.0  0.9175748708023689  0.38646845058848106  0.6798652912216171  1.0000
  H   H34       1.0  0.7504903920272881  0.42119021861065425  0.5992093201109157  1.0000
  H   H35       1.0  0.7213388139035147  0.32876954261129754  0.5810632068825895  1.0000
  H   H36       1.0  0.07704270265460882  0.5886206155777458  0.6729782345162363  1.0000
  H   H37       1.0  0.1787007001722429  0.5236729167549186  0.6369232174064976  1.0000
  H   H38       1.0  0.23230252478225571  0.5876420269165407  0.697690487096132  1.0000
  H   H39       1.0  0.29319009399375057  0.6233033810519187  0.5788770307147502  1.0000
  H   H40       1.0  0.2030606881301154  0.691324916973116  0.6182193245262794  1.0000
  C   C1        1.0  0.5013258520940979  0.49464619236257334  0.3666426661556059  1.0000
  C   C2        1.0  0.49867643986853966  0.4946489342762491  0.6333605622780425  1.0000
  C   C3        1.0  0.5017119475572756  0.4959733484885476  0.7096270902220995  1.0000
  C   C4        1.0  0.4982903654052748  0.49596619447578416  0.2903771704973579  1.0000
  C   C5        1.0  0.6113234718319235  0.4996454247870332  0.9649643875986342  1.0000
  C   C6        1.0  0.3886725393935323  0.4996348992755273  0.035039917090451  1.0000
  C   C7        1.0  0.6087420855287392  0.5002625807005855  0.0372029986695281  1.0000
  C   C8        1.0  0.39125030156593255  0.5002586862287333  0.962801826192255  1.0000
  C   C9        1.0  0.4973961431327255  0.4997131773179292  0.0726645851587762  1.0000
  C   C10       1.0  0.502598960697199  0.4997197936977288  0.9273392117713044  1.0000
  C   C11       1.0  0.47073084241847607  0.273650655158285  0.5567314221925983  1.0000
  C   C12       1.0  0.404899633810338  0.7218779371990609  0.4746473774521078  1.0000
  C   C13       1.0  0.5292725140123978  0.27365191682419987  0.44326452392688503  1.0000
  C   C14       1.0  0.5951053240545576  0.721874081853038  0.5253545268219213  1.0000
  C   C15       1.0  0.46966499820912583  0.19668254296453822  0.5589532647351092  1.0000
  C   C16       1.0  0.40168298088977383  0.7988279173607822  0.4732685713198848  1.0000
  C   C17       1.0  0.5303489580191325  0.1966843596985868  0.441043436399525  1.0000
  C   C18       1.0  0.5983286384591864  0.7988246293141971  0.5267330663394958  1.0000
  C   C19       1.0  0.5000107445931833  0.1558006980784086  0.4999973794573194  1.0000
  C   C20       1.0  0.5000088575997738  0.8398067645886655  0.5000012724945151  1.0000
  C   C21       1.0  0.398760584179051  0.0359846325633413  0.5243638730612118  1.0000
  C   C22       1.0  0.6018169830592157  0.9597353950916485  0.47639190392967373  1.0000
  C   C23       1.0  0.6012626542759989  0.03598520315820511  0.47563173767526473  1.0000
  C   C24       1.0  0.3982035268580617  0.959737566787709  0.5236082559640352  1.0000
  C   C25       1.0  0.5000113105476203  0.9206975711217495  0.49999963087630317  1.0000
  C   C26       1.0  0.500011925522699  0.07493295332583469  0.49999748789928594  1.0000
  C   C27       1.0  0.26371201630595925  0.5011763976506743  0.4990314885973887  1.0000
  C   C28       1.0  0.7362831105937815  0.5011766327543158  0.5009728323586272  1.0000
  C   C29       1.0  0.10870089951428241  0.36821002865435304  0.45981448860048596  1.0000
  C   C30       1.0  0.8916520399062052  0.6351730939747356  0.4595405246734998  1.0000
  C   C31       1.0  0.8912866854806297  0.3682127868235412  0.5401941328476667  1.0000
  C   C32       1.0  0.108350646013406  0.6351730816179925  0.5404640925458111  1.0000
  C   C33       1.0  0.04987305292839749  0.3038148112426954  0.477205327640675  1.0000
  C   C34       1.0  0.9512196303612369  0.6991010385839261  0.4762423520638563  1.0000
  C   C35       1.0  0.9501089761886805  0.3038135081037225  0.5228016446964077  1.0000
  C   C36       1.0  0.048788603163274005  0.6991006896359195  0.5237593230562965  1.0000
  C   C37       1.0  0.937900372183151  0.43527050589917593  0.5116814755198291  1.0000
  C   C38       1.0  0.0631064893018447  0.5677957952908842  0.5100762692936769  1.0000
  C   C39       1.0  0.06209190157284889  0.43526968192421833  0.4883262743087188  1.0000
  C   C40       1.0  0.9368915028503295  0.567796612914549  0.4899292164055709  1.0000
  C   C41       1.0  0.8722471998491557  0.5018156077537129  0.5013819136333666  1.0000
  C   C42       1.0  0.12774793719202654  0.5018140563632373  0.4986229232407098  1.0000
  C   C43       1.0  0.47632577045369123  0.5612688363013306  0.7444929228643744  1.0000
  C   C44       1.0  0.47007845473505233  0.43230299930324634  0.2537104669216674  1.0000
  C   C45       1.0  0.5236693931863883  0.5612656681097337  0.2555109728771967  1.0000
  C   C46       1.0  0.5299373929462448  0.432310313624683  0.7462951863878118  1.0000
  C   C47       1.0  0.4766465441819179  0.5626898825735651  0.815322059253802  1.0000
  C   C48       1.0  0.46775627574751877  0.4336702252288377  0.1828506592193406  1.0000
  C   C49       1.0  0.5233459161082338  0.5626845141129025  0.1846808345819255  1.0000
  C   C50       1.0  0.5322586848703282  0.4336803001929043  0.8171544990821361  1.0000
  C   C51       1.0  0.5044713179335503  0.49879567978503303  0.8518754686972585  1.0000
  C   C52       1.0  0.4955264969488907  0.49878905507728183  0.1481288254112485  1.0000
  C   C53       1.0  0.20588421804590243  0.3675173507432278  0.405357264765847  1.0000
  C   C54       1.0  0.15295144491498996  0.3471047882262966  0.3354702563267224  1.0000
  C   C55       1.0  0.7987771339558664  0.6352689218208384  0.4028428656068499  1.0000
  C   C56       1.0  0.8296364099253352  0.5807345104034383  0.3456230713125805  1.0000
  C   C57       1.0  0.7941069905304445  0.3675195621690506  0.594653893513069  1.0000
  C   C58       1.0  0.8470512527795507  0.347119929489871  0.6645391573453736  1.0000
  C   C59       1.0  0.20122373647122055  0.6352683370062239  0.5971617547705321  1.0000
  C   C60       1.0  0.1703608767905109  0.5807332040540558  0.6543799950517767  1.0000
  C   C61       1.0  0.7247144690127386  0.4995178062570814  0.9296628730912601  1.0000
  C   C62       1.0  0.27527336426254584  0.49950060196285057  0.0703444979933892  1.0000
  C   C63       1.0  0.7194752930384283  0.5004281696862449  0.0748552845497699  1.0000
  C   C64       1.0  0.2805216387043998  0.5004176093090892  0.9251474978955231  1.0000
  C   C65       1.0  0.44182694524537425  0.16180538144021034  0.6222272947133689  1.0000
  C   C66       1.0  0.2991006089505674  0.8333873375270289  0.44252155154126877  1.0000
  C   C67       1.0  0.5581982726064466  0.16180570614530865  0.3777685382601277  1.0000
  C   C68       1.0  0.7009115541508351  0.8333857273966175  0.5574804271254123  1.0000
  N   N1        1.0  0.4999974253850538  0.31045951861534593  0.49999866981197266  1.0000
  N   N2        1.0  0.5000003723011304  0.6850644823454034  0.5000005179321647  1.0000
  N   N3        1.0  0.817350199609642  0.49947688544498464  0.9005092380671087  1.0000
  N   N4        1.0  0.18264853494454064  0.499453119352964  0.0994981192892581  1.0000
  N   N5        1.0  0.8095834650884939  0.5005536168365907  0.10619406494319608  1.0000
  N   N6        1.0  0.19041528472029512  0.5005408998289697  0.8938041299359583  1.0000
  N   N7        1.0  0.41940791918546694  0.13517281792319122  0.6749160686559819  1.0000
  N   N8        1.0  0.2140713215111489  0.8597417588774975  0.4167733552878516  1.0000
  N   N9        1.0  0.5806168806386225  0.13517436575085642  0.3250845977368044  1.0000
  N   N10       1.0  0.7859439816310285  0.8597400802093419  0.5832283704756946  1.0000
  O   O1        1.0  0.4780880044748557  0.43361809399575457  0.3958596858874657  1.0000
  O   O2        1.0  0.4737101015805436  0.5546220951866164  0.6032218012276118  1.0000
  O   O3        1.0  0.5219087851032286  0.4336198679721478  0.6041444747727099  1.0000
  O   O4        1.0  0.5262922252693444  0.5546189459475669  0.39678100082945633  1.0000
  O   O5        1.0  0.31786904817301587  0.4428939663332089  0.5183653799636545  1.0000
  O   O6        1.0  0.6815684845641455  0.5595408774466223  0.5203951946633225  1.0000
  O   O7        1.0  0.6821251618255673  0.4428922480097056  0.4816388755276861  1.0000
  O   O8        1.0  0.3184266513193208  0.5595404014097908  0.4796056263230851  1.0000
