data_image0
_chemical_formula_structural       Zn2H20C32N12O4
_chemical_formula_sum              "Zn2 H20 C32 N12 O4"
_cell_length_a       7.8633030639720545
_cell_length_b       9.097631415069278
_cell_length_c       11.988128387425792
_cell_angle_alpha    98.0002119959303
_cell_angle_beta     105.47391821843667
_cell_angle_gamma    100.8441797763953

_space_group_name_H-M_alt    "P 1"
_space_group_IT_number       1

loop_
  _space_group_symop_operation_xyz
  'x, y, z'

loop_
  _atom_site_type_symbol
  _atom_site_label
  _atom_site_symmetry_multiplicity
  _atom_site_fract_x
  _atom_site_fract_y
  _atom_site_fract_z
  _atom_site_occupancy
  Zn  Zn1       1.0  0.9393712370738921  0.6536771083304487  0.39803202463403414  1.0000
  Zn  Zn2       1.0  0.06063010756786718  0.34632421358009674  0.6019684907511191  1.0000
  H   H1        1.0  0.06877095144233887  0.9762078340744933  0.3692345209508332  1.0000
  H   H2        1.0  0.9312310246940497  0.023795772349139096  0.6307663424002571  1.0000
  H   H3        1.0  0.3400423059929167  0.12820560859329078  0.3341733468528716  1.0000
  H   H4        1.0  0.6599580309155754  0.8717968461842103  0.6658254420170309  1.0000
  H   H5        1.0  0.6108113949004872  0.009966246841095497  0.33862552266101176  1.0000
  H   H6        1.0  0.3891889406242086  0.990036205308769  0.6613724315329392  1.0000
  H   H7        1.0  0.3057242580479738  0.6054424712234193  0.4049654718634628  1.0000
  H   H8        1.0  0.6942763973754323  0.39456113106589186  0.5950351603413111  1.0000
  H   H9        1.0  0.7966088548997446  0.23871322895076472  0.0039113027797271155  1.0000
  H   H10       1.0  0.20339116902903948  0.7612880888254594  0.9960889814591241  1.0000
  H   H11       1.0  0.6768395234697593  0.3739660220621772  0.8413436669738773  1.0000
  H   H12       1.0  0.32315496096732926  0.6260295746560018  0.1586558885871767  1.0000
  H   H13       1.0  0.5854608640271194  0.6072140311405292  0.7831645036395116  1.0000
  H   H14       1.0  0.41453720907785646  0.3927850006159233  0.2168360361630519  1.0000
  H   H15       1.0  0.5735125838330501  0.8785721578306391  0.8429548799170306  1.0000
  H   H16       1.0  0.42649077074005254  0.12142688783546159  0.1570457497948183  1.0000
  H   H17       1.0  0.6922168993507538  0.008024848982451298  0.05565471504120013  1.0000
  H   H18       1.0  0.30778450301473725  0.9919719080362409  0.9443453355584097  1.0000
  H   H19       1.0  0.809656886400219  0.8677502186855292  0.2091368884750224  1.0000
  H   H20       1.0  0.19034615242556896  0.1322476847240209  0.7908635672538579  1.0000
  C   C1        1.0  0.18519768300271264  0.9279307740246664  0.36764432205810493  1.0000
  C   C2        1.0  0.8148042917498727  0.0720728297713293  0.6323557066170267  1.0000
  C   C3        1.0  0.3386498166275445  0.012465358610803898  0.3487800583346186  1.0000
  C   C4        1.0  0.661352158125041  0.9875382451851988  0.651219970340513  1.0000
  C   C5        1.0  0.4863937658373059  0.9478221930318325  0.3508663032551809  1.0000
  C   C6        1.0  0.5136052489744073  0.05218025498371759  0.6491314197924609  1.0000
  C   C7        1.0  0.47607960653103  0.7993055313421633  0.3721831218222604  1.0000
  C   C8        1.0  0.5239207289936658  0.20069692080770096  0.6278148323716906  1.0000
  C   C9        1.0  0.31703387306493613  0.7213382306063991  0.38849962097392426  1.0000
  C   C10       1.0  0.6829664666111553  0.27866422942636865  0.6115008372478883  1.0000
  C   C11       1.0  0.6298652266689118  0.7220352234509447  0.38067713021473537  1.0000
  C   C12       1.0  0.37013511162338375  0.27796723395418604  0.6193224933311186  1.0000
  C   C13       1.0  0.8925122354404705  0.3588436280032994  0.23870871267768473  1.0000
  C   C14       1.0  0.10748847770666703  0.6411554093941587  0.7612914547415457  1.0000
  C   C15       1.0  0.8348281918274267  0.4355804464346064  0.14096211166471315  1.0000
  C   C16       1.0  0.16517252131971102  0.5644185909628517  0.8590380557545173  1.0000
  C   C17       1.0  0.7844253041897389  0.35628570965177175  0.022205888105162337  1.0000
  C   C18       1.0  0.21556849241278533  0.6437121700728098  0.9777946189514636  1.0000
  C   C19       1.0  0.7198814240340636  0.43115475532092506  0.9338352205892234  1.0000
  C   C20       1.0  0.2801136918976397  0.568843125910341  0.06616468293775307  1.0000
  C   C21       1.0  0.7075583251414412  0.5844069813995317  0.9625771039668152  1.0000
  C   C22       1.0  0.2924377957559371  0.41558976170951195  0.03742285672350929  1.0000
  C   C23       1.0  0.637026369619498  0.666156576660846  0.8756374843719144  1.0000
  C   C24       1.0  0.36297434352763946  0.3338424607366121  0.12436268304730899  1.0000
  C   C25       1.0  0.6299205935517163  0.8157008736936077  0.9091634540392306  1.0000
  C   C26       1.0  0.3700798052319101  0.18429702407494364  0.09083737407299  1.0000
  C   C27       1.0  0.6947560581779583  0.8890943460258355  0.029530501685101705  1.0000
  C   C28       1.0  0.3052400654870126  0.11090240233846768  0.9704711283571401  1.0000
  C   C29       1.0  0.7629962480918094  0.8123592694319937  0.1162644225687259  1.0000
  C   C30       1.0  0.23700414930802075  0.18763862570892084  0.883735570867536  1.0000
  C   C31       1.0  0.7690179652652772  0.6576666884743645  0.08526257700354019  1.0000
  C   C32       1.0  0.23098375284753553  0.34233121080086437  0.9147376475790311  1.0000
  N   N1        1.0  0.17482751403753127  0.7840477886431074  0.3859007097036837  1.0000
  N   N2        1.0  0.825171500774182  0.21595465937244276  0.614097013343958  1.0000
  N   N3        1.0  0.9449005927850251  0.43156727509006737  0.35235430965842335  1.0000
  N   N4        1.0  0.055100434725623836  0.5684329019363047  0.647645197067817  1.0000
  N   N5        1.0  0.9821343231452173  0.3250749790288053  0.41577980893314503  1.0000
  N   N6        1.0  0.017865700783559542  0.6749263387474186  0.584220475305699  1.0000
  N   N7        1.0  0.9528138220395302  0.19272000491859123  0.3433888012515851  1.0000
  N   N8        1.0  0.04718884608281116  0.8072813263815418  0.6566136146317874  1.0000
  N   N9        1.0  0.8966327630704283  0.21078724138050828  0.23164264368331536  1.0000
  N   N10       1.0  0.10336927217348793  0.7892118027789078  0.7683585895581757  1.0000
  N   N11       1.0  0.8301932906075393  0.580775526626283  0.1720573958922813  1.0000
  N   N12       1.0  0.16980710679228384  0.4192223685146317  0.8279425975439807  1.0000
  O   O1        1.0  0.7850050055447962  0.8078240078601338  0.38882107424352336  1.0000
  O   O2        1.0  0.21499470125286982  0.19217616503190973  0.6111782013364007  1.0000
  O   O3        1.0  0.6043454008641048  0.5813495264784265  0.3806796365212932  1.0000
  O   O4        1.0  0.3956549374281833  0.4186529309267044  0.6193199870245678  1.0000
