data_image0
_chemical_formula_structural       Cd2H44C48N8O8
_chemical_formula_sum              "Cd2 H44 C48 N8 O8"
_cell_length_a       10.853638147077685
_cell_length_b       11.229484282376227
_cell_length_c       11.431685325883684
_cell_angle_alpha    87.74402255140105
_cell_angle_beta     62.651418645174616
_cell_angle_gamma    66.78756746212345

_space_group_name_H-M_alt    "P 1"
_space_group_IT_number       1

loop_
  _space_group_symop_operation_xyz
  'x, y, z'

loop_
  _atom_site_type_symbol
  _atom_site_label
  _atom_site_symmetry_multiplicity
  _atom_site_fract_x
  _atom_site_fract_y
  _atom_site_fract_z
  _atom_site_occupancy
  Cd  Cd1       1.0  0.8993062811753418  0.12408265637393612  0.6684883629957383  1.0000
  Cd  Cd2       1.0  0.1006957179660758  0.8759156647968285  0.3315103995161408  1.0000
  H   H1        1.0  0.028734932416646906  0.66029870358053  0.18474685444154207  1.0000
  H   H2        1.0  0.9712604529791378  0.33970260208217706  0.8152564757228191  1.0000
  H   H3        1.0  0.528822586542752  0.32244345892814863  0.27753331082578814  1.0000
  H   H4        1.0  0.47118355878838275  0.6775548383980308  0.7224627213673004  1.0000
  H   H5        1.0  0.055557240686873455  0.1895475111899714  0.35300901905773696  1.0000
  H   H6        1.0  0.9444458897977414  0.8104527719678953  0.6469900172976465  1.0000
  H   H7        1.0  0.7258371338113961  0.028176139221820107  0.9737113252307593  1.0000
  H   H8        1.0  0.27415873165072213  0.9718241825751261  0.026291837307340367  1.0000
  H   H9        1.0  0.36831031785536794  0.002196059294071499  0.17156969395720978  1.0000
  H   H10       1.0  0.6316836823117101  0.9978101525287429  0.828432270716668  1.0000
  H   H11       1.0  0.15599537638166094  0.7661674207013789  0.9291390502396197  1.0000
  H   H12       1.0  0.8439993944992492  0.23383095146422764  0.07086644595572283  1.0000
  H   H13       1.0  0.5214763406587792  0.4259916383601949  0.09530319656823845  1.0000
  H   H14       1.0  0.4785242305376515  0.5740096385264266  0.9046969379893567  1.0000
  H   H15       1.0  0.40585812322095904  0.40811384382416804  0.03200483610352469  1.0000
  H   H16       1.0  0.5941440471310031  0.5918884070652127  0.9679945355043883  1.0000
  H   H17       1.0  0.4089305621486688  0.16940099845468384  0.02659379227134901  1.0000
  H   H18       1.0  0.591070064018041  0.8306022329947782  0.9734044739169648  1.0000
  H   H19       1.0  0.7343411021510351  0.9556162323590628  0.17832614771705813  1.0000
  H   H20       1.0  0.26565469608680564  0.044382130756460504  0.8216780140233978  1.0000
  H   H21       1.0  0.9142411348567663  0.8842502554414439  0.17250702726895642  1.0000
  H   H22       1.0  0.0857546633810742  0.11574810767407231  0.8274971344714999  1.0000
  H   H23       1.0  0.4260091011531416  0.8774184544157322  0.33566736006077497  1.0000
  H   H24       1.0  0.573996692605931  0.12258280605056633  0.6643321863908015  1.0000
  H   H25       1.0  0.4646713659211841  0.9466850949524783  0.4461351278292583  1.0000
  H   H26       1.0  0.5353273644882037  0.053322080197183715  0.5538655471979583  1.0000
  H   H27       1.0  0.4829788204033675  0.15939500890176114  0.4242799279499821  1.0000
  H   H28       1.0  0.5170258175045106  0.840604281340262  0.575717606324254  1.0000
  H   H29       1.0  0.6365459833952158  0.8020293499746888  0.12294653711726507  1.0000
  H   H30       1.0  0.36345128550389216  0.19796800786922122  0.8770535150412898  1.0000
  H   H31       1.0  0.19469095955863486  0.8561381390140211  0.6869286608349016  1.0000
  H   H32       1.0  0.805304370866871  0.143861212085838  0.313076537698734  1.0000
  H   H33       1.0  0.08880572750878461  0.3282803901945143  0.1786294987373438  1.0000
  H   H34       1.0  0.9111927644657881  0.671720896555101  0.8213715663961881  1.0000
  H   H35       1.0  0.12078621239630394  0.45263708624017335  0.23538134054536644  1.0000
  H   H36       1.0  0.8792137870015252  0.5473632075935982  0.7646182225070179  1.0000
  H   H37       1.0  0.7258779212580534  0.4690463659152898  0.7046764786283009  1.0000
  H   H38       1.0  0.27412455794969054  0.5309509713897216  0.2953221162573101  1.0000
  H   H39       1.0  0.8075349282755726  0.6010356024618632  0.4887557298528406  1.0000
  H   H40       1.0  0.192461126605366  0.3989705912607775  0.5112435659112649  1.0000
  H   H41       1.0  0.7923413287101938  0.41784583698035505  0.22511411852064367  1.0000
  H   H42       1.0  0.20766219010847925  0.5821514953931555  0.774884011076999  1.0000
  H   H43       1.0  0.6093710343842248  0.5950230242791861  0.16883687249168125  1.0000
  H   H44       1.0  0.39062977844371716  0.4049713803416355  0.831163484545968  1.0000
  C   C1        1.0  0.9384315985541606  0.6444378792165324  0.17946581702127423  1.0000
  C   C2        1.0  0.061565269756890466  0.355562425293151  0.8205342727281035  1.0000
  C   C3        1.0  0.9232516440476887  0.5272137141288694  0.2068559117702905  1.0000
  C   C4        1.0  0.07674986277339717  0.47278558678906535  0.7931421492009394  1.0000
  C   C5        1.0  0.49326943868544487  0.2525013265273657  0.2536757181672585  1.0000
  C   C6        1.0  0.5067362265793564  0.7474979546645669  0.7463204816520916  1.0000
  C   C7        1.0  0.9768808007871287  0.28235050667628064  0.421219241511288  1.0000
  C   C8        1.0  0.023121837377161163  0.7176507562287568  0.5787790933034458  1.0000
  C   C9        1.0  0.47189337688985955  0.2576260805659558  0.14140272445839486  1.0000
  C   C10       1.0  0.5281087812081039  0.742376166204835  0.8585957779826074  1.0000
  C   C11       1.0  0.22689313046598159  0.024287913912758103  0.49963883819087584  1.0000
  C   C12       1.0  0.773108868675436  0.9757104072580065  0.5003599243210033  1.0000
  C   C13       1.0  0.8484298040561451  0.9679716731420884  0.9246983349980629  1.0000
  C   C14       1.0  0.1515645539827091  0.032029641570702004  0.0753063296211849  1.0000
  C   C15       1.0  0.8366132709920748  0.7437264286662713  0.14787674669251047  1.0000
  C   C16       1.0  0.16338306228237098  0.2562729051463322  0.8521253790524028  1.0000
  C   C17       1.0  0.40248458223934597  0.07348121369211923  0.19485942471953174  1.0000
  C   C18       1.0  0.5975134968931782  0.92652301560468  0.8051408088379121  1.0000
  C   C19       1.0  0.07535660357992677  0.8305149391583556  0.8981642768100286  1.0000
  C   C20       1.0  0.9246376627266599  0.16948440863583167  0.10183964867774632  1.0000
  C   C21       1.0  0.4244294722712  0.0682439779845794  0.3069154859172586  1.0000
  C   C22       1.0  0.5755701142845737  0.9317592583963757  0.6930832455590306  1.0000
  C   C23       1.0  0.647226393553069  0.28346096096769463  0.9146469386655767  1.0000
  C   C24       1.0  0.35277530898655846  0.7165422779060294  0.08535346973552285  1.0000
  C   C25       1.0  0.5034370010468192  0.3545897557150753  0.04979646460456893  1.0000
  C   C26       1.0  0.49656460976054007  0.6454115162400458  0.9502032046650586  1.0000
  C   C27       1.0  0.42497798737076664  0.16710910633855036  0.11402764741312407  1.0000
  C   C28       1.0  0.5750214951987473  0.8328921590052192  0.8859694757647748  1.0000
  C   C29       1.0  0.8483080374612939  0.8732382587205408  0.12809702296258518  1.0000
  C   C30       1.0  0.15168726845621447  0.1267610841421529  0.8719064372372146  1.0000
  C   C31       1.0  0.39592693695880865  0.968400383475455  0.3951505389272043  1.0000
  C   C32       1.0  0.6040747410728216  0.03160284716109631  0.6048481311400593  1.0000
  C   C33       1.0  0.4682013304072043  0.16014164598227154  0.3361251789467232  1.0000
  C   C34       1.0  0.5318018000774103  0.8398586371755883  0.6638738574086674  1.0000
  C   C35       1.0  0.7196844102114002  0.7238721633998894  0.14306012131864068  1.0000
  C   C36       1.0  0.28031287094170665  0.2761251985626103  0.8569408000068249  1.0000
  C   C37       1.0  0.09155014202853094  0.876767817112061  0.7810937001956975  1.0000
  C   C38       1.0  0.9084466958202385  0.12323054107195472  0.21890999625678376  1.0000
  C   C39       1.0  0.03167518036855202  0.42348343815119455  0.24458954833363583  1.0000
  C   C40       1.0  0.9683258463862072  0.5765168466324938  0.7554086802638551  1.0000
  C   C41       1.0  0.8065613048183667  0.43069333628587003  0.5995622359420736  1.0000
  C   C42       1.0  0.19344644562258406  0.5693078731315567  0.40042768826439357  1.0000
  C   C43       1.0  0.8455164307540174  0.49713629982549173  0.49431103208050325  1.0000
  C   C44       1.0  0.15448544619285093  0.5028581081010088  0.5056905980030137  1.0000
  C   C45       1.0  0.8051091805835712  0.5087995739574963  0.20215823709528996  1.0000
  C   C46       1.0  0.19489318238390752  0.4911957881917318  0.7978378803250196  1.0000
  C   C47       1.0  0.7038413565366426  0.6068240330874063  0.16994343272413914  1.0000
  C   C48       1.0  0.2961579915843161  0.3931733148935023  0.8300556888584723  1.0000
  N   N1        1.0  0.9204160500839932  0.8889752341360124  0.9877000983531303  1.0000
  N   N2        1.0  0.0795803076984427  0.11102410791376371  0.012303765725619104  1.0000
  N   N3        1.0  0.9491194244114  0.9629812437131167  0.7987520570371557  1.0000
  N   N4        1.0  0.05087749291563881  0.0370190772709194  0.20125150937988678  1.0000
  N   N5        1.0  0.953236657344597  0.4013340202331507  0.38187789323114896  1.0000
  N   N6        1.0  0.046762929211183815  0.5986692161478046  0.6181208382451474  1.0000
  N   N7        1.0  0.8893295136155717  0.2969793022183466  0.5526701769238258  1.0000
  N   N8        1.0  0.11067312454871825  0.7030219606866909  0.44732815789090813  1.0000
  O   O1        1.0  0.7706327059842479  0.28893875844693184  0.8909742434060135  1.0000
  O   O2        1.0  0.22936795694445059  0.7110644853582856  0.10902663028305434  1.0000
  O   O3        1.0  0.13856125639854616  0.9911331674580309  0.47567349050020635  1.0000
  O   O4        1.0  0.8614421829418575  0.008862202115459197  0.5243247691328818  1.0000
  O   O5        1.0  0.6354431789433478  0.21803091434149025  0.8339942239751323  1.0000
  O   O6        1.0  0.36455904637888636  0.781973291110724  0.16600327926350644  1.0000
  O   O7        1.0  0.17759753543693083  0.10236704332081811  0.6027508582761599  1.0000
  O   O8        1.0  0.8224014120959778  0.8976332513258644  0.3972483008972745  1.0000
