data_image0
_chemical_formula_structural       Cu2H24C24S4N4O12
_chemical_formula_sum              "Cu2 H24 C24 S4 N4 O12"
_cell_length_a       4.935709381268812
_cell_length_b       7.814152261091359
_cell_length_c       18.459268495889585
_cell_angle_alpha    89.9995278897646
_cell_angle_beta     90.2150674862692
_cell_angle_gamma    90.00028897036458

_space_group_name_H-M_alt    "P 1"
_space_group_IT_number       1

loop_
  _space_group_symop_operation_xyz
  'x, y, z'

loop_
  _atom_site_type_symbol
  _atom_site_label
  _atom_site_symmetry_multiplicity
  _atom_site_fract_x
  _atom_site_fract_y
  _atom_site_fract_z
  _atom_site_occupancy
  Cu  Cu1       1.0  0.9999992710887186  1.582641019099999e-06  0.9999999092832752  1.0000
  Cu  Cu2       1.0  0.50000179851115  0.5000015458563284  0.4999995462725551  1.0000
  H   H1        1.0  0.4237925529970782  0.5029585407297932  0.7982252037365145  1.0000
  H   H2        1.0  0.9237920143488767  0.9970369804288739  0.2982292511749023  1.0000
  H   H3        1.0  0.5762130790804464  0.49704199151683787  0.2017749731155618  1.0000
  H   H4        1.0  0.0762116276624383  0.0029571531257417  0.7017752587503949  1.0000
  H   H5        1.0  0.06886004175252222  0.5871364390767226  0.8863900522823158  1.0000
  H   H6        1.0  0.5688527346105373  0.9128639232272494  0.3863922236250517  1.0000
  H   H7        1.0  0.9311435597773684  0.41286793236002245  0.1136095819970251  1.0000
  H   H8        1.0  0.4311407591139727  0.08713660897915793  0.6136101151953071  1.0000
  H   H9        1.0  0.8879645384930869  0.3627568327344478  0.9724775487010078  1.0000
  H   H10       1.0  0.38795573188542687  0.13724059613614514  0.4724775208399521  1.0000
  H   H11       1.0  0.11203500190575968  0.6372462589770651  0.0275210004484592  1.0000
  H   H12       1.0  0.6120336872363838  0.8627676144662573  0.5275221076255505  1.0000
  H   H13       1.0  0.7224214676416311  0.05663174574778651  0.7880509674949963  1.0000
  H   H14       1.0  0.22242928846470283  0.4433687441119219  0.288049878635583  1.0000
  H   H15       1.0  0.27757403863082436  0.9433675067482388  0.21194974694780908  1.0000
  H   H16       1.0  0.7775763345823138  0.5566253894984785  0.7119492147547319  1.0000
  H   H17       1.0  0.8328651691539265  0.27265027923665036  0.7834948610524322  1.0000
  H   H18       1.0  0.3328692475964062  0.22734936901853334  0.28349560763010123  1.0000
  H   H19       1.0  0.16713640178744527  0.7273476935554016  0.2165042306720082  1.0000
  H   H20       1.0  0.6671343538874908  0.7726434848540579  0.7165040266693055  1.0000
  H   H21       1.0  0.5692620561506275  0.20461104973396269  0.7260742310504753  1.0000
  H   H22       1.0  0.06926667352041702  0.2953901600412864  0.22607419878243457  1.0000
  H   H23       1.0  0.4307354716798387  0.7953882027705248  0.27392594248546237  1.0000
  H   H24       1.0  0.9307349019029943  0.7046026938281005  0.773925434687385  1.0000
  C   C1        1.0  0.33639437356526264  0.12841403768695167  0.8863714643461407  1.0000
  C   C2        1.0  0.8363988795821841  0.37158234226254905  0.3863721593102625  1.0000
  C   C3        1.0  0.6636011192048701  0.8715864945542082  0.1136276248850621  1.0000
  C   C4        1.0  0.16360269136429653  0.6284169102588495  0.6136269324119469  1.0000
  C   C5        1.0  0.44707727949069925  0.24074295280014021  0.8353201799764065  1.0000
  C   C6        1.0  0.9470808928641717  0.2592573292915078  0.3353218081196587  1.0000
  C   C7        1.0  0.5529243004658541  0.7592575794400959  0.16467999521648843  1.0000
  C   C8        1.0  0.052920687077048015  0.7407393637606747  0.6646783670799294  1.0000
  C   C9        1.0  0.3465187613958278  0.4089363307384134  0.8365301188086393  1.0000
  C   C10       1.0  0.8465169883005644  0.09106232978383841  0.33653341489722527  1.0000
  C   C11       1.0  0.6534868706868127  0.5910654812375712  0.16347005804121303  1.0000
  C   C12       1.0  0.15348258809255813  0.9089343632388494  0.663469468155057  1.0000
  C   C13       1.0  0.1468794548493264  0.4568818787426069  0.8854947756982343  1.0000
  C   C14       1.0  0.6468752682528635  0.04311647780328801  0.3854976963043697  1.0000
  C   C15       1.0  0.8531241466703393  0.5431199332354311  0.1145048585855619  1.0000
  C   C16       1.0  0.35312429466348766  0.9568878936112885  0.6145035615251615  1.0000
  C   C17       1.0  0.04705310741391601  0.33543237935966647  0.9334973050272809  1.0000
  C   C18       1.0  0.5470498773118778  0.1645647281404763  0.4334981771928739  1.0000
  C   C19       1.0  0.952944415924293  0.6645694326087794  0.06650232676773982  1.0000
  C   C20       1.0  0.45294764153407396  0.8354396432919273  0.5665009128612368  1.0000
  C   C21       1.0  0.6547916936516672  0.18871129710080237  0.7806614137193861  1.0000
  C   C22       1.0  0.15479442095274723  0.3112891223037623  0.2806624086877747  1.0000
  C   C23       1.0  0.34520786023928457  0.8112879554068828  0.2193387606461457  1.0000
  C   C24       1.0  0.8452071589833567  0.6887062910190666  0.7193377665140375  1.0000
  S   S1        1.0  0.43175104939044234  0.9058689090218268  0.8921466645497347  1.0000
  S   S2        1.0  0.9317553519566176  0.5941286508869156  0.3921467020207601  1.0000
  S   S3        1.0  0.5682464784502416  0.09413290294136091  0.10785350898174781  1.0000
  S   S4        1.0  0.06824824505034852  0.40587060163768757  0.6078523905310433  1.0000
  N   N1        1.0  0.1424981575788067  0.17457950873210146  0.9335377500548034  1.0000
  N   N2        1.0  0.6424982427642759  0.3254191798271863  0.43353860423547985  1.0000
  N   N3        1.0  0.8574993567595544  0.825423582976214  0.06646079826507639  1.0000
  N   N4        1.0  0.3574992760765596  0.6745839118758641  0.566460485820855  1.0000
  O   O1        1.0  0.29633022475641724  0.8491005136951416  0.9607464251147277  1.0000
  O   O2        1.0  0.7963410724139238  0.6508965638300667  0.46074789245537323  1.0000
  O   O3        1.0  0.7036652725264078  0.1509025779994602  0.039253205848474707  1.0000
  O   O4        1.0  0.20366455066375985  0.3491052481564338  0.5392512009215622  1.0000
  O   O5        1.0  0.3238251217020576  0.8250224664185667  0.8273322819170588  1.0000
  O   O6        1.0  0.8238240008141774  0.6749772914698867  0.3273331186306336  1.0000
  O   O7        1.0  0.6761703800730317  0.17497806581206998  0.1726678907870536  1.0000
  O   O8        1.0  0.17617960070037955  0.3250232407788048  0.6726665156554006  1.0000
  O   O9        1.0  0.7260784053811237  0.8953576085773067  0.8992842868963749  1.0000
  O   O10       1.0  0.22608149026697794  0.6046430007668777  0.3992838358797002  1.0000
  O   O11       1.0  0.2739170918965926  0.10464420338794163  0.10071534406905872  1.0000
  O   O12       1.0  0.7739221112373543  0.3953549720231139  0.6007157984107891  1.0000
