data_image0
_chemical_formula_structural       K4H16C12N24Cl4O8
_chemical_formula_sum              "K4 H16 C12 N24 Cl4 O8"
_cell_length_a       8.60007508177857
_cell_length_b       10.047649524002585
_cell_length_c       10.175035101088811
_cell_angle_alpha    90.00000337996016
_cell_angle_beta     109.37315944437516
_cell_angle_gamma    90.00007652851609

_space_group_name_H-M_alt    "P 1"
_space_group_IT_number       1

loop_
  _space_group_symop_operation_xyz
  'x, y, z'

loop_
  _atom_site_type_symbol
  _atom_site_label
  _atom_site_symmetry_multiplicity
  _atom_site_fract_x
  _atom_site_fract_y
  _atom_site_fract_z
  _atom_site_occupancy
  K   K1        1.0  0.0510863743596701  0.6889134069140469  0.575426999627652  1.0000
  K   K2        1.0  0.44891688511530253  0.18890713757721767  0.4245607482153275  1.0000
  K   K3        1.0  0.9489126695207661  0.3110971956642602  0.4245609094057486  1.0000
  K   K4        1.0  0.5510907933756215  0.8110905266566706  0.5754276347223879  1.0000
  H   H1        1.0  0.8528522097683651  0.18602909642790172  0.846636102270054  1.0000
  H   H2        1.0  0.6471460576106197  0.6860294793674199  0.15336374351840484  1.0000
  H   H3        1.0  0.14714802007326  0.813970558317415  0.15336590104507047  1.0000
  H   H4        1.0  0.3528529396645155  0.31397017537717903  0.8466379115639101  1.0000
  H   H5        1.0  0.6410907997315718  0.21103681330870222  0.8262182018715619  1.0000
  H   H6        1.0  0.8589087446008391  0.7110364449063341  0.17378200606651714  1.0000
  H   H7        1.0  0.3589094334383134  0.788962841436586  0.17378281958270486  1.0000
  H   H8        1.0  0.1410914852407927  0.28896320983897544  0.8262199972486073  1.0000
  H   H9        1.0  0.9379441302045421  0.32098307298164747  0.06657839808131893  1.0000
  H   H10       1.0  0.5620543767117497  0.8209834045098534  0.9334215228102425  1.0000
  H   H11       1.0  0.06205487039973431  0.6790175770205665  0.9334222751404226  1.0000
  H   H12       1.0  0.4379433913242607  0.17901525497635623  0.06657880217814241  1.0000
  H   H13       1.0  0.8108791741117187  0.18284920143231181  0.07640693912640031  1.0000
  H   H14       1.0  0.6891178517293072  0.6828506732703445  0.9235935385207696  1.0000
  H   H15       1.0  0.1891198231642974  0.8171514485699303  0.9235947159561916  1.0000
  H   H16       1.0  0.3108811455467091  0.3171499767318978  0.07640811656182224  1.0000
  C   C1        1.0  0.635931005110372  0.45486298699828603  0.7175348555839778  1.0000
  C   C2        1.0  0.8640665101988958  0.9548636261913757  0.28246380971939544  1.0000
  C   C3        1.0  0.36406922805862507  0.5451356724893515  0.2824661658700052  1.0000
  C   C4        1.0  0.1359337262992426  0.04513602855388401  0.717536229874014  1.0000
  C   C5        1.0  0.764512173320398  0.25441817549408097  0.8681445348218801  1.0000
  C   C6        1.0  0.7354862154453912  0.7544176631544134  0.13185534902547155  1.0000
  C   C7        1.0  0.23548805985036841  0.7455824745088507  0.13185648663266392  1.0000
  C   C8        1.0  0.264514017724494  0.24558199159086777  0.8681456724287884  1.0000
  C   C9        1.0  0.8148238631300516  0.2773011431379758  0.023902737520323757  1.0000
  C   C10       1.0  0.6851757988193655  0.7773016183026656  0.9760975072946891  1.0000
  C   C11       1.0  0.185176373368968  0.7226995068649275  0.9760973020733631  1.0000
  C   C12       1.0  0.31482443435140073  0.22269903170026592  0.023903514159854908  1.0000
  N   N1        1.0  0.7653115252647851  0.37725486276170284  0.7932342437174141  1.0000
  N   N2        1.0  0.7346858456359514  0.8772543539338857  0.20676634211772454  1.0000
  N   N3        1.0  0.2346874720103429  0.6227447919828891  0.20676741136490048  1.0000
  N   N4        1.0  0.2653143842056736  0.12274530081143102  0.793235661197393  1.0000
  N   N5        1.0  0.9074644988504305  0.4392614862796407  0.8025205580115584  1.0000
  N   N6        1.0  0.5925342180048219  0.9392618092342034  0.19747942870301224  1.0000
  N   N7        1.0  0.09253573431945482  0.5607381684656405  0.1974804634427088  1.0000
  N   N8        1.0  0.4074660184933165  0.06073784551105632  0.8025206108903974  1.0000
  N   N9        1.0  0.8666102803554951  0.5509233970556268  0.7348297442581782  1.0000
  N   N10       1.0  0.6333902156780269  0.050923723463292006  0.2651697409474636  1.0000
  N   N11       1.0  0.13338995947090382  0.44907625768960463  0.2651693134743738  1.0000
  N   N12       1.0  0.36661002414925303  0.9490769265395828  0.7348293167853656  1.0000
  N   N13       1.0  0.7003825419868691  0.5656511228411674  0.6813549314597795  1.0000
  N   N14       1.0  0.7996167476213928  0.06565164292951658  0.31864421370922713  1.0000
  N   N15       1.0  0.29961769451126946  0.43434853190409234  0.3186451081336302  1.0000
  N   N16       1.0  0.2003834888776339  0.9343490070733868  0.6813558258844594  1.0000
  N   N17       1.0  0.4807758657981794  0.40499650822808064  0.6896030910247717  1.0000
  N   N18       1.0  0.0192215677924921  0.9049967538323997  0.3103967819601793  1.0000
  N   N19       1.0  0.5192243640434455  0.5950031465172287  0.3103989122903457  1.0000
  N   N20       1.0  0.980778662048252  0.09500190565527332  0.6896052213546612  1.0000
  N   N21       1.0  0.3539304399147838  0.48386562582889775  0.6299938932423643  1.0000
  N   N22       1.0  0.1460658977695886  0.9838650250814073  0.3700066572617756  1.0000
  N   N23       1.0  0.6460685606886045  0.5161340289156727  0.3700067799790929  1.0000
  N   N24       1.0  0.8539343354002965  0.016134629663881104  0.6299943641924841  1.0000
  Cl  Cl1       1.0  0.6781022635319616  0.3904021448566297  0.06876912772455065  1.0000
  Cl  Cl2       1.0  0.8218975991668813  0.8904027740709285  0.9312311800322349  1.0000
  Cl  Cl3       1.0  0.3218979696379236  0.6095975098886585  0.9312318937297093  1.0000
  Cl  Cl4       1.0  0.17810140143650702  0.10959688067364233  0.0687694931892224  1.0000
  O   O1        1.0  0.21210698607816883  0.4327501064422351  0.6050277012736204  1.0000
  O   O2        1.0  0.28788925754941624  0.9327486744623812  0.39497380264489124  1.0000
  O   O3        1.0  0.7878920145252197  0.5672495483023355  0.394972971947837  1.0000
  O   O4        1.0  0.712110975620469  0.0672509802829069  0.6050272188093686  1.0000
  O   O5        1.0  0.3673025823137763  0.6049775401402115  0.6003104506955381  1.0000
  O   O6        1.0  0.1326955546504038  0.10497687844794971  0.3996886216978197  1.0000
  O   O7        1.0  0.6326964249470137  0.3950231098619526  0.39968825880448833  1.0000
  O   O8        1.0  0.867303449281238  0.8950227762965925  0.6003110696627871  1.0000
