data_image0
_chemical_formula_structural       Cu4H16C24S20I4O4
_chemical_formula_sum              "Cu4 H16 C24 S20 I4 O4"
_cell_length_a       4.348987228006207
_cell_length_b       12.687771724030307
_cell_length_c       20.570374460022556
_cell_angle_alpha    89.9998337687415
_cell_angle_beta     89.99996533677239
_cell_angle_gamma    89.99981117499036

_space_group_name_H-M_alt    "P 1"
_space_group_IT_number       1

loop_
  _space_group_symop_operation_xyz
  'x, y, z'

loop_
  _atom_site_type_symbol
  _atom_site_label
  _atom_site_symmetry_multiplicity
  _atom_site_fract_x
  _atom_site_fract_y
  _atom_site_fract_z
  _atom_site_occupancy
  Cu  Cu1       1.0  0.6515176526170875  0.06424975002251189  0.9808498177963187  1.0000
  Cu  Cu2       1.0  0.15148826715275018  0.9357449512145732  0.0191533949767475  1.0000
  Cu  Cu3       1.0  0.6515183047284624  0.5642487917950376  0.5191480014316666  1.0000
  Cu  Cu4       1.0  0.15148761506418407  0.435744333143866  0.4808454886223927  1.0000
  H   H1        1.0  0.3817432127329853  0.9325119113520087  0.6391231389626171  1.0000
  H   H2        1.0  0.8817331326529468  0.06749040830820259  0.3608751859841631  1.0000
  H   H3        1.0  0.38175673511108954  0.43251027827383837  0.8608745349026493  1.0000
  H   H4        1.0  0.8817518016747528  0.5674928295295699  0.13912330390554928  1.0000
  H   H5        1.0  0.420719498316764  0.10955663485862738  0.5853718170759592  1.0000
  H   H6        1.0  0.9207382211618621  0.8904456402124127  0.41463379543026957  1.0000
  H   H7        1.0  0.42074419709278743  0.609563284168729  0.9146249748888094  1.0000
  H   H8        1.0  0.9207365162184972  0.3904484488419867  0.0853689703430831  1.0000
  H   H9        1.0  0.0983408238708066  0.1601599782836871  0.5404975462134161  1.0000
  H   H10       1.0  0.5983598859846708  0.8398426653113161  0.45950907561309146  1.0000
  H   H11       1.0  0.09835848306372702  0.6601624768340173  0.9595001640409607  1.0000
  H   H12       1.0  0.5983721188069425  0.3398448957373716  0.0404933321069976  1.0000
  H   H13       1.0  0.06702209990394441  0.8488599513242007  0.6140390997201237  1.0000
  H   H14       1.0  0.5670180442545886  0.1511403636170741  0.3859621782128002  1.0000
  H   H15       1.0  0.06704474074004452  0.3488613535090224  0.8859626498880716  1.0000
  H   H16       1.0  0.5670114991049574  0.6511421140648889  0.11403862804108658  1.0000
  C   C1        1.0  0.48993049476570855  0.1373875421689021  0.8312870974746716  1.0000
  C   C2        1.0  0.9899134669585552  0.862612289325078  0.1687175348098719  1.0000
  C   C3        1.0  0.4899168791406581  0.6373866723320418  0.6687101226135184  1.0000
  C   C4        1.0  0.9899270826251366  0.36260764206146223  0.3312847869555497  1.0000
  C   C5        1.0  0.14819634903329873  0.04164220516368288  0.7456397589723878  1.0000
  C   C6        1.0  0.6481873392588399  0.9583580169805826  0.2543639403122526  1.0000
  C   C7        1.0  0.14819166096992828  0.541644875386872  0.7543605894465699  1.0000
  C   C8        1.0  0.6482012248961057  0.4583514059668942  0.24563581780076763  1.0000
  C   C9        1.0  0.19988611908335943  0.13973274576470368  0.719958074028156  1.0000
  C   C10       1.0  0.699880259550767  0.8602721462480645  0.2800470777198498  1.0000
  C   C11       1.0  0.19988364947244008  0.6397329313498403  0.7800401474441188  1.0000
  C   C12       1.0  0.6998896273767202  0.36026329091781406  0.21995479545483929  1.0000
  C   C13       1.0  0.13314054098628963  0.9275844926614027  0.6312531016283671  1.0000
  C   C14       1.0  0.6331372874495713  0.07241732302173888  0.3687462241605672  1.0000
  C   C15       1.0  0.13316553548470011  0.42758282274942877  0.8687465542148091  1.0000
  C   C16       1.0  0.6331398855918949  0.5724166284342829  0.1312537438467132  1.0000
  C   C17       1.0  0.0107233653921739  0.010217913766780398  0.5850301763667005  1.0000
  C   C18       1.0  0.5107457422571289  0.9897824655103233  0.4149740248507641  1.0000
  C   C19       1.0  0.010752661883685701  0.510219044344062  0.9149702443825802  1.0000
  C   C20       1.0  0.5107624334647125  0.4897868520402112  0.0850295816030879  1.0000
  C   C21       1.0  0.16970240782857363  0.11591566061736099  0.5837938282541231  1.0000
  C   C22       1.0  0.6697234854781231  0.8840900540437743  0.4162118130964032  1.0000
  C   C23       1.0  0.1697133053407072  0.6159167854277996  0.9162034672600966  1.0000
  C   C24       1.0  0.6697309830762421  0.38408814109079265  0.08379002068954831  1.0000
  S   S1        1.0  0.6956585723044455  0.1750581916893523  0.8955095092921255  1.0000
  S   S2        1.0  0.19564606617633024  0.8249396117157841  0.1044956429484785  1.0000
  S   S3        1.0  0.69564515910551  0.675057622336439  0.6044885916557234  1.0000
  S   S4        1.0  0.19564338371977638  0.32493308765195655  0.3955087824158454  1.0000
  S   S5        1.0  0.3199673838728287  0.015017083266997097  0.8205358330621947  1.0000
  S   S6        1.0  0.8199468603080574  0.9849837306846537  0.17946784648221126  1.0000
  S   S7        1.0  0.319958333135169  0.5150145867969583  0.6794640573837328  1.0000
  S   S8        1.0  0.8199513123362507  0.4849751929256598  0.3205333024025805  1.0000
  S   S9        1.0  0.4356141070120003  0.2208152985670324  0.7661054216588425  1.0000
  S   S10       1.0  0.9356137619809175  0.7791861713265786  0.23390067527350314  1.0000
  S   S11       1.0  0.4355979865359743  0.7208172764005596  0.7338911684469736  1.0000
  S   S12       1.0  0.93562528372221  0.27918025272066416  0.2661032612246714  1.0000
  S   S13       1.0  0.0355419411686171  0.19784249439732088  0.6514395896568317  1.0000
  S   S14       1.0  0.5355525133905916  0.8021625854757202  0.348565580976917  1.0000
  S   S15       1.0  0.03554155496092191  0.6978455120377091  0.8485580600244659  1.0000
  S   S16       1.0  0.5355712947392633  0.3021524744102493  0.1514344710780477  1.0000
  S   S17       1.0  0.9367688359825339  0.9407090858784313  0.709730953862227  1.0000
  S   S18       1.0  0.4367492213894836  0.0592931708757192  0.2902712538496459  1.0000
  S   S19       1.0  0.9367733833658534  0.4407077831599864  0.7902700444237709  1.0000
  S   S20       1.0  0.4367653685169657  0.5592873801438856  0.2097297326131908  1.0000
  I   I1        1.0  0.6559770014698146  0.8640175054091301  0.9557537844510051  1.0000
  I   I2        1.0  0.15598732585404207  0.1359748262216343  0.0442513723535214  1.0000
  I   I3        1.0  0.6559800249167509  0.3640189301113566  0.5442478702057301  1.0000
  I   I4        1.0  0.1559843024164778  0.6359749778653521  0.4557465916048997  1.0000
  O   O1        1.0  0.7787343406802947  0.9928834014862034  0.552725995840447  1.0000
  O   O2        1.0  0.27874921765169347  0.007115095099287298  0.4472776884426182  1.0000
  O   O3        1.0  0.7787567882558405  0.49288609312459636  0.9472729821972408  1.0000
  O   O4        1.0  0.27873136882953287  0.5071187087590019  0.0527234100395688  1.0000
