data_image0
_chemical_formula_structural       Cd8H116C128S4N12O36
_chemical_formula_sum              "Cd8 H116 C128 S4 N12 O36"
_cell_length_a       11.03406226904041
_cell_length_b       17.311285171033962
_cell_length_c       19.853866360804243
_cell_angle_alpha    90.00006472745575
_cell_angle_beta     97.48937402040377
_cell_angle_gamma    89.99977612724287

_space_group_name_H-M_alt    "P 1"
_space_group_IT_number       1

loop_
  _space_group_symop_operation_xyz
  'x, y, z'

loop_
  _atom_site_type_symbol
  _atom_site_label
  _atom_site_symmetry_multiplicity
  _atom_site_fract_x
  _atom_site_fract_y
  _atom_site_fract_z
  _atom_site_occupancy
  Cd  Cd1       1.0  0.39782569766901327  0.38596997409513284  0.4382147500346179  1.0000
  Cd  Cd2       1.0  0.602170214769629  0.8859652857144482  0.061787555224533705  1.0000
  Cd  Cd3       1.0  0.6021735812128811  0.6140320116053459  0.5617863131420578  1.0000
  Cd  Cd4       1.0  0.397830892286315  0.11403207872093901  0.9382136380573202  1.0000
  Cd  Cd5       1.0  0.43672063063610267  0.4380545643304998  0.6215038361941652  1.0000
  Cd  Cd6       1.0  0.5632882964942495  0.9380532667750286  0.8784967522323727  1.0000
  Cd  Cd7       1.0  0.56328137993912  0.5619474213650906  0.3784949029837463  1.0000
  Cd  Cd8       1.0  0.43671646055390306  0.0619440976550081  0.12150318976733131  1.0000
  H   H1        1.0  0.6424228003489388  0.2690200234516454  0.5575250150713558  1.0000
  H   H2        1.0  0.357575252035673  0.76901874218688  0.9424731212988604  1.0000
  H   H3        1.0  0.35757923132018016  0.7309819622471495  0.44247876242349093  1.0000
  H   H4        1.0  0.642415785370062  0.23097977757404922  0.057523829575878  1.0000
  H   H5        1.0  0.8484519937000526  0.2488641676592138  0.6180353018532614  1.0000
  H   H6        1.0  0.15154618388682198  0.7488633216587814  0.8819638308681662  1.0000
  H   H7        1.0  0.1515482077064192  0.7511355074100052  0.3819678417027745  1.0000
  H   H8        1.0  0.8484494154887512  0.2511328874639318  0.11803142994532578  1.0000
  H   H9        1.0  0.8784134676970224  0.1748460101634137  0.7274426715196542  1.0000
  H   H10       1.0  0.12158789008825716  0.6748468315377423  0.7725551033247982  1.0000
  H   H11       1.0  0.12158763935719459  0.8251519319298312  0.2725585217623561  1.0000
  H   H12       1.0  0.8784113656007475  0.3251516882120455  0.227440417702276  1.0000
  H   H13       1.0  0.7007116012379767  0.11951645822270511  0.7743124868440747  1.0000
  H   H14       1.0  0.2992900928829484  0.619516199611482  0.7256862646102249  1.0000
  H   H15       1.0  0.2992904198963301  0.8804814838694527  0.2256887714911713  1.0000
  H   H16       1.0  0.7007109972926812  0.3804828977949343  0.2743108980185696  1.0000
  H   H17       1.0  0.24629600352358239  0.07984289169531421  0.7550698587621272  1.0000
  H   H18       1.0  0.753704113246357  0.5798380607995454  0.7449317633081237  1.0000
  H   H19       1.0  0.7537051098483971  0.9201585163460707  0.244932846015935  1.0000
  H   H20       1.0  0.24629149877515027  0.4201616142722672  0.2550665204965057  1.0000
  H   H21       1.0  0.042980866406075784  0.09476689293390451  0.6884556962777637  1.0000
  H   H22       1.0  0.9570191502235372  0.5947662626105625  0.8115434150111726  1.0000
  H   H23       1.0  0.957019337106324  0.9052339374513564  0.3115479511102919  1.0000
  H   H24       1.0  0.04297736320959441  0.4052374560632757  0.18845191085766544  1.0000
  H   H25       1.0  0.0181654473790687  0.1678821648469579  0.5791440835005873  1.0000
  H   H26       1.0  0.981836868391383  0.6678845010889133  0.9208542563208227  1.0000
  H   H27       1.0  0.98183383572681  0.8321180878805733  0.4208579873389909  1.0000
  H   H28       1.0  0.018163301358654793  0.33212037289627017  0.0791413297612706  1.0000
  H   H29       1.0  0.19856920352536628  0.22488230244620408  0.5361469582838084  1.0000
  H   H30       1.0  0.8014318539180322  0.7248834098069851  0.9638508446431686  1.0000
  H   H31       1.0  0.801432821822516  0.77511737262018  0.4638553077153134  1.0000
  H   H32       1.0  0.19856740597415265  0.275120308864203  0.0361456840487548  1.0000
  H   H33       1.0  0.1503368156270781  0.42142638496767393  0.5020709705941259  1.0000
  H   H34       1.0  0.8496585148775961  0.9214251053178657  0.9979321595233371  1.0000
  H   H35       1.0  0.8496606393168803  0.5785744454199174  0.4979309701391442  1.0000
  H   H36       1.0  0.1503398604763504  0.07857514741171909  0.0020713577580906035  1.0000
  H   H37       1.0  0.9309168863957565  0.3784401526985236  0.49222322652790507  1.0000
  H   H38       1.0  0.0690790733390472  0.8784390325665683  0.007779578337888901  1.0000
  H   H39       1.0  0.06908148474114742  0.6215595223725643  0.507779283089967  1.0000
  H   H40       1.0  0.930920207653969  0.12156237547636552  0.9922219886703161  1.0000
  H   H41       1.0  0.9981850902300307  0.24283419647638746  0.31818692204074495  1.0000
  H   H42       1.0  0.0018135137412614  0.7428340443860364  0.18181644065579414  1.0000
  H   H43       1.0  0.0018141928758411  0.7571660562511437  0.6818151487988332  1.0000
  H   H44       1.0  0.9981894151467042  0.2571633200461961  0.8181833712374457  1.0000
  H   H45       1.0  0.21293242851066904  0.2931526498303683  0.334299855785595  1.0000
  H   H46       1.0  0.7870649593483064  0.7931516780017419  0.16570347009827913  1.0000
  H   H47       1.0  0.7870659426193001  0.7068493358721711  0.6657026538329234  1.0000
  H   H48       1.0  0.21293706389885605  0.20684510877500628  0.8342982920683327  1.0000
  H   H49       1.0  0.7574289967516348  0.31673433104334947  0.4189223804379766  1.0000
  H   H50       1.0  0.2425654862299069  0.8167317177089615  0.0810757252038243  1.0000
  H   H51       1.0  0.24256753356354466  0.6832670770015952  0.5810769760837575  1.0000
  H   H52       1.0  0.7574337800060532  0.18326680204242507  0.9189223149817211  1.0000
  H   H53       1.0  0.7840022654438312  0.2670221695702181  0.34395977269723943  1.0000
  H   H54       1.0  0.2159989208214839  0.7670197184036596  0.1560402719117917  1.0000
  H   H55       1.0  0.21599883738466724  0.7329780831538458  0.6560404129220316  1.0000
  H   H56       1.0  0.7840021777917058  0.2329793790040355  0.8439589060437671  1.0000
  H   H57       1.0  0.8425810439063567  0.20645822918356058  0.4899467706950346  1.0000
  H   H58       1.0  0.15740771298941067  0.7064557368007699  0.0100533368410964  1.0000
  H   H59       1.0  0.15741183852774301  0.7935426012091896  0.5100543409403713  1.0000
  H   H60       1.0  0.8425860772087501  0.29354104998487435  0.98994632835133  1.0000
  H   H61       1.0  0.8809048201481603  0.1578129888166231  0.4175692057931784  1.0000
  H   H62       1.0  0.11908880335584368  0.6578112621954373  0.08243220737099931  1.0000
  H   H63       1.0  0.1190889805865467  0.8421872639178075  0.5824329785586856  1.0000
  H   H64       1.0  0.8809113896165427  0.34218725755677326  0.9175689208579385  1.0000
  H   H65       1.0  0.6214010099801328  0.1991984735315597  0.4479912196472213  1.0000
  H   H66       1.0  0.37858960389321084  0.6991937514269396  0.052005487098426804  1.0000
  H   H67       1.0  0.37859186611886736  0.8008046674916829  0.552008380493753  1.0000
  H   H68       1.0  0.6214059996959447  0.3008041906700072  0.9479907813789412  1.0000
  H   H69       1.0  0.6883903283064541  0.10654438242976029  0.45248466558206246  1.0000
  H   H70       1.0  0.31159901777434124  0.6065409766157756  0.0475128667195506  1.0000
  H   H71       1.0  0.3116016358253049  0.8934576032791739  0.5475153733370492  1.0000
  H   H72       1.0  0.6883975083307305  0.3934575431392132  0.9524854821379806  1.0000
  H   H73       1.0  0.700503883077573  0.06017041404869869  0.2062773292362152  1.0000
  H   H74       1.0  0.2994967103213568  0.5601673537940997  0.2937209576773085  1.0000
  H   H75       1.0  0.29949447327626894  0.939835037598776  0.793721653561427  1.0000
  H   H76       1.0  0.7005116988249185  0.43983116594665  0.7062782368722723  1.0000
  H   H77       1.0  0.7910991151187543  0.0803560549138638  0.3268535227254574  1.0000
  H   H78       1.0  0.20890044515608958  0.5803495997220979  0.17314521429459262  1.0000
  H   H79       1.0  0.2088992454573315  0.9196482414185282  0.6731464677352434  1.0000
  H   H80       1.0  0.7911052217568438  0.419646609390476  0.8268537850946346  1.0000
  H   H81       1.0  0.4708199971125566  0.2139716232623883  0.3545560630898095  1.0000
  H   H82       1.0  0.5291696076641301  0.7139712673428916  0.14543907540005563  1.0000
  H   H83       1.0  0.5291728832156222  0.7860280518143129  0.6454445447135839  1.0000
  H   H84       1.0  0.47082873182326773  0.28603129601270894  0.8545558767432269  1.0000
  H   H85       1.0  0.39114492116091526  0.18543534633840864  0.2333557887949453  1.0000
  H   H86       1.0  0.6088475950278109  0.6854372580167548  0.2666390250078194  1.0000
  H   H87       1.0  0.6088497831051995  0.8145654840511867  0.7666439414518466  1.0000
  H   H88       1.0  0.39115439866883145  0.31456588299199945  0.7333556835168694  1.0000
  H   H89       1.0  0.19075668937365714  0.51939432212437  0.6615533016470678  1.0000
  H   H90       1.0  0.809267581610058  0.0193967033799325  0.8384560238633725  1.0000
  H   H91       1.0  0.8092444029096271  0.48060535294023043  0.33844436481357587  1.0000
  H   H92       1.0  0.19073720285494739  0.9806023940278621  0.16155046794883532  1.0000
  H   H93       1.0  0.006935364495007001  0.5562843688195188  0.6758240588822562  1.0000
  H   H94       1.0  0.9930758562968407  0.05628627429094021  0.8241768191115997  1.0000
  H   H95       1.0  0.99306298766259  0.4437135732750974  0.32417391624989733  1.0000
  H   H96       1.0  0.006926171158703202  0.943713978433628  0.1758259507193713  1.0000
  H   H97       1.0  0.8898565273418766  0.48968911723184755  0.6424127414569868  1.0000
  H   H98       1.0  0.1101621405007478  0.9896929642905337  0.8575875838726432  1.0000
  H   H99       1.0  0.11014365508876266  0.5103076695451704  0.3575858676130039  1.0000
  H   H100      1.0  0.8898417108979328  0.010306710773342302  0.1424143084012499  1.0000
  H   H101      1.0  0.9350937262480912  0.4963183201890047  0.7323570853196275  1.0000
  H   H102      1.0  0.0649194109977316  0.9963210092979864  0.7676413419157769  1.0000
  H   H103      1.0  0.0649091963151704  0.5036778889265392  0.26764121507820704  1.0000
  H   H104      1.0  0.9350826122390288  0.0036792434259425005  0.23236042025180847  1.0000
  H   H105      1.0  0.09402312588382238  0.3215298793873274  0.6726135348782734  1.0000
  H   H106      1.0  0.90599929568598  0.8215311293456364  0.8273873950640793  1.0000
  H   H107      1.0  0.9059889332511942  0.6784697956638014  0.32738440838949157  1.0000
  H   H108      1.0  0.09400637754471572  0.17846854571508428  0.172613115821207  1.0000
  H   H109      1.0  0.9939453483022689  0.3488335300647664  0.7330437692309247  1.0000
  H   H110      1.0  0.0060714227853893  0.8488357871082712  0.7669562818845534  1.0000
  H   H111      1.0  0.006062140439212298  0.6511638343603894  0.2669538487700152  1.0000
  H   H112      1.0  0.9939287638501638  0.15116562093228944  0.23304333485011605  1.0000
  H   H113      1.0  0.9390073981440635  0.35094661415870837  0.6444706154885652  1.0000
  H   H114      1.0  0.0610139243357253  0.8509476926188742  0.8555282505836177  1.0000
  H   H115      1.0  0.06100191454229531  0.64904959494789  0.35552612495513364  1.0000
  H   H116      1.0  0.9389917383497631  0.1490514047823837  0.14446974114303404  1.0000
  C   C1        1.0  0.41430706588915456  0.2662469570950066  0.534367374344427  1.0000
  C   C2        1.0  0.5856910158021121  0.7662439824278664  0.9656337834591113  1.0000
  C   C3        1.0  0.5856940453734366  0.7337544509460583  0.4656348266019421  1.0000
  C   C4        1.0  0.41430642226672626  0.23375684795716012  0.034364126620609205  1.0000
  C   C5        1.0  0.4319879042127112  0.21525595953580987  0.5957793415280079  1.0000
  C   C6        1.0  0.5680123096027999  0.7152523725369875  0.9042214139318788  1.0000
  C   C7        1.0  0.568011383106743  0.7847460261659479  0.40422373697544606  1.0000
  C   C8        1.0  0.43198513479594425  0.2847478801911407  0.09577800764276392  1.0000
  C   C9        1.0  0.550487806882458  0.2032775202930353  0.6296154107933775  1.0000
  C   C10       1.0  0.4495143048832375  0.7032741848772235  0.8703849642185517  1.0000
  C   C11       1.0  0.4495142205626833  0.7967261983787068  0.37038735903856695  1.0000
  C   C12       1.0  0.5504840514827406  0.2967272231652133  0.1296140185779535  1.0000
  C   C13       1.0  0.65502016366257  0.2349081854855868  0.6041160230479506  1.0000
  C   C14       1.0  0.34498358217999936  0.7349057205633117  0.8958834921597474  1.0000
  C   C15       1.0  0.34498186589542706  0.7650943778707529  0.3958872506153669  1.0000
  C   C16       1.0  0.6550147720852519  0.265092799189489  0.10411498680425518  1.0000
  C   C17       1.0  0.7699805082694196  0.2241486089607605  0.6382985634244562  1.0000
  C   C18       1.0  0.23001781556297365  0.7241475416925313  0.8617000515938146  1.0000
  C   C19       1.0  0.2300242656434435  0.7758522214190221  0.36170540922977074  1.0000
  C   C20       1.0  0.769973213406935  0.27585040040924724  0.1382948839539893  1.0000
  C   C21       1.0  0.786554486594916  0.18218640556683846  0.7003147542915614  1.0000
  C   C22       1.0  0.21344682502803636  0.6821847224363111  0.7996825208402357  1.0000
  C   C23       1.0  0.213447534532456  0.8178138471567709  0.2996865040443383  1.0000
  C   C24       1.0  0.7865524306627095  0.317813219655605  0.2003130001866822  1.0000
  C   C25       1.0  0.6880494017459071  0.15169371953242466  0.7268575828890178  1.0000
  C   C26       1.0  0.3119475351597956  0.6516934902088706  0.7731423728534069  1.0000
  C   C27       1.0  0.311953533461562  0.8483065331900831  0.2731437405001103  1.0000
  C   C28       1.0  0.6880462508074457  0.3483073401811794  0.22685628467676375  1.0000
  C   C29       1.0  0.5664989951186854  0.16063137140594108  0.6927500163048492  1.0000
  C   C30       1.0  0.4334997184094362  0.6606308832503984  0.8072505783918517  1.0000
  C   C31       1.0  0.4335021161473732  0.8393688813194018  0.30725218464120024  1.0000
  C   C32       1.0  0.5664968098032829  0.339368214162775  0.19274827429753572  1.0000
  C   C33       1.0  0.46245479932270667  0.13341285751376122  0.7200435073945572  1.0000
  C   C34       1.0  0.5375459099703405  0.6334097648032467  0.7799582097951047  1.0000
  C   C35       1.0  0.5375463119416181  0.8665879728694462  0.27995869355164876  1.0000
  C   C36       1.0  0.462451538652381  0.36658875495192683  0.22004221944243343  1.0000
  C   C37       1.0  0.3439050695989251  0.1423337522757819  0.6839076062387976  1.0000
  C   C38       1.0  0.6560974121948462  0.6423315661152955  0.8160937422326668  1.0000
  C   C39       1.0  0.6560978761572187  0.857665922790467  0.3160962363086314  1.0000
  C   C40       1.0  0.34390185825642305  0.3576681089524528  0.18390530561658386  1.0000
  C   C41       1.0  0.23667204007390547  0.1111767684371898  0.7071360989438207  1.0000
  C   C42       1.0  0.7633297167687233  0.6111742856272356  0.7928656708194312  1.0000
  C   C43       1.0  0.7633299894927601  0.8888229066298337  0.29286717471868684  1.0000
  C   C44       1.0  0.23666863748960043  0.38882654475701633  0.20713280814521803  1.0000
  C   C45       1.0  0.12321796478409645  0.12000292044924521  0.6701897707946003  1.0000
  C   C46       1.0  0.8767819045887534  0.6200013579138853  0.8298103623209628  1.0000
  C   C47       1.0  0.8767858950504032  0.8799973322737672  0.3298141368062275  1.0000
  C   C48       1.0  0.12321369687887798  0.3800006277877798  0.17018540232584203  1.0000
  C   C49       1.0  0.10877763124904757  0.16158964342220375  0.6079320516247577  1.0000
  C   C50       1.0  0.8912229025775034  0.6615892800215093  0.8920681698845743  1.0000
  C   C51       1.0  0.8912216581849888  0.838410609306287  0.3920715307098988  1.0000
  C   C52       1.0  0.10877544113213838  0.3384121280190016  0.1079277899217743  1.0000
  C   C53       1.0  0.20898860875131217  0.19303661977329512  0.5839645650546786  1.0000
  C   C54       1.0  0.7910099081600848  0.6930348035216767  0.9160355439971255  1.0000
  C   C55       1.0  0.7910152489703319  0.8069647882651196  0.4160388387147834  1.0000
  C   C56       1.0  0.20898478344796695  0.3069666045238647  0.0839611632596728  1.0000
  C   C57       1.0  0.3286841900384658  0.18383440433596832  0.620303401272075  1.0000
  C   C58       1.0  0.6713143842261928  0.6838299511504573  0.8796972064460179  1.0000
  C   C59       1.0  0.6713160134722003  0.8161670037071501  0.3797002461161442  1.0000
  C   C60       1.0  0.32868122568592645  0.3161697239210355  0.12030057352691872  1.0000
  C   C61       1.0  0.47561623689441024  0.10133612319652491  0.7911425038260306  1.0000
  C   C62       1.0  0.5243864783309675  0.601333549809617  0.7088557986456011  1.0000
  C   C63       1.0  0.5243876166171261  0.8986623965519414  0.2088598922792357  1.0000
  C   C64       1.0  0.4756109618559278  0.39866439228641337  0.2911426152650094  1.0000
  C   C65       1.0  0.1118616243654387  0.3817361132305237  0.46226329663409166  1.0000
  C   C66       1.0  0.888135229664641  0.8817353035675948  0.0377395751348573  1.0000
  C   C67       1.0  0.8881367467679975  0.6182647171562934  0.537739212984107  1.0000
  C   C68       1.0  0.11186496541193237  0.11826494915852241  0.9622620569262637  1.0000
  C   C69       1.0  0.9908375806830563  0.35739135804995215  0.45653059179122835  1.0000
  C   C70       1.0  0.0091566814526445  0.8573910104418444  0.0434730788182378  1.0000
  C   C71       1.0  0.0091598784814124  0.6426088946804143  0.5434723566052639  1.0000
  C   C72       1.0  0.9908426016514936  0.1426098199435515  0.9565289920214967  1.0000
  C   C73       1.0  0.9463251495749461  0.3062911877826764  0.4043424013565869  1.0000
  C   C74       1.0  0.053671245340332484  0.8062902185867812  0.0956608668479504  1.0000
  C   C75       1.0  0.0536723074818681  0.6937084872895056  0.5956600432080493  1.0000
  C   C76       1.0  0.94632986171041  0.1937088788221928  0.9043403264343866  1.0000
  C   C77       1.0  0.027899861059942993  0.2825095502869032  0.3597794471022766  1.0000
  C   C78       1.0  0.972097590681862  0.782509240604327  0.1402238728084413  1.0000
  C   C79       1.0  0.972099424157058  0.717490124783083  0.6402231275688308  1.0000
  C   C80       1.0  0.027902595965819895  0.21748812383119542  0.8597757439250984  1.0000
  C   C81       1.0  0.14740882045798998  0.30979449857804303  0.36837583824462433  1.0000
  C   C82       1.0  0.8525875513165598  0.8097944753288147  0.1316269280946898  1.0000
  C   C83       1.0  0.852589546456663  0.6902063318081276  0.6316256637101887  1.0000
  C   C84       1.0  0.14741172757747018  0.1902034667666257  0.868374135080856  1.0000
  C   C85       1.0  0.8184907457380177  0.2754900478751807  0.3979877196167436  1.0000
  C   C86       1.0  0.18150308127021478  0.7754899239710084  0.1020128169829846  1.0000
  C   C87       1.0  0.18150487894155987  0.7245090495406927  0.6020135871778792  1.0000
  C   C88       1.0  0.8184961891810544  0.22450975109673982  0.897986230866266  1.0000
  C   C89       1.0  0.8140697436657546  0.19784823918091382  0.43525524797936305  1.0000
  C   C90       1.0  0.18592454728753438  0.6978440129228147  0.0647447412117117  1.0000
  C   C91       1.0  0.185925881006888  0.8021531688664113  0.5647460588159063  1.0000
  C   C92       1.0  0.8140747231741371  0.3021521961977527  0.9352543066365725  1.0000
  C   C93       1.0  0.6857820506191956  0.1620925259601051  0.42517682186926464  1.0000
  C   C94       1.0  0.3142069557041721  0.6620903039544787  0.07481923011352622  1.0000
  C   C95       1.0  0.31421082126275474  0.8379100374046331  0.5748217706081606  1.0000
  C   C96       1.0  0.6857904802587454  0.3379093711145059  0.9251781761341816  1.0000
  C   C97       1.0  0.6525738146358434  0.09358858113013468  0.24123823280417164  1.0000
  C   C98       1.0  0.3474256640886892  0.5935865121101855  0.2587600078120644  1.0000
  C   C99       1.0  0.34742454383085425  0.9064157152019306  0.7587612538248437  1.0000
  C   C100      1.0  0.6525818267569788  0.4064125852888766  0.7412381140210584  1.0000
  C   C101      1.0  0.7023966248162806  0.10560153500627932  0.3082982738026914  1.0000
  C   C102      1.0  0.2976000374580821  0.6055971934491566  0.1916992745636819  1.0000
  C   C103      1.0  0.29759990549023024  0.8944027613279816  0.6917010827198524  1.0000
  C   C104      1.0  0.7024047111490432  0.3944013262953304  0.8082986521095776  1.0000
  C   C105      1.0  0.6371678535487034  0.14847252229511557  0.3517012728944309  1.0000
  C   C106      1.0  0.3628276373094792  0.6484696957604754  0.14829623448009951  1.0000
  C   C107      1.0  0.36282685282160526  0.8515300410683935  0.648298961184544  1.0000
  C   C108      1.0  0.6371752768040935  0.35153055695883495  0.8517000505920933  1.0000
  C   C109      1.0  0.524312864819848  0.1789758682191049  0.32363065497395394  1.0000
  C   C110      1.0  0.47567878239775746  0.6789751073975979  0.17636560164458365  1.0000
  C   C111      1.0  0.4756800112860802  0.821024962172679  0.6763689451663738  1.0000
  C   C112      1.0  0.5243204753937076  0.32102572298396126  0.8236304232148371  1.0000
  C   C113      1.0  0.4799398861540567  0.16385915156322992  0.2561037183161972  1.0000
  C   C114      1.0  0.5200573383859106  0.6638600997799317  0.24389342396978725  1.0000
  C   C115      1.0  0.5200575624617301  0.8361416788234025  0.7438967109219945  1.0000
  C   C116      1.0  0.4799474038843811  0.3361413082529126  0.7561029912091968  1.0000
  C   C117      1.0  0.17337722165972017  0.4570691074286515  0.6670229293619416  1.0000
  C   C118      1.0  0.826646239807836  0.95707229502969  0.8329842527379798  1.0000
  C   C119      1.0  0.826622960753589  0.542933455926999  0.3329756797096621  1.0000
  C   C120      1.0  0.1733530538588539  0.0429233364365373  0.16702033725876936  1.0000
  C   C121      1.0  0.9674373640237731  0.4990863843135145  0.6822362436982561  1.0000
  C   C122      1.0  0.0325785072859901  0.9990886404739144  0.8177643955770508  1.0000
  C   C123      1.0  0.0325637282699205  0.5009098248039051  0.3177614227614214  1.0000
  C   C124      1.0  0.9674244321437228  0.0009104569335107996  0.18223793547513623  1.0000
  C   C125      1.0  0.0196370907297663  0.36018106570931974  0.6821832932811915  1.0000
  C   C126      1.0  0.9803832685704491  0.8601815406126789  0.8178170244154331  1.0000
  C   C127      1.0  0.9803703958953918  0.6398186093469675  0.31781382088870913  1.0000
  C   C128      1.0  0.0196187462322257  0.13981755679424174  0.1821827224250612  1.0000
  S   S1        1.0  0.6764152337510652  0.44158484310910506  0.5156701592986864  1.0000
  S   S2        1.0  0.3235854370335288  0.9415825447504107  0.9843278303030304  1.0000
  S   S3        1.0  0.32358311628500747  0.5584171425902298  0.48432731200290396  1.0000
  S   S4        1.0  0.6764156658036383  0.05841481968433732  0.0156723553154308  1.0000
  N   N1        1.0  0.1890046656920319  0.3586729992578483  0.418885206181713  1.0000
  N   N2        1.0  0.8109914169149589  0.8586712818547682  0.08111859525315171  1.0000
  N   N3        1.0  0.8109946195180269  0.6413289864435896  0.5811173684900411  1.0000
  N   N4        1.0  0.1890087802779377  0.1413266602402174  0.9188835406390085  1.0000
  N   N5        1.0  0.5421198225546531  0.1212284755002955  0.21544941702102702  1.0000
  N   N6        1.0  0.4578767395766404  0.6212290529021305  0.2845466286221311  1.0000
  N   N7        1.0  0.4578776197260338  0.878774665516822  0.784549500722733  1.0000
  N   N8        1.0  0.5421307470450499  0.3787717774698862  0.7154504855480895  1.0000
  N   N9        1.0  0.059195205785648915  0.43985216362812457  0.6775083551540035  1.0000
  N   N10       1.0  0.9408228576833435  0.9398510100075798  0.8224943963088833  1.0000
  N   N11       1.0  0.9408086245191353  0.5601475114325467  0.3224884988029544  1.0000
  N   N12       1.0  0.05918282398664589  0.06014808739656271  0.1775081299030035  1.0000
  O   O1        1.0  0.3908478720726548  0.3380868362347442  0.5460056372242548  1.0000
  O   O2        1.0  0.609158000904621  0.8380837882600218  0.953995138714518  1.0000
  O   O3        1.0  0.6091532328600379  0.6619151494632264  0.4539950522271993  1.0000
  O   O4        1.0  0.3908440202244846  0.16191588680571561  0.046006119621218006  1.0000
  O   O5        1.0  0.42046359253392745  0.24091372639550457  0.4759029715917508  1.0000
  O   O6        1.0  0.5795304420224311  0.740911934365208  0.024097545601840405  1.0000
  O   O7        1.0  0.5795366109784722  0.7590871039897564  0.5241006757963051  1.0000
  O   O8        1.0  0.4204679185744595  0.2590854300728226  0.9759024448569207  1.0000
  O   O9        1.0  0.5469758801065366  0.04514726414747369  0.8069121428095443  1.0000
  O   O10       1.0  0.4530262583029269  0.5451471587965031  0.693086063074027  1.0000
  O   O11       1.0  0.4530297931258929  0.9548518332553829  0.19308836807557841  1.0000
  O   O12       1.0  0.5469684459735973  0.4548502056459114  0.30691366717179863  1.0000
  O   O13       1.0  0.4113952248439006  0.1370256639908973  0.8303525476835534  1.0000
  O   O14       1.0  0.5886145909174729  0.637019414576038  0.6696467990750608  1.0000
  O   O15       1.0  0.5886077166952005  0.8629734334168476  0.16965028720033362  1.0000
  O   O16       1.0  0.4113810253245518  0.36297968283855664  0.3303524923927839  1.0000
  O   O17       1.0  0.2547795573883036  0.40742450922496704  0.6631404216640463  1.0000
  O   O18       1.0  0.745236893658699  0.9074238608059844  0.8368672198097046  1.0000
  O   O19       1.0  0.74522703202841  0.5925763211507018  0.3368606581064882  1.0000
  O   O20       1.0  0.2547715302463658  0.09257696956845511  0.1631355015623726  1.0000
  O   O21       1.0  0.6053332388925554  0.37624891717251074  0.4816617629297967  1.0000
  O   O22       1.0  0.3946663734409767  0.8762475778780116  0.018337270265511997  1.0000
  O   O23       1.0  0.39466785971543317  0.6237519132087714  0.5183374150262523  1.0000
  O   O24       1.0  0.6053347357226286  0.12375036421556021  0.9816644268481909  1.0000
  O   O25       1.0  0.599134391187789  0.48027938325936514  0.565651285804421  1.0000
  O   O26       1.0  0.4008669677397946  0.9802779838402316  0.934348302062844  1.0000
  O   O27       1.0  0.4008612060610588  0.5197226024416609  0.4343434711789982  1.0000
  O   O28       1.0  0.5991350512885844  0.019718802935869896  0.0656524524403821  1.0000
  O   O29       1.0  0.7918875263550119  0.4153515468904629  0.5531670860060487  1.0000
  O   O30       1.0  0.20811513427223355  0.9153494878901967  0.9468320266423762  1.0000
  O   O31       1.0  0.20810809409018555  0.5846527494455316  0.4468332131266521  1.0000
  O   O32       1.0  0.7918859727819836  0.08464845420305518  0.053169166639634106  1.0000
  O   O33       1.0  0.6973634202286831  0.502025704098493  0.46443513861746766  1.0000
  O   O34       1.0  0.3026338700768108  0.0020237593211688996  0.03556386311359461  1.0000
  O   O35       1.0  0.3026358460020688  0.4979745486264805  0.5355629015685608  1.0000
  O   O36       1.0  0.6973672327551552  0.9979753380871657  0.9644363225053497  1.0000
