data_image0
_chemical_formula_structural       Ni4H32C36N12O16
_chemical_formula_sum              "Ni4 H32 C36 N12 O16"
_cell_length_a       7.402371056724611
_cell_length_b       14.028203234328876
_cell_length_c       14.028174672806468
_cell_angle_alpha    97.32523877837814
_cell_angle_beta     101.88573171853119
_cell_angle_gamma    101.88558206813897

_space_group_name_H-M_alt    "P 1"
_space_group_IT_number       1

loop_
  _space_group_symop_operation_xyz
  'x, y, z'

loop_
  _atom_site_type_symbol
  _atom_site_label
  _atom_site_symmetry_multiplicity
  _atom_site_fract_x
  _atom_site_fract_y
  _atom_site_fract_z
  _atom_site_occupancy
  Ni  Ni1       1.0  0.7500009528264758  0.4123372694555273  0.5876628831759093  1.0000
  Ni  Ni2       1.0  0.24999820319614227  0.5876637732041842  0.412336482648179  1.0000
  Ni  Ni3       1.0  0.500000749888031  0.9999993868626549  7.396579846594074e-07  1.0000
  Ni  Ni4       1.0  0.9999975669356048  0.9999985792416408  5.929716877924019e-07  1.0000
  H   H1        1.0  0.12389947955770708  0.48629883656066397  0.6069307748778314  1.0000
  H   H2        1.0  0.37610279471408614  0.393069295755943  0.5137028531878515  1.0000
  H   H3        1.0  0.876101056872294  0.513702213388683  0.3930680273014319  1.0000
  H   H4        1.0  0.6238963595783602  0.6069317506216406  0.48629580008231  1.0000
  H   H5        1.0  0.05528147172558559  0.40159967087380005  0.514039355320243  1.0000
  H   H6        1.0  0.44472357794380474  0.4859614507886151  0.59840077184343  1.0000
  H   H7        1.0  0.9447201150437369  0.5984006387329331  0.48596017410850584  1.0000
  H   H8        1.0  0.5552752445504087  0.5140388516745916  0.40159845976712927  1.0000
  H   H9        1.0  0.9651178856884076  0.9544453829961341  0.7883178283816934  1.0000
  H   H10       1.0  0.5348852733204695  0.21168134306311265  0.045553310495307614  1.0000
  H   H11       1.0  0.0348833727430318  0.04555417526047729  0.21168370449527882  1.0000
  H   H12       1.0  0.4651142625243311  0.7883174862967337  0.9544450890433753  1.0000
  H   H13       1.0  0.9055881495674075  0.8077290208474894  0.6523671031700147  1.0000
  H   H14       1.0  0.5944093768240252  0.3476306508121425  0.19226995328853044  1.0000
  H   H15       1.0  0.09441205679453193  0.1922712814696084  0.34763298990355207  1.0000
  H   H16       1.0  0.40558667793473563  0.652369651943289  0.8077275553959993  1.0000
  H   H17       1.0  0.8596285766189453  0.6208546940275494  0.8708686207815647  1.0000
  H   H18       1.0  0.6403715135928323  0.1291303183411969  0.3791459412440831  1.0000
  H   H19       1.0  0.14037129448442445  0.3791448718109223  0.12913062552456722  1.0000
  H   H20       1.0  0.35962659728097185  0.8708714535075046  0.6208548349922581  1.0000
  H   H21       1.0  0.9126060155718394  0.7742715865324213  0.997403397004213  1.0000
  H   H22       1.0  0.5873927396772205  0.0025964437918517998  0.22572825177309142  1.0000
  H   H23       1.0  0.0873945723424612  0.22572649876693868  0.0025964423378753063  1.0000
  H   H24       1.0  0.41260608800751436  0.9974038475177379  0.7742731174992131  1.0000
  H   H25       1.0  0.6007502106793581  0.3916856514525123  0.7634361749317551  1.0000
  H   H26       1.0  0.8992616105096902  0.23656640792396635  0.608318008627869  1.0000
  H   H27       1.0  0.3992499904920664  0.6083146620182092  0.23656178048005938  1.0000
  H   H28       1.0  0.10074169365575616  0.7634346417331558  0.3916825164774239  1.0000
  H   H29       1.0  0.5888039673459604  0.27339664189850765  0.8840713600733283  1.0000
  H   H30       1.0  0.9111966508007399  0.11592925511111218  0.7266035401385624  1.0000
  H   H31       1.0  0.41119280422373095  0.726602180317812  0.11592674164716509  1.0000
  H   H32       1.0  0.08880698689310398  0.8840725347425147  0.2733971191802524  1.0000
  C   C1        1.0  0.9410770693455961  0.8792169796383149  0.8031290189081092  1.0000
  C   C2        1.0  0.5589243735001688  0.1968702795682944  0.12078216058755233  1.0000
  C   C3        1.0  0.05892280521811702  0.12078257876440551  0.19687165250584834  1.0000
  C   C4        1.0  0.4410754993333725  0.8031292825522982  0.8792177982724925  1.0000
  C   C5        1.0  0.9082257162579098  0.7982191840993025  0.7283988764186519  1.0000
  C   C6        1.0  0.5917725174783613  0.27159988036908084  0.20177883594564613  1.0000
  C   C7        1.0  0.09177587397175563  0.2017811180716862  0.27160207811792964  1.0000
  C   C8        1.0  0.4082245910800779  0.7283996746079993  0.798220825096209  1.0000
  C   C9        1.0  0.8793519082636154  0.7033176672378757  0.7517318936365173  1.0000
  C   C10       1.0  0.6206455217028903  0.24826621725240725  0.2966819742911825  1.0000
  C   C11       1.0  0.12064829636815945  0.2966826387970941  0.24826748688313677  1.0000
  C   C12       1.0  0.379351918653775  0.751734081639043  0.7033171084102748  1.0000
  C   C13       1.0  0.8819778215711126  0.6938302263350238  0.8500893889169634  1.0000
  C   C14       1.0  0.6180211774247654  0.14990920233462657  0.30616920726464514  1.0000
  C   C15       1.0  0.11802171600385948  0.3061685993069431  0.14990972317563234  1.0000
  C   C16       1.0  0.38197593113367406  0.8500903526424468  0.6938304537772029  1.0000
  C   C17       1.0  0.9124188159090494  0.7786809218244032  0.9202966600452529  1.0000
  C   C18       1.0  0.5875820213017846  0.07970263600247308  0.22131904589357992  1.0000
  C   C19       1.0  0.0875807233961012  0.22131790009969168  0.07970316460126273  1.0000
  C   C20       1.0  0.4124178532619284  0.9202969224002544  0.7786816255203775  1.0000
  C   C21       1.0  0.8445673709585225  0.6150125575339728  0.671699580290465  1.0000
  C   C22       1.0  0.6554322295908508  0.3282995119104939  0.3849876620626703  1.0000
  C   C23       1.0  0.1554331689318218  0.38498848497962973  0.32830064699663813  1.0000
  C   C24       1.0  0.3445669247015958  0.6717015344670898  0.6150109912074984  1.0000
  C   C25       1.0  0.6664299057260052  0.3291112753894084  0.7582988350021225  1.0000
  C   C26       1.0  0.8335817343662627  0.2417029334199299  0.6708909004184137  1.0000
  C   C27       1.0  0.33357101744686457  0.6708875463885774  0.2417018511074077  1.0000
  C   C28       1.0  0.1664240005458879  0.758297383184214  0.3291097882915467  1.0000
  C   C29       1.0  0.6623579337940911  0.2642369766261794  0.8252203543425766  1.0000
  C   C30       1.0  0.8376465193696137  0.17477932111316358  0.7357627143983905  1.0000
  C   C31       1.0  0.3376405534415596  0.7357625893584084  0.1747780305005406  1.0000
  C   C32       1.0  0.16235816693338742  0.825221732115722  0.26423795961599694  1.0000
  C   C33       1.0  0.75000038562078  0.18554142614572558  0.8144575171541464  1.0000
  C   C34       1.0  0.2500008693503163  0.8144581395466375  0.1855425906149933  1.0000
  C   C35       1.0  0.7499983103959311  0.1140298697370099  0.8859694906805233  1.0000
  C   C36       1.0  0.25000051555862524  0.8859704252904522  0.11403116603786866  1.0000
  N   N1        1.0  0.9428838678751177  0.8702401823235562  0.8977082152700151  1.0000
  N   N2        1.0  0.5571165489106279  0.1022917284158353  0.12975869529623205  1.0000
  N   N3        1.0  0.057115339631799614  0.1297578956861685  0.10229218771688413  1.0000
  N   N4        1.0  0.44288299212469445  0.8977070897903872  0.8702418419042035  1.0000
  N   N5        1.0  0.7500070365144182  0.3176234553092244  0.6823775417321514  1.0000
  N   N6        1.0  0.24999593239245854  0.6823768578692722  0.31762213660569943  1.0000
  N   N7        1.0  0.25000104709501164  0.04744413730264799  0.9525561820744601  1.0000
  N   N8        1.0  0.7500005963491321  0.9525531965004813  0.047446522178859085  1.0000
  N   N9        1.0  0.2500001805124654  0.10484556048334782  0.8951534571083641  1.0000
  N   N10       1.0  0.749999475602664  0.8951473023977884  0.10485414229512464  1.0000
  N   N11       1.0  0.24999935397825374  0.1603244320993369  0.839672966029717  1.0000
  N   N12       1.0  0.7500012391265687  0.8396736420464066  0.16032901097411675  1.0000
  O   O1        1.0  0.028270983910474046  0.4230978856828925  0.5786743274502799  1.0000
  O   O2        1.0  0.4717318534771664  0.4213258884241498  0.5769037289646236  1.0000
  O   O3        1.0  0.9717285056405416  0.5769038971733168  0.42132517258733065  1.0000
  O   O4        1.0  0.5282669690170536  0.5786744140390637  0.42309550264593554  1.0000
  O   O5        1.0  0.8274333793414145  0.5309217491314441  0.6989793944420982  1.0000
  O   O6        1.0  0.6725701508588244  0.3010190822432861  0.46907960778281693  1.0000
  O   O7        1.0  0.17256854095631272  0.4690793006717869  0.30102026920017994  1.0000
  O   O8        1.0  0.3274307173694029  0.6989827116204311  0.5309186160560558  1.0000
  O   O9        1.0  0.8331596415555609  0.6289703635705378  0.5830224698601327  1.0000
  O   O10       1.0  0.6668362947124964  0.4169748103760966  0.37103099996488725  1.0000
  O   O11       1.0  0.16684122667265908  0.37103143029318625  0.4169757539787399  1.0000
  O   O12       1.0  0.33316180751045027  0.5830269800619733  0.6289662135018761  1.0000
  O   O13       1.0  0.6304422288089387  0.1132912636772829  0.9390298329912883  1.0000
  O   O14       1.0  0.8695542042453398  0.0609711794415873  0.8867090070825726  1.0000
  O   O15       1.0  0.36955797755300074  0.8867090386398147  0.06097026008227865  1.0000
  O   O16       1.0  0.13044529049619064  0.9390305922609983  0.11329263061678324  1.0000
