data_image0
_chemical_formula_structural       Hg2H20C44N12O4F12
_chemical_formula_sum              "Hg2 H20 C44 N12 O4 F12"
_cell_length_a       8.13293913700416
_cell_length_b       10.546343704814538
_cell_length_c       12.58372547283763
_cell_angle_alpha    99.16707048177555
_cell_angle_beta     90.00006362619571
_cell_angle_gamma    89.9998961055343

_space_group_name_H-M_alt    "P 1"
_space_group_IT_number       1

loop_
  _space_group_symop_operation_xyz
  'x, y, z'

loop_
  _atom_site_type_symbol
  _atom_site_label
  _atom_site_symmetry_multiplicity
  _atom_site_fract_x
  _atom_site_fract_y
  _atom_site_fract_z
  _atom_site_occupancy
  Hg  Hg1       1.0  2.6927388320000013e-07  0.5000003787640068  0.999998792170949  1.0000
  Hg  Hg2       1.0  0.499998894311247  0.999999980373865  7.067319537752397e-08  1.0000
  H   H1        1.0  0.049944588399164  0.6169875100866592  0.30602190633779  1.0000
  H   H2        1.0  0.549944662438847  0.8830127807866438  0.6939793677048345  1.0000
  H   H3        1.0  0.9500552076165507  0.38301236399674826  0.6939791142055399  1.0000
  H   H4        1.0  0.4500563631453359  0.11698709241304069  0.3060224473978295  1.0000
  H   H5        1.0  0.11245811729906312  0.8328832145185247  0.4161904209414473  1.0000
  H   H6        1.0  0.6124572751178974  0.6671169951104902  0.58381009298909  1.0000
  H   H7        1.0  0.8875416787159764  0.16711666044779613  0.5838098050428826  1.0000
  H   H8        1.0  0.38754252089681535  0.3328838394354676  0.41619105652566185  1.0000
  H   H9        1.0  0.190338526942206  0.9846922863741912  0.13543715974785903  1.0000
  H   H10       1.0  0.6903385130986451  0.5153068613584325  0.8645624735673465  1.0000
  H   H11       1.0  0.8096624986406268  0.015307588591319603  0.8645630662368049  1.0000
  H   H12       1.0  0.3096612829170766  0.48469301272497495  0.13543854697598331  1.0000
  H   H13       1.0  0.3353978323985061  0.43685316412828007  0.6193107821731374  1.0000
  H   H14       1.0  0.8354005751195858  0.06314260194551481  0.3806894058057182  1.0000
  H   H15       1.0  0.6646031931812928  0.563147673948521  0.3806871891059559  1.0000
  H   H16       1.0  0.164600450465251  0.936855352094895  0.6193105622361089  1.0000
  H   H17       1.0  0.29921915573845587  0.475186857163287  0.8201110311080627  1.0000
  H   H18       1.0  0.7992204169082484  0.024812798291797805  0.1798896528203358  1.0000
  H   H19       1.0  0.700778181138304  0.5248130213362999  0.17988601663959267  1.0000
  H   H20       1.0  0.2007793791064643  0.9751880362541601  0.8201114966944162  1.0000
  C   C1        1.0  0.0807537403058447  0.6995518957129293  0.2676861204829635  1.0000
  C   C2        1.0  0.5807540707541535  0.8004483555672693  0.7323143759776656  1.0000
  C   C3        1.0  0.9192460557091949  0.30044797925339145  0.7323141055013664  1.0000
  C   C4        1.0  0.41924695482902763  0.19955247809496518  0.26768756809642724  1.0000
  C   C5        1.0  0.1156881329536574  0.8194314369062354  0.3283841049741767  1.0000
  C   C6        1.0  0.6156874086313947  0.6805687684792333  0.6716164107362488  1.0000
  C   C7        1.0  0.8843116630613892  0.1805684380600852  0.6716161210101533  1.0000
  C   C8        1.0  0.3843123873833179  0.31943206606672453  0.328384738778503  1.0000
  C   C9        1.0  0.1602388357506541  0.9025785698534465  0.17450655383922253  1.0000
  C   C10       1.0  0.6602397948638483  0.5974215778848729  0.8254931918616818  1.0000
  C   C11       1.0  0.8397609602643854  0.09742130511287435  0.8254936721451145  1.0000
  C   C12       1.0  0.3397600011518662  0.40257829619853425  0.17450782868164794  1.0000
  C   C13       1.0  0.12926365085247232  0.782258514699379  0.11257806361916074  1.0000
  C   C14       1.0  0.6292644362371008  0.7177407132704801  0.887421536041849  1.0000
  C   C15       1.0  0.8707349155951079  0.21774040068810768  0.8874212388344134  1.0000
  C   C16       1.0  0.37073658934640724  0.2822591608121172  0.11257948450182202  1.0000
  C   C17       1.0  0.15151713362913444  0.7664021728832541  0.9922620308958869  1.0000
  C   C18       1.0  0.6515151596125788  0.7335999072403184  0.007737967941089627  1.0000
  C   C19       1.0  0.8484838919530162  0.23359770296517018  0.007737400529784116  1.0000
  C   C20       1.0  0.3484834068353493  0.26639996684389194  0.9922630526019064  1.0000
  C   C21       1.0  0.1339097311256694  0.633695792032306  0.8207832885522565  1.0000
  C   C22       1.0  0.6339089701850041  0.8663034289518168  0.1792171082274835  1.0000
  C   C23       1.0  0.8660876057497547  0.3663060065094613  0.1792148116972427  1.0000
  C   C24       1.0  0.3660895962646009  0.13369548378693  0.8207845779030835  1.0000
  C   C25       1.0  0.0509235991754693  0.709194884142349  0.7557495877133107  1.0000
  C   C26       1.0  0.5509218940165895  0.7908044458663002  0.24425076333787396  1.0000
  C   C27       1.0  0.9490774264036546  0.29080595481736543  0.2442475890067826  1.0000
  C   C28       1.0  0.44907667243301574  0.2091944668724467  0.755750922792693  1.0000
  C   C29       1.0  0.0652098802912775  0.6852001621647191  0.6439968654767086  1.0000
  C   C30       1.0  0.565210768339206  0.8147972290312924  0.3560024409455949  1.0000
  C   C31       1.0  0.9347911452888482  0.31479971633244475  0.3560001822719627  1.0000
  C   C32       1.0  0.43479025724798964  0.1851997627807478  0.6439989872428101  1.0000
  C   C33       1.0  0.167458352390419  0.586389711482717  0.5960750785490063  1.0000
  C   C34       1.0  0.6674615519210645  0.9136065840363092  0.4039249498040293  1.0000
  C   C35       1.0  0.8325426731887122  0.41361112747699746  0.4039220981710798  1.0000
  C   C36       1.0  0.3325407032322403  0.08639136912038481  0.5960758127971317  1.0000
  C   C37       1.0  0.2535011867052646  0.5116265819800748  0.6583888846529647  1.0000
  C   C38       1.0  0.7535041072090607  0.9883695996165404  0.3416119856716477  1.0000
  C   C39       1.0  0.7464998388748826  0.4883752147934502  0.34161080471555033  1.0000
  C   C40       1.0  0.24649814794491928  0.011628352657240302  0.6583895714885202  1.0000
  C   C41       1.0  0.23566022571383632  0.5350287194407884  0.7700453448038901  1.0000
  C   C42       1.0  0.7356593222314345  0.9649703669847369  0.22995590260293142  1.0000
  C   C43       1.0  0.7643358815961534  0.46497211687341183  0.2299542155918459  1.0000
  C   C44       1.0  0.2643367850815892  0.035029506218180004  0.7700459124983823  1.0000
  N   N1        1.0  0.0875999031564234  0.681778099269259  0.16022241339456403  1.0000
  N   N2        1.0  0.5876003748128156  0.8182211825540763  0.8397779578671631  1.0000
  N   N3        1.0  0.912399892859618  0.31822081523451123  0.8397776836183439  1.0000
  N   N4        1.0  0.412399421203574  0.18177869064641783  0.16022385723516663  1.0000
  N   N5        1.0  0.15433329123260361  0.921351224657961  0.2821242554405288  1.0000
  N   N6        1.0  0.6543328816250806  0.5786489299568133  0.7178762815648343  1.0000
  N   N7        1.0  0.845666504781434  0.07864961077090271  0.7178760995152231  1.0000
  N   N8        1.0  0.34566691438963204  0.4213519045891444  0.2821248679499249  1.0000
  N   N9        1.0  0.10951517993475332  0.6526106983858001  0.9335250936727988  1.0000
  N   N10       1.0  0.609514271471987  0.8473895151095691  0.06647541863605974  1.0000
  N   N11       1.0  0.8904846160779272  0.3473901388088977  0.06647367216495331  1.0000
  N   N12       1.0  0.3904830654098319  0.15260939762998765  0.933526267494166  1.0000
  O   O1        1.0  0.2120990287009334  0.8579934907350621  0.952937140294722  1.0000
  O   O2        1.0  0.7120997928322909  0.6420056266431404  0.04706409412950315  1.0000
  O   O3        1.0  0.7879019968808976  0.14200734469299905  0.04706321466137101  1.0000
  O   O4        1.0  0.2879012327502082  0.35799520790200756  0.9529370553855898  1.0000
  F   F1        1.0  0.9497486464467501  0.8048780508442591  0.8000826312995957  1.0000
  F   F2        1.0  0.449748211240852  0.6951217174313344  0.19991647937207097  1.0000
  F   F3        1.0  0.050251149566605605  0.1951227854675253  0.19991692909715653  1.0000
  F   F4        1.0  0.5502528143412988  0.30487815841708976  0.8000829520536001  1.0000
  F   F5        1.0  0.9795126648235026  0.7570365489843882  0.5826199142125859  1.0000
  F   F6        1.0  0.47951494698221353  0.7429612583786067  0.4173797494770072  1.0000
  F   F7        1.0  0.020484672053257203  0.24296332951519165  0.41737713353506933  1.0000
  F   F8        1.0  0.5204873081724416  0.2570366930122603  0.5826226022421537  1.0000
  F   F9        1.0  0.18106468130903858  0.5654754445399919  0.4871033456495297  1.0000
  F   F10       1.0  0.6810704764669281  0.93451795171422  0.5128963032875262  1.0000
  F   F11       1.0  0.8189326555660443  0.43452539530505163  0.5128930365105475  1.0000
  F   F12       1.0  0.318933008255847  0.06547904009620713  0.4871051249015537  1.0000
