data_image0
_chemical_formula_structural       Zn2H14C34N2O10
_chemical_formula_sum              "Zn2 H14 C34 N2 O10"
_cell_length_a       11.010046891080934
_cell_length_b       14.849322502690509
_cell_length_c       16.19250002097191
_cell_angle_alpha    89.49482959499916
_cell_angle_beta     90.08038648717717
_cell_angle_gamma    90.16408101505746

_space_group_name_H-M_alt    "P 1"
_space_group_IT_number       1

loop_
  _space_group_symop_operation_xyz
  'x, y, z'

loop_
  _atom_site_type_symbol
  _atom_site_label
  _atom_site_symmetry_multiplicity
  _atom_site_fract_x
  _atom_site_fract_y
  _atom_site_fract_z
  _atom_site_occupancy
  Zn  Zn1       1.0  0.4984225361115619  0.4050611429394949  0.5025210956359487  1.0000
  Zn  Zn2       1.0  0.5005622900515192  0.5943875921481306  0.497640032917289  1.0000
  H   H1        1.0  0.11285256538532448  0.5597795666872257  0.387123661878249  1.0000
  H   H2        1.0  0.886092410889809  0.5590696020805125  0.3868530451955507  1.0000
  H   H3        1.0  0.22512467852940427  0.4393907149117879  0.6524368605688124  1.0000
  H   H4        1.0  0.7735900802188455  0.4377138867515172  0.6516876508431437  1.0000
  H   H5        1.0  0.39528502992780545  0.377318611804057  0.0772814675525879  1.0000
  H   H6        1.0  0.3952413275188604  0.37832712769752425  0.9238209092499545  1.0000
  H   H7        1.0  0.622148160085942  0.6159096214225172  0.923467650517175  1.0000
  H   H8        1.0  0.6212631938025056  0.6152269061315109  0.07721722634983762  1.0000
  H   H9        1.0  0.34217164925630783  0.915843452727252  0.4210582870135013  1.0000
  H   H10       1.0  0.6588311764041778  0.9155259369227479  0.5793362567188609  1.0000
  H   H11       1.0  0.237020719859494  0.3990149696292562  0.7876798425136259  1.0000
  H   H12       1.0  0.7608485883034318  0.3841455417466335  0.7830585149896621  1.0000
  H   H13       1.0  0.34103818732170765  0.0842158550357084  0.4215945533582968  1.0000
  H   H14       1.0  0.6577666581057712  0.0839026738461257  0.5798379067538235  1.0000
  C   C1        1.0  0.5005610629614877  0.4998554464669667  0.3391530231231812  1.0000
  C   C2        1.0  0.5021321465268969  0.4997803544020698  0.6618748433757063  1.0000
  C   C3        1.0  0.5724128555375003  0.5641780703993148  0.9576207548293708  1.0000
  C   C4        1.0  0.5720562638980198  0.5636703802180988  0.0432115689541206  1.0000
  C   C5        1.0  0.5069932064836492  0.49901329839253356  0.8261867714658068  1.0000
  C   C6        1.0  0.5059504606214347  0.496716946795928  0.174828498269008  1.0000
  C   C7        1.0  0.5035243173512924  0.4973467995810665  0.2500760454161721  1.0000
  C   C8        1.0  0.5048619574228752  0.500945130251857  0.7509168210371798  1.0000
  C   C9        1.0  0.4098299125390668  0.046670235177593604  0.4557394038566757  1.0000
  C   C10       1.0  0.5894150256753221  0.0465433905875159  0.5454596891427883  1.0000
  C   C11       1.0  0.4992708068339695  0.09311450526217868  0.5007633297962927  1.0000
  C   C12       1.0  0.5900720524642864  0.9530643800028074  0.5451605374947947  1.0000
  C   C13       1.0  0.41051237920820677  0.9532088204811584  0.45543093280844005  1.0000
  C   C14       1.0  0.5006519679476042  0.9066047645914992  0.5001175027179698  1.0000
  C   C15       1.0  0.4984222664477186  0.18883799491088382  0.5012434491099073  1.0000
  C   C16       1.0  0.5012640814678093  0.8108465055064755  0.4995578790139845  1.0000
  C   C17       1.0  0.26358270990493077  0.5005924175124362  0.5044265312915499  1.0000
  C   C18       1.0  0.7354816913822761  0.49874318288763664  0.5034972650561187  1.0000
  C   C19       1.0  0.12596623721432107  0.4408147143739357  0.6521773980877654  1.0000
  C   C20       1.0  0.8727738506122691  0.4379135905133468  0.6510940868871132  1.0000
  C   C21       1.0  0.0644718547692804  0.4123959851824779  0.7221463512890834  1.0000
  C   C22       1.0  0.934142226645541  0.41317811486161554  0.7222891566769931  1.0000
  C   C23       1.0  0.9342792444866815  0.4672359863234092  0.5784861922757258  1.0000
  C   C24       1.0  0.0646078342189398  0.4690487603311481  0.5791675201306107  1.0000
  C   C25       1.0  0.1274708174251273  0.5013449223374947  0.5080838989120763  1.0000
  C   C26       1.0  0.87155744107001  0.499189732759099  0.5072111511896581  1.0000
  C   C27       1.0  0.06329774498873769  0.5338234854263887  0.44056272766930255  1.0000
  C   C28       1.0  0.9357133591944307  0.533085369399238  0.4402648800448006  1.0000
  C   C29       1.0  0.4447793315300999  0.4299121247599089  0.9576411187136671  1.0000
  C   C30       1.0  0.4446561908300524  0.42936673887057714  0.0432690241280582  1.0000
  C   C31       1.0  0.5083229678845669  0.4975663148840468  0.9135324230283359  1.0000
  C   C32       1.0  0.507804353063584  0.4964363321428138  0.0874249202243647  1.0000
  C   C33       1.0  0.14158385879544258  0.37262838605997933  0.7883300926708331  1.0000
  C   C34       1.0  0.8574924286455072  0.40211601460276103  0.7971875356732525  1.0000
  N   N1        1.0  0.5014958595724508  0.7327448014246657  0.49875900693027825  1.0000
  N   N2        1.0  0.4977513017980044  0.2669322868325991  0.501862134216104  1.0000
  O   O1        1.0  0.4988977241004164  0.4240807387550233  0.3769477520969034  1.0000
  O   O2        1.0  0.4984370243437866  0.42194250074464185  0.6291128368908049  1.0000
  O   O3        1.0  0.4998912784202361  0.5777267808859607  0.37162716578014  1.0000
  O   O4        1.0  0.5037230354803269  0.575645670613646  0.6244343779207284  1.0000
  O   O5        1.0  0.3139795563625539  0.42366270854120097  0.5065015161793625  1.0000
  O   O6        1.0  0.6832257507925519  0.4223272717179682  0.507221533062918  1.0000
  O   O7        1.0  0.31601385633869933  0.5767289367997391  0.4984895692109177  1.0000
  O   O8        1.0  0.6848556531992998  0.5752087734477414  0.49620073632949163  1.0000
  O   O9        1.0  0.111121733632622  0.31276384715594213  0.8363640851190013  1.0000
  O   O10       1.0  0.8901602177174296  0.41699761754543374  0.8679207016649146  1.0000
