data_image0
_chemical_formula_structural       Zn2H32C48Br4N4O12
_chemical_formula_sum              "Zn2 H32 C48 Br4 N4 O12"
_cell_length_a       8.769575846617249
_cell_length_b       11.400077615250051
_cell_length_c       13.766500752112071
_cell_angle_alpha    95.18652825572816
_cell_angle_beta     108.57760468603944
_cell_angle_gamma    112.61043822209992

_space_group_name_H-M_alt    "P 1"
_space_group_IT_number       1

loop_
  _space_group_symop_operation_xyz
  'x, y, z'

loop_
  _atom_site_type_symbol
  _atom_site_label
  _atom_site_symmetry_multiplicity
  _atom_site_fract_x
  _atom_site_fract_y
  _atom_site_fract_z
  _atom_site_occupancy
  Zn  Zn1       1.0  0.3561733311606474  0.24993365739275222  0.2500589194019796  1.0000
  Zn  Zn2       1.0  0.6438329579769116  0.7500654650674791  0.7499458950776869  1.0000
  H   H1        1.0  0.1024860136802273  0.7323270629481656  0.6565584856201453  1.0000
  H   H2        1.0  0.21395852479167127  0.767339328867813  0.8436040506686807  1.0000
  H   H3        1.0  0.8975102389186561  0.267679044304039  0.34345145577731273  1.0000
  H   H4        1.0  0.7860420966190914  0.23267015437697583  0.15639006731078808  1.0000
  H   H5        1.0  0.3076905674552888  0.8559020289784627  0.575720526298248  1.0000
  H   H6        1.0  0.3766437130570424  0.6440658242308004  0.9247628644104253  1.0000
  H   H7        1.0  0.6923146159082804  0.144107165025261  0.4242944873602139  1.0000
  H   H8        1.0  0.623355274885931  0.3559376126514949  0.07522502416045278  1.0000
  H   H9        1.0  0.923514742358428  0.6078634092260773  0.2674883523399387  1.0000
  H   H10       1.0  0.5482190224268139  0.892478484679714  0.23280367273897434  1.0000
  H   H11       1.0  0.07650923403296873  0.3921476117735879  0.7325230274175069  1.0000
  H   H12       1.0  0.45178895932979657  0.10751631499159232  0.7671880887068241  1.0000
  H   H13       1.0  0.9939067578532956  0.0381284662526298  0.21103889725328873  1.0000
  H   H14       1.0  0.24514580838184225  0.4621879265318897  0.28899403979988136  1.0000
  H   H15       1.0  0.006085303483835939  0.9618760190177369  0.7889512544336269  1.0000
  H   H16       1.0  0.7548737605937886  0.5378138125084747  0.7110015100705381  1.0000
  H   H17       1.0  0.8333166335066408  0.9168977074568972  0.3140444335996904  1.0000
  H   H18       1.0  0.10262002677414733  0.583290758466113  0.1859152545521852  1.0000
  H   H19       1.0  0.16665144652779415  0.08309179897607782  0.6859342832598045  1.0000
  H   H20       1.0  0.8973869035889025  0.41670331204713323  0.814083966974067  1.0000
  H   H21       1.0  0.29700658374601124  0.1663167751720778  0.5972078822091618  1.0000
  H   H22       1.0  0.03414041374782785  0.33384623190264057  0.9028589471319748  1.0000
  H   H23       1.0  0.7029491431779887  0.8336653366235255  0.4027828641806933  1.0000
  H   H24       1.0  0.9658255066854765  0.6661359704082062  0.09713458355940925  1.0000
  H   H25       1.0  0.44196178161167404  0.27016690108855107  0.4810837064207901  1.0000
  H   H26       1.0  0.19121135592675387  0.22998641687637195  0.01905991717733709  1.0000
  H   H27       1.0  0.5580229097416095  0.7298185431900351  0.5189196542891921  1.0000
  H   H28       1.0  0.8087840266942833  0.770008406595757  0.9809325428288104  1.0000
  H   H29       1.0  0.673332098905874  0.47219976115656703  0.49455768197498884  1.0000
  H   H30       1.0  0.2063160703934912  0.0275705054569997  0.005283928205734881  1.0000
  H   H31       1.0  0.3266666445081937  0.5278040466669297  0.5054415246545076  1.0000
  H   H32       1.0  0.7937033306057656  0.9724412964945517  0.9947215595045903  1.0000
  C   C1        1.0  0.8466688528797661  0.5677827989827338  0.39795074169776967  1.0000
  C   C2        1.0  0.3807671350395764  0.9321584772399591  0.10211865534596841  1.0000
  C   C3        1.0  0.15334257248944982  0.43222406106306727  0.6020524918371777  1.0000
  C   C4        1.0  0.6192389056713806  0.0678423709725706  0.8978793941359411  1.0000
  C   C5        1.0  0.8950204455082015  0.6039648086929504  0.5085385601424192  1.0000
  C   C6        1.0  0.28250975690514946  0.8958887185418977  0.9915008072242701  1.0000
  C   C7        1.0  0.10498062701172031  0.3960401466661595  0.491465955243534  1.0000
  C   C8        1.0  0.717491038781155  0.10411503966650322  0.008496889999420856  1.0000
  C   C9        1.0  0.06295176213981768  0.7068239435075939  0.5711880801181691  1.0000
  C   C10       1.0  0.28509772614697937  0.7929876927504296  0.9290190592014155  1.0000
  C   C11       1.0  0.9370489459560999  0.2931763071275526  0.4288214349838526  1.0000
  C   C12       1.0  0.7149011766070713  0.2070179292445147  0.07097608127553909  1.0000
  C   C13       1.0  0.1784366106609807  0.776334483268471  0.5253747621557919  1.0000
  C   C14       1.0  0.3771290660374972  0.7236479665897805  0.9750037312585887  1.0000
  C   C15       1.0  0.8215701493242306  0.22366395747006604  0.4746389631826203  1.0000
  C   C16       1.0  0.6228672654511413  0.2763516176749761  0.02498544114867224  1.0000
  C   C17       1.0  0.12709868839530009  0.7421457085510784  0.4157617204924904  1.0000
  C   C18       1.0  0.46973774026446335  0.7580875124442344  0.08461065493415276  1.0000
  C   C19       1.0  0.8729218964267035  0.2578586663299732  0.584254836848956  1.0000
  C   C20       1.0  0.5302596378147797  0.24190141560677605  0.9153801893371566  1.0000
  C   C21       1.0  0.9646326585161235  0.6382000605401431  0.35262397616620683  1.0000
  C   C22       1.0  0.47397026905448286  0.8619852388700479  0.14763030335999613  1.0000
  C   C23       1.0  0.03538767787927819  0.3618060400932067  0.6473858161774828  1.0000
  C   C24       1.0  0.5260316584113555  0.13800567801196453  0.8523618138216662  1.0000
  C   C25       1.0  0.6764136950466907  0.45462555661568177  0.3287900460411207  1.0000
  C   C26       1.0  0.39230008610737604  0.045198035794364  0.17116281708191383  1.0000
  C   C27       1.0  0.32359874227120133  0.5453852940818962  0.6712161119084711  1.0000
  C   C28       1.0  0.6077207779175922  0.9548022751016281  0.8288485810499253  1.0000
  C   C29       1.0  0.05692611576886717  0.06217343096741252  0.2969526843510976  1.0000
  C   C30       1.0  0.1982494652507327  0.43810428105351235  0.20309592665533668  1.0000
  C   C31       1.0  0.9430625453303563  0.9378253314453037  0.7030411052075536  1.0000
  C   C32       1.0  0.8017692116713204  0.5618985430002398  0.7969030171429949  1.0000
  C   C33       1.0  0.966627562584186  0.9962943094618738  0.3562713646546952  1.0000
  C   C34       1.0  0.11440949227610989  0.5039083671571163  0.1437276294229122  1.0000
  C   C35       1.0  0.033347618363762974  0.003699377368320699  0.6437160797325987  1.0000
  C   C36       1.0  0.8855995842487445  0.4960934991890938  0.8562717819033168  1.0000
  C   C37       1.0  0.047410134834009805  0.03225708162654681  0.46703677490102535  1.0000
  C   C38       1.0  0.048383815701541266  0.46785289484034115  0.03295101353174349  1.0000
  C   C39       1.0  0.9525630025102102  0.9677357315577739  0.5329537186043395  1.0000
  C   C40       1.0  0.9516067272599572  0.5321392343609049  0.9670483590336403  1.0000
  C   C41       1.0  0.2226790449884177  0.13281581799156328  0.5121566176739023  1.0000
  C   C42       1.0  0.07832057606498204  0.36742011342003184  0.9879002093118315  1.0000
  C   C43       1.0  0.7772936167052009  0.8671662915426597  0.4878340969172256  1.0000
  C   C44       1.0  0.9216614809739383  0.6325710170908749  0.012098382714533779  1.0000
  C   C45       1.0  0.3056113601519357  0.19294437947553436  0.4477562207233063  1.0000
  C   C46       1.0  0.16551147562737603  0.3073017479508097  0.05236756315053269  1.0000
  C   C47       1.0  0.6943702607133914  0.8070437397132224  0.5522396192933314  1.0000
  C   C48       1.0  0.8344871999026751  0.6926914446417315  0.9476345634099417  1.0000
  Br  Br1       1.0  0.2827487512842524  0.8417802104343439  0.3525948293654508  1.0000
  Br  Br2       1.0  0.5893753359585007  0.6587436761991515  0.1479815130735886  1.0000
  Br  Br3       1.0  0.71727646820964  0.15825682963006935  0.6474379831791167  1.0000
  Br  Br4       1.0  0.41062235843136813  0.3412541413305163  0.8520131762644994  1.0000
  N   N1        1.0  0.22385591733335988  0.16022497840246794  0.3417317276870691  1.0000
  N   N2        1.0  0.22238555144975442  0.3400136815493938  0.1583769410002276  1.0000
  N   N3        1.0  0.7761391490091823  0.8397719094126685  0.6582642986519075  1.0000
  N   N4        1.0  0.7776234793310549  0.6599871084157344  0.8416193377369865  1.0000
  O   O1        1.0  0.6395023584952497  0.4137226639014315  0.2329555078549603  1.0000
  O   O2        1.0  0.49173349686888196  0.08607522620006594  0.2670635195611482  1.0000
  O   O3        1.0  0.36051428829454574  0.5862897486172828  0.7670388928291842  1.0000
  O   O4        1.0  0.5082543477598023  0.9138996653697905  0.7329446759083565  1.0000
  O   O5        1.0  0.5637556303017419  0.3973315984667708  0.3730433923351058  1.0000
  O   O6        1.0  0.29261492547268375  0.10238115418096778  0.1267748256488161  1.0000
  O   O7        1.0  0.4362554960938851  0.6026645255784473  0.626959075557572  1.0000
  O   O8        1.0  0.7074241409015939  0.8976384974108388  0.8732325321799407  1.0000
  O   O9        1.0  0.7832648816021786  0.5408877475250692  0.5550763338985973  1.0000
  O   O10       1.0  0.18732709753425794  0.9589340105942058  0.9448166308600889  1.0000
  O   O11       1.0  0.2167333231123364  0.45911708061083806  0.44492429320274596  1.0000
  O   O12       1.0  0.8126699927056364  0.041070858524499  0.05518524430818414  1.0000
