data_image0
_chemical_formula_structural       MnH22C24N14O6
_chemical_formula_sum              "Mn1 H22 C24 N14 O6"
_cell_length_a       7.396494796366536
_cell_length_b       9.344806479266627
_cell_length_c       11.70968118903117
_cell_angle_alpha    74.26195843654496
_cell_angle_beta     68.54048133839488
_cell_angle_gamma    76.57180522205978

_space_group_name_H-M_alt    "P 1"
_space_group_IT_number       1

loop_
  _space_group_symop_operation_xyz
  'x, y, z'

loop_
  _atom_site_type_symbol
  _atom_site_label
  _atom_site_symmetry_multiplicity
  _atom_site_fract_x
  _atom_site_fract_y
  _atom_site_fract_z
  _atom_site_occupancy
  Mn  Mn1       1.0  0.4999990992391973  0.49999732583025036  9.146237557064477e-08  1.0000
  H   H1        1.0  0.15715708315050136  0.6148823924627322  0.15790035438595135  1.0000
  H   H2        1.0  0.842843814668484  0.385117051058721  0.8420987915355125  1.0000
  H   H3        1.0  0.08285144025963125  0.6258860787706837  0.046134654492490795  1.0000
  H   H4        1.0  0.9171443196076081  0.3741068650273505  0.9538674413198078  1.0000
  H   H5        1.0  0.9330450382767169  0.20376542710144463  0.15396635225238237  1.0000
  H   H6        1.0  0.06694913853075243  0.7962275476433975  0.8460368763431985  1.0000
  H   H7        1.0  0.1265248659441625  0.0665233344017437  0.08519209654475897  1.0000
  H   H8        1.0  0.873473546432038  0.9334705624320208  0.9148102141758937  1.0000
  H   H9        1.0  0.9850201878806144  0.3597729545912216  0.49584850951995907  1.0000
  H   H10       1.0  0.014984652615851234  0.6402319690754723  0.5041472255928594  1.0000
  H   H11       1.0  0.16413355415951264  0.2630115018554449  0.8099053091924656  1.0000
  H   H12       1.0  0.8358716544888197  0.7370023289988836  0.1900887411386805  1.0000
  H   H13       1.0  0.3308447417797781  0.008723456238115506  0.7646469542164382  1.0000
  H   H14       1.0  0.6691431883594775  0.9912819502259891  0.2353576944172033  1.0000
  H   H15       1.0  0.5704541936913471  0.2513351019186771  0.24979012938347717  1.0000
  H   H16       1.0  0.429545424269392  0.7486586571813588  0.7502137088753356  1.0000
  H   H17       1.0  0.591249304188651  0.2510838978243157  0.45430699442309197  1.0000
  H   H18       1.0  0.40875571368426494  0.748915274878513  0.5456931870175975  1.0000
  H   H19       1.0  0.40426133598885633  0.7338646507491972  0.379947202619334  1.0000
  H   H20       1.0  0.5957454113894586  0.2661322119786718  0.620053092504939  1.0000
  H   H21       1.0  0.41058251023415704  0.713525827792317  0.17395685617285028  1.0000
  H   H22       1.0  0.5894201274005013  0.2864701484422696  0.8260434700525392  1.0000
  C   C1        1.0  0.2082372995978261  0.2892746584467929  0.04152870621331322  1.0000
  C   C2        1.0  0.7917595194083233  0.710720426645672  0.9584736706702796  1.0000
  C   C3        1.0  0.09077557384106434  0.1625491927422757  0.13071952404225579  1.0000
  C   C4        1.0  0.9092184565207762  0.8374460610307181  0.8692824580864594  1.0000
  C   C5        1.0  0.17436243482529787  0.1012148317659083  0.41412511121244205  1.0000
  C   C6        1.0  0.8256323824047486  0.8987848067340348  0.5858767922945205  1.0000
  C   C7        1.0  0.16463838030100666  0.14242008136616138  0.5281933134905612  1.0000
  C   C8        1.0  0.8353632940759114  0.8575849041941411  0.47180468718880736  1.0000
  C   C9        1.0  0.06301503442782061  0.28230103779304727  0.5568160613991607  1.0000
  C   C10       1.0  0.9369911168577116  0.7177060983593578  0.4431781812373216  1.0000
  C   C11       1.0  0.159615442847624  0.2274778302990086  0.7296867855458087  1.0000
  C   C12       1.0  0.8403942736401503  0.7725346792117236  0.27030670660345624  1.0000
  C   C13       1.0  0.254585556804102  0.08698843009315742  0.7030892821548631  1.0000
  C   C14       1.0  0.7454155833416748  0.9130198850202829  0.29690906575874726  1.0000
  C   C15       1.0  0.5383577791237287  0.3569473327727976  0.2812284463975487  1.0000
  C   C16       1.0  0.46163875730144344  0.6430511530640857  0.7187725041726549  1.0000
  C   C17       1.0  0.5472553252086244  0.3578979713916937  0.39782051679851077  1.0000
  C   C18       1.0  0.4527487593504631  0.6420990956123448  0.602178496797073  1.0000
  C   C19       1.0  0.49840978289216764  0.494808372410695  0.4383211556365366  1.0000
  C   C20       1.0  0.5015984217208429  0.5051884237747329  0.561678893478266  1.0000
  C   C21       1.0  0.44539037398840264  0.6236723267723647  0.35580113069264735  1.0000
  C   C22       1.0  0.554619025898873  0.37632548899124163  0.6441993793399802  1.0000
  C   C23       1.0  0.44605397259257973  0.6127563134730918  0.23979431031025203  1.0000
  C   C24       1.0  0.553949996451699  0.3872395606234064  0.760206656679479  1.0000
  N   N1        1.0  0.08412345198539839  0.1884676133560816  0.33306065362684467  1.0000
  N   N2        1.0  0.9158704422410867  0.8115287621331787  0.6669411486553399  1.0000
  N   N3        1.0  0.1379955653195708  0.1080900447087316  0.2455717611744034  1.0000
  N   N4        1.0  0.8619996603165347  0.8919062286424404  0.7544306818721294  1.0000
  N   N5        1.0  0.25543876581630803  0.9789850264658639  0.2673882541820161  1.0000
  N   N6        1.0  0.7445591123287516  0.021012199921038602  0.7326144037728708  1.0000
  N   N7        1.0  0.27884980918511826  0.9727450125715931  0.37500785515881313  1.0000
  N   N8        1.0  0.721146339454542  0.02725452379026901  0.6249946891124977  1.0000
  N   N9        1.0  0.2571343215893124  0.04253878366502312  0.6032261683125808  1.0000
  N   N10       1.0  0.7428627294333623  0.9574663303313287  0.3967743439428162  1.0000
  N   N11       1.0  0.058879334447816234  0.3244340115534072  0.6582326431597777  1.0000
  N   N12       1.0  0.9411323631955213  0.6755762591736385  0.3417591891254474  1.0000
  N   N13       1.0  0.4903024286221792  0.4815806946805878  0.20177821918263564  1.0000
  N   N14       1.0  0.5096958373083923  0.5184154811813357  0.7982228450711586  1.0000
  O   O1        1.0  0.3629729914102669  0.2992837657837271  0.060296426013557884  1.0000
  O   O2        1.0  0.6370257984411652  0.7007102378369582  0.93970322438566  1.0000
  O   O3        1.0  0.14012348028546043  0.36868369222840164  0.956821314307042  1.0000
  O   O4        1.0  0.8598713472548524  0.6313147889596422  0.043181655820255654  1.0000
  O   O5        1.0  0.2019917665689306  0.6324615229712903  0.06618827632309629  1.0000
  O   O6        1.0  0.7980068871471532  0.3675336023656541  0.9338111942295907  1.0000
