data_image0
_chemical_formula_structural       Zn8H37C70N8O26F13
_chemical_formula_sum              "Zn8 H37 C70 N8 O26 F13"
_cell_length_a       18.330009173371174
_cell_length_b       18.29748517277416
_cell_length_c       18.32747204566945
_cell_angle_alpha    60.748447922249596
_cell_angle_beta     61.01746304865519
_cell_angle_gamma    60.86355224385459

_space_group_name_H-M_alt    "P 1"
_space_group_IT_number       1

loop_
  _space_group_symop_operation_xyz
  'x, y, z'

loop_
  _atom_site_type_symbol
  _atom_site_label
  _atom_site_symmetry_multiplicity
  _atom_site_fract_x
  _atom_site_fract_y
  _atom_site_fract_z
  _atom_site_occupancy
  Zn  Zn1       1.0  0.544512341856809  0.0514797975368921  0.5385609369568269  1.0000
  Zn  Zn2       1.0  0.5474830480532165  0.8720169067021502  0.5422525667772716  1.0000
  Zn  Zn3       1.0  0.5411413403865453  0.041070919822075794  0.370883671688226  1.0000
  Zn  Zn4       1.0  0.3706736269230006  0.04185864555345382  0.5476807645693  1.0000
  Zn  Zn5       1.0  0.9579881495458339  0.45882533505915285  0.9495617289536463  1.0000
  Zn  Zn6       1.0  0.9546224402427654  0.4581562173875895  0.12903243461067843  1.0000
  Zn  Zn7       1.0  0.9635656325388384  0.6301922718455018  0.9551983522004187  1.0000
  Zn  Zn8       1.0  0.12678440585358425  0.45500576207412285  0.9569910975413404  1.0000
  H   H1        1.0  0.9159848406612241  0.4103440942450051  0.6761724294078842  1.0000
  H   H2        1.0  0.04164957695339664  0.8628250358117031  0.8241243041630707  1.0000
  H   H3        1.0  0.17969626755448329  0.8953631128698875  0.8413042030442593  1.0000
  H   H4        1.0  0.7026068697410963  0.9116708788313518  0.18592526231366654  1.0000
  H   H5        1.0  0.7055937315764851  0.5521427691728747  0.3628822288296402  1.0000
  H   H6        1.0  0.8342911496825635  0.8223551886906648  0.7677403686708638  1.0000
  H   H7        1.0  0.833177398000096  0.536762157225901  0.7547918298541914  1.0000
  H   H8        1.0  0.456505738174485  0.3110442963699569  0.6410524164947088  1.0000
  H   H9        1.0  0.7367738548655252  0.5516581505528109  0.8478472679208476  1.0000
  H   H10       1.0  0.7404008484560691  0.6379408820738207  0.6535248574889673  1.0000
  H   H11       1.0  0.6441716766461527  0.6525040152630125  0.7468795961183045  1.0000
  H   H12       1.0  0.07198183495173542  0.3817771456805659  0.6548080290083859  1.0000
  H   H13       1.0  0.19088916303341116  0.20731271301947635  0.6886194270582419  1.0000
  H   H14       1.0  0.03364853707946481  0.21571142136077984  0.9285974856477207  1.0000
  H   H15       1.0  0.740603424248043  0.03667682063790072  0.7167960528302045  1.0000
  H   H16       1.0  0.7403490242089958  0.13980640772711442  0.6460810425863737  1.0000
  H   H17       1.0  0.774773152045839  0.4227925661035315  0.3212756751794002  1.0000
  H   H18       1.0  0.6769441042467719  0.4316390541493575  0.32983838021613104  1.0000
  H   H19       1.0  0.3946184466364997  0.5549087524945123  0.6904460245025843  1.0000
  H   H20       1.0  0.2992459963025241  0.5282403616323208  0.7701072080811995  1.0000
  H   H21       1.0  0.160357093377506  0.0228733696625625  0.7221985943965448  1.0000
  H   H22       1.0  0.11747160194476441  0.9896709134930434  0.6882770550872832  1.0000
  H   H23       1.0  0.7171101840878437  0.1871765254814122  0.17167629856870545  1.0000
  H   H24       1.0  0.8796829054890837  0.504796428163921  0.3724979041680425  1.0000
  H   H25       1.0  0.8138818269443463  0.4443332593064255  0.42972976623333625  1.0000
  H   H26       1.0  0.5931343100447038  0.6035699943805426  0.4756170840837937  1.0000
  H   H27       1.0  0.5870661580817184  0.6788559063948157  0.5072402448205293  1.0000
  H   H28       1.0  0.6507623000725927  0.2819417247576794  0.6525957851743837  1.0000
  H   H29       1.0  0.5976243663508143  0.3339341557371043  0.578424232480131  1.0000
  H   H30       1.0  0.28397697672901506  0.30016553842559557  0.8863668196535881  1.0000
  H   H31       1.0  0.3903866969177728  0.24702709505915277  0.8236627915324488  1.0000
  H   H32       1.0  0.8157190314040365  0.27890621832953844  0.07826465927245614  1.0000
  H   H33       1.0  0.8231965461222758  0.26908487594465663  0.3720905073259358  1.0000
  H   H34       1.0  0.40698184679205707  0.18652957234316864  0.18975634246908152  1.0000
  H   H35       1.0  0.6042075672440675  0.9975797345826366  0.7943388961412263  1.0000
  H   H36       1.0  0.02009995828944258  0.29646031494836933  0.36868190964850794  1.0000
  H   H37       1.0  0.11353537281298999  0.18657406017229056  0.4713341359588695  1.0000
  C   C1        1.0  0.368863937502766  0.8573578860816444  0.6377336539116452  1.0000
  C   C2        1.0  0.3456052013694944  0.21332690148926764  0.736355389867043  1.0000
  C   C3        1.0  0.00944297330479321  0.259355445750991  0.8724831263586236  1.0000
  C   C4        1.0  0.635732197991352  0.14188929438758893  0.3509189792089701  1.0000
  C   C5        1.0  0.9236072390675502  0.27483325993574687  0.8828755054094368  1.0000
  C   C6        1.0  0.8898375719111088  0.32966835883297557  0.8127553034057016  1.0000
  C   C7        1.0  0.9428330312553824  0.3686592639026926  0.7306885418397185  1.0000
  C   C8        1.0  0.02982913481322669  0.3522844098272415  0.7194850508468418  1.0000
  C   C9        1.0  0.06387800189497743  0.298372339507722  0.7899001101744357  1.0000
  C   C10       1.0  0.7150200438540965  0.2350116037517225  0.3284984585295943  1.0000
  C   C11       1.0  0.6943266499363575  0.19731910812084416  0.29366071762743906  1.0000
  C   C12       1.0  0.48934223888183936  0.24215799460118606  0.6746997373286587  1.0000
  C   C13       1.0  0.7318897752761515  0.21490884385448084  0.20177935438326233  1.0000
  C   C14       1.0  0.7872936453345291  0.26673041569168277  0.149173187993881  1.0000
  C   C15       1.0  0.8084679196711235  0.303236008944566  0.18549707842809232  1.0000
  C   C16       1.0  0.651490862723911  0.8731139852536672  0.6231848955034065  1.0000
  C   C17       1.0  0.77061008337418  0.28603225354964923  0.27678770103365474  1.0000
  C   C18       1.0  0.7624736768253014  0.30468518980549675  0.3542574230693557  1.0000
  C   C19       1.0  0.6972257709904994  0.24820061321918271  0.41170149940758427  1.0000
  C   C20       1.0  0.20888634668911982  0.24045506296888425  0.3430025310248934  1.0000
  C   C21       1.0  0.2995827222084912  0.19751374366302346  0.31096087345232337  1.0000
  C   C22       1.0  0.33647845459929454  0.21674974980510342  0.21919755490825563  1.0000
  C   C23       1.0  0.5766687252090607  0.21667247584690594  0.6686167630767414  1.0000
  C   C24       1.0  0.2845599868983513  0.27385658699508053  0.1639832202880099  1.0000
  C   C25       1.0  0.19281521308497665  0.31659024272939007  0.19487938095430477  1.0000
  C   C26       1.0  0.15857907270078905  0.2975217837402226  0.28665311770240703  1.0000
  C   C27       1.0  0.07288177395653155  0.31468137641542165  0.3612589030011788  1.0000
  C   C28       1.0  0.35668275600350796  0.13533503828109159  0.36831562905244647  1.0000
  C   C29       1.0  0.1299842958388737  0.24770876132544117  0.4257713062305084  1.0000
  C   C30       1.0  0.228615777000691  0.8232723896271709  0.7505112718466899  1.0000
  C   C31       1.0  0.31368290126334125  0.7982811818849812  0.6908226625079406  1.0000
  C   C32       1.0  0.3427020792088627  0.7136219776305098  0.6875376660029101  1.0000
  C   C33       1.0  0.29365478632454517  0.6536433504488954  0.7388516956258396  1.0000
  C   C34       1.0  0.6198481907823705  0.12695875771082402  0.7116629029659194  1.0000
  C   C35       1.0  0.20733706835456187  0.6818677799674692  0.7982346444478022  1.0000
  C   C36       1.0  0.17856407531845517  0.7673428473847397  0.8004157237804956  1.0000
  C   C37       1.0  0.10085013795349336  0.8338709650901209  0.8433632352155979  1.0000
  C   C38       1.0  0.15996923049237205  0.8954757557984011  0.7933141448070058  1.0000
  C   C39       1.0  0.7169547911642411  0.7083846203305414  0.34106202013037246  1.0000
  C   C40       1.0  0.635443407790966  0.8577488570364123  0.36500678228819766  1.0000
  C   C41       1.0  0.6914626817137589  0.8008572858936349  0.3080085668177118  1.0000
  C   C42       1.0  0.7198752028209228  0.8398818760598774  0.21586349811349936  1.0000
  C   C43       1.0  0.7707591709094006  0.7877881734805431  0.16136674289069908  1.0000
  C   C44       1.0  0.7959111701920707  0.6941184303886844  0.19321701531068664  1.0000
  C   C45       1.0  0.287230389978852  0.26221581835074664  0.7967994546303881  1.0000
  C   C46       1.0  0.7648943577186315  0.6571221772626076  0.2856684814631051  1.0000
  C   C47       1.0  0.7554709637133145  0.5704670070296205  0.3616827413296304  1.0000
  C   C48       1.0  0.7079778156873998  0.6289108258314968  0.4251909326692525  1.0000
  C   C49       1.0  0.731244551985917  0.7244599110158418  0.7118476244487009  1.0000
  C   C50       1.0  0.7128648654221764  0.8163375617493145  0.6757817607270977  1.0000
  C   C51       1.0  0.7542874599749182  0.847551108330997  0.6975918996318594  1.0000
  C   C52       1.0  0.3645129554757888  0.1401870608806774  0.6384098509304862  1.0000
  C   C53       1.0  0.8052508723763127  0.7933414849165248  0.7532245000789285  1.0000
  C   C54       1.0  0.8196375293759743  0.70141655287798  0.7910078824110512  1.0000
  C   C55       1.0  0.7824729956116129  0.66860635365984  0.767666990721359  1.0000
  C   C56       1.0  0.193557020842853  0.29511491654097444  0.8139826595690347  1.0000
  C   C57       1.0  0.7717085421550395  0.5859013578204185  0.7800156304885486  1.0000
  C   C58       1.0  0.7136870695965242  0.6490678788539413  0.7167271568227772  1.0000
  C   C59       1.0  0.1355318408981248  0.3750270384322434  0.13754348728115662  1.0000
  C   C60       1.0  0.8717172132330829  0.6435392273651034  0.8528287911637091  1.0000
  C   C61       1.0  0.8683969639152453  0.3572162942640276  0.12956562859558543  1.0000
  C   C62       1.0  0.14946614102171207  0.6267809796493822  0.8544448810313335  1.0000
  C   C63       1.0  0.8531650531523953  0.63862476383936  0.13465694460285946  1.0000
  C   C64       1.0  0.5728166179226263  0.06700461500435753  0.7611450302189053  1.0000
  C   C65       1.0  0.13441153257821273  0.35303746188515817  0.8689466938946208  1.0000
  C   C66       1.0  0.48588561842242234  0.09556560299305521  0.7655450271423728  1.0000
  C   C67       1.0  0.15944326840774886  0.27459519995098003  0.7736558243004904  1.0000
  C   C68       1.0  0.4414252595824735  0.1823748730936359  0.7227545912293817  1.0000
  C   C69       1.0  0.2171037320207887  0.2249042399905221  0.7176120344721677  1.0000
  C   C70       1.0  0.30906717081526125  0.19461640500810526  0.6986210092123882  1.0000
  N   N1        1.0  0.7070607517125823  0.10264101789630331  0.7044829806805377  1.0000
  N   N2        1.0  0.7267552386308582  0.393638320714139  0.35669836363043567  1.0000
  N   N3        1.0  0.33009844204862293  0.5740746949695962  0.7262331422059628  1.0000
  N   N4        1.0  0.12180285667896125  0.9862543425114724  0.7433939984498323  1.0000
  N   N5        1.0  0.831350433112739  0.4926389690712583  0.37172057342209525  1.0000
  N   N6        1.0  0.6262913660733957  0.6225463754187006  0.49085784529211174  1.0000
  N   N7        1.0  0.6271516582418496  0.27431801471559686  0.6174433335270633  1.0000
  N   N8        1.0  0.32443120102557543  0.27658456519204583  0.8350899291400534  1.0000
  O   O1        1.0  0.4998716180238036  0.0017471710845811  0.4998380887236775  1.0000
  O   O2        1.0  0.06967964947339307  0.6654339856336549  0.8932300140616218  1.0000
  O   O3        1.0  0.8632624012948965  0.5559305167773729  0.17287643988696308  1.0000
  O   O4        1.0  0.3264218426526498  0.9403201653025022  0.61464619993022  1.0000
  O   O5        1.0  0.1647696662284446  0.35535560482635026  0.9183202525897725  1.0000
  O   O6        1.0  0.8881020084937105  0.677003979977947  0.05320528424207546  1.0000
  O   O7        1.0  0.0562985113887606  0.39988871158041667  0.8648828022994619  1.0000
  O   O8        1.0  0.8910772771030296  0.3792210595220312  0.045920534053351295  1.0000
  O   O9        1.0  0.1826539447739678  0.5439267574027439  0.8613776602715997  1.0000
  O   O10       1.0  0.05270525968716561  0.3909736975955981  0.17840706092830763  1.0000
  O   O11       1.0  0.9030417631211948  0.6807751268198104  0.869213616798987  1.0000
  O   O12       1.0  0.6209302067871861  0.9562789141653525  0.6087215869577347  1.0000
  O   O13       1.0  0.6153987434464697  0.1220813336437203  0.4336480999690194  1.0000
  O   O14       1.0  0.6332576456586239  0.8308169452628816  0.5990031285989941  1.0000
  O   O15       1.0  0.43886184070472484  0.10551471519581672  0.32841374366422105  1.0000
  O   O16       1.0  0.6080441048618824  0.81828702484286  0.44818465680290104  1.0000
  O   O17       1.0  0.3243411041738042  0.10640284450311552  0.628386784127187  1.0000
  O   O18       1.0  0.6184887244375973  0.9411542487495482  0.3258630694885692  1.0000
  O   O19       1.0  0.4461500977927884  0.13194277358210374  0.6012170656840823  1.0000
  O   O20       1.0  0.31776954581534517  0.11797774043386508  0.45138450094955096  1.0000
  O   O21       1.0  0.45197703901897757  0.8207581680882259  0.6215209926787677  1.0000
  O   O22       1.0  0.6115677442265622  0.11920297302466311  0.3124840229666289  1.0000
  O   O23       1.0  0.9984885834974194  0.5004403690747666  0.9997273701842881  1.0000
  O   O24       1.0  0.17347648188877682  0.4030166460654812  0.05471860490600015  1.0000
  O   O25       1.0  0.8798850212662901  0.5614537027508534  0.8843203678415035  1.0000
  O   O26       1.0  0.8915987327626879  0.3764126781228613  0.1717521735878195  1.0000
  F   F1        1.0  0.805113743282213  0.3436697570449567  0.8256728409754994  1.0000
  F   F2        1.0  0.7944123778371476  0.8322895465508683  0.0734682375358985  1.0000
  F   F3        1.0  0.7668009705949004  0.6092709385578063  0.4670803352863685  1.0000
  F   F4        1.0  0.7458995679319004  0.9352120732079354  0.6624864512606973  1.0000
  F   F5        1.0  0.8711484109977832  0.23482724940703292  0.9619949267434291  1.0000
  F   F6        1.0  0.7213288199163869  0.17338102409037498  0.47927900574608623  1.0000
  F   F7        1.0  0.6109189056885853  0.2961439506435894  0.4478056842860454  1.0000
  F   F8        1.0  0.3273594897454686  0.2856158607601103  0.07669522890092398  1.0000
  F   F9        1.0  0.03568102917300555  0.4009931703250589  0.36391994976858627  1.0000
  F   F10       1.0  0.12915075415635607  0.28598348829601866  0.47598786141880806  1.0000
  F   F11       1.0  0.42378684114359544  0.6823047393471384  0.6306701928958203  1.0000
  F   F12       1.0  0.07335958073458225  0.8064247153945702  0.9359530618813987  1.0000
  F   F13       1.0  0.4422834380748384  0.034516987842998496  0.8140169664428069  1.0000
