data_image0
_chemical_formula_structural       Mg6H54C102N18O18
_chemical_formula_sum              "Mg6 H54 C102 N18 O18"
_cell_length_a       6.867321171650849
_cell_length_b       42.0172028253369
_cell_length_c       42.01654053502212
_cell_angle_alpha    119.7054994334431
_cell_angle_beta     93.12390178561803
_cell_angle_gamma    93.12420746496754

_space_group_name_H-M_alt    "P 1"
_space_group_IT_number       1

loop_
  _space_group_symop_operation_xyz
  'x, y, z'

loop_
  _atom_site_type_symbol
  _atom_site_label
  _atom_site_symmetry_multiplicity
  _atom_site_fract_x
  _atom_site_fract_y
  _atom_site_fract_z
  _atom_site_occupancy
  Mg  Mg1       1.0  0.10752839679364738  0.6392546006430994  0.32748361633702683  1.0000
  Mg  Mg2       1.0  0.37404281848022697  0.3603250758926465  0.6714353170808636  1.0000
  Mg  Mg3       1.0  0.7800281730812844  0.6725086396679174  0.3117779246911425  1.0000
  Mg  Mg4       1.0  0.7025629553080676  0.32856033855124883  0.6888864282498659  1.0000
  Mg  Mg5       1.0  0.4682473309049017  0.6882106950783752  0.3607320047557678  1.0000
  Mg  Mg6       1.0  0.01373228939720422  0.311109174900409  0.639667376010884  1.0000
  H   H1        1.0  0.04518006530214093  0.37318776667536485  0.7925797885741731  1.0000
  H   H2        1.0  0.29022451846442726  0.3996825334662688  0.8475937229662945  1.0000
  H   H3        1.0  0.7446875920260326  0.39475918932024  0.7788120573118107  1.0000
  H   H4        1.0  0.9967496030028116  0.4460572591062117  0.876759842891573  1.0000
  H   H5        1.0  0.24437981438161682  0.47620832649840866  0.9321207937610794  1.0000
  H   H6        1.0  0.260297313515416  0.5172675010476554  0.06492373117463053  1.0000
  H   H7        1.0  0.5000030477423962  0.5506425771890164  0.12135590929299407  1.0000
  H   H8        1.0  0.20066625367507407  0.6019137402959774  0.15254103053784016  1.0000
  H   H9        1.0  0.4413237125793473  0.6298484668162062  0.20830111529449616  1.0000
  H   H10       1.0  0.7413292136570179  0.6059690681861556  0.22014814028822374  1.0000
  H   H11       1.0  0.06493294775324206  0.5868473928630638  0.08078981201503428  1.0000
  H   H12       1.0  0.1514080291725934  0.5803236095578586  0.021306009609567477  1.0000
  H   H13       1.0  0.9111726281485915  0.5481341769226091  0.9656250527663985  1.0000
  H   H14       1.0  0.5859789159165772  0.5216877430228237  0.9693128302085724  1.0000
  H   H15       1.0  0.9301298277813644  0.4674900032157652  0.026631906632282248  1.0000
  H   H16       1.0  0.6050357806926314  0.44099788262723666  0.030391466012446244  1.0000
  H   H17       1.0  0.3586637966925821  0.4113241970303038  0.9755634982262222  1.0000
  H   H18       1.0  0.4376896141958966  0.40770785807421117  0.91691008288025  1.0000
  H   H19       1.0  0.2525650349871498  0.2074100812062767  0.5805927327133915  1.0000
  H   H20       1.0  0.4427164007634516  0.15240269838759704  0.552097773331262  1.0000
  H   H21       1.0  0.9659133103078047  0.2212016349967386  0.6159549599622381  1.0000
  H   H22       1.0  0.12001451899405424  0.12324534910165857  0.5692961214243297  1.0000
  H   H23       1.0  0.31240772606966516  0.06790248316087853  0.5440966135871292  1.0000
  H   H24       1.0  0.19535033638140953  0.9350804118143546  0.45234152949677053  1.0000
  H   H25       1.0  0.37866233639690733  0.8786517646750057  0.4292803556851367  1.0000
  H   H26       1.0  0.048248396338046264  0.8474426043024439  0.4493664619116944  1.0000
  H   H27       1.0  0.2330287037945738  0.7916709097349468  0.42154235158366765  1.0000
  H   H28       1.0  0.5212708197487148  0.7798538740913589  0.3858227111453304  1.0000
  H   H29       1.0  0.9841073214272246  0.9192050317565191  0.5060414485703788  1.0000
  H   H30       1.0  0.13011137572701173  0.9786759329850555  0.5590035518642651  1.0000
  H   H31       1.0  0.9456205108315173  0.034366569421820314  0.5825136598256648  1.0000
  H   H32       1.0  0.6166921816400545  0.030689867082777798  0.5523849450267804  1.0000
  H   H33       1.0  0.9033983028925763  0.9733843788977055  0.4408726079549795  1.0000
  H   H34       1.0  0.5746671510153265  0.9696237335564748  0.41061075420729776  1.0000
  H   H35       1.0  0.38310230591203986  0.024447338994768607  0.4357584359404285  1.0000
  H   H36       1.0  0.52080040617232  0.08310086235820084  0.4907906689388781  1.0000
  H   H37       1.0  0.671894015829807  0.4194032497093546  0.6268318927134544  1.0000
  H   H38       1.0  0.8904526911749854  0.44790880033596636  0.6003067220372529  1.0000
  H   H39       1.0  0.3498723212520788  0.3840708859602915  0.6052427236713243  1.0000
  H   H40       1.0  0.5508574337571517  0.43069623925595124  0.5539476268416196  1.0000
  H   H41       1.0  0.7683845809724731  0.45591477889105664  0.5237935118596725  1.0000
  H   H42       1.0  0.7430613892515224  0.5476613169764095  0.4827365283600145  1.0000
  H   H43       1.0  0.9493729142022078  0.5707058206289092  0.44935149670566693  1.0000
  H   H44       1.0  0.5987816886753025  0.5506418942110332  0.3980930776937513  1.0000
  H   H45       1.0  0.8116048500093173  0.5784480798218185  0.37016019211204565  1.0000
  H   H46       1.0  0.13549059783368034  0.614175893691737  0.3940071706791599  1.0000
  H   H47       1.0  0.4781495697077672  0.49395203892748174  0.41315467842775166  1.0000
  H   H48       1.0  0.5711382824337577  0.440981372418179  0.4196704290298642  1.0000
  H   H49       1.0  0.36307485881813056  0.4175017315093613  0.4518643703561054  1.0000
  H   H50       1.0  0.06425405455312476  0.4476139461505682  0.4782936625756874  1.0000
  H   H51       1.0  0.46266435100096726  0.5591349310515954  0.5324938388296659  1.0000
  H   H52       1.0  0.16410093143449725  0.5893798046068783  0.5590054418640592  1.0000
  H   H53       1.0  0.9475156461357346  0.564220497657651  0.5886771614962569  1.0000
  H   H54       1.0  0.0301774262242561  0.5091951880711463  0.5922895473771631  1.0000
  C   C1        1.0  0.10055104821423554  0.3514522395189204  0.7236655577597729  1.0000
  C   C2        1.0  0.25415766423058284  0.36893198281452316  0.7546694028922047  1.0000
  C   C3        1.0  0.1993922449404125  0.37829006200493615  0.7900790227895839  1.0000
  C   C4        1.0  0.3336172221690675  0.3928614532735041  0.8205753007241583  1.0000
  C   C5        1.0  0.5329005122495759  0.3983866268184075  0.8160895019247505  1.0000
  C   C6        1.0  0.5905844844251645  0.39012284923023804  0.7816591769466754  1.0000
  C   C7        1.0  0.45541659344258545  0.3754042080457652  0.7502382947458273  1.0000
  C   C8        1.0  0.7785741445973144  0.4337871713098309  0.9047217470603499  1.0000
  C   C9        1.0  0.9639319887670226  0.4481376377749058  0.9027883834244931  1.0000
  C   C10       1.0  0.10015083090190322  0.46499498745328816  0.9334071540885419  1.0000
  C   C11       1.0  0.05510269792686279  0.4680749596275647  0.9669479132089194  1.0000
  C   C12       1.0  0.45365638682392984  0.5239369639260901  0.02983330302889441  1.0000
  C   C13       1.0  0.4047081433028268  0.528520748422018  0.06376324914641883  1.0000
  C   C14       1.0  0.5364782113349095  0.5471770069890455  0.09495291634724623  1.0000
  C   C15       1.0  0.7216937291921255  0.5616890297873098  0.09316117710110912  1.0000
  C   C16       1.0  0.955969992357936  0.6025042980126261  0.1833677499135433  1.0000
  C   C17       1.0  0.1552672387739379  0.6088638940900921  0.1794675110317456  1.0000
  C   C18       1.0  0.2871154683795824  0.6241825118470958  0.21034623561278212  1.0000
  C   C19       1.0  0.23003297134035725  0.6333515045966608  0.24556036507473777  1.0000
  C   C20       1.0  0.3822276247224893  0.6506760179003025  0.2768340968420091  1.0000
  C   C21       1.0  0.028550482310350893  0.626388553274758  0.24950068600513478  1.0000
  C   C22       1.0  0.895487595960809  0.6111591599895905  0.21773657532953916  1.0000
  C   C23       1.0  0.7764103665813665  0.5581915715869529  0.059123812382118515  1.0000
  C   C24       1.0  0.9612312039027631  0.5728915686574184  0.05631547867710652  1.0000
  C   C25       1.0  0.007909118776247288  0.5692927477158776  0.02321837405148838  1.0000
  C   C26       1.0  0.8720791127857623  0.5509598425693911  0.9916552603830837  1.0000
  C   C27       1.0  0.6913941040199347  0.5362075633637674  0.9934822809005651  1.0000
  C   C28       1.0  0.6389991027918357  0.5394794230859788  0.027068199358630904  1.0000
  C   C29       1.0  0.8702010343990666  0.4524037548112932  0.9697020715408585  1.0000
  C   C30       1.0  0.8217082246288285  0.45414097702833806  0.002851891916989758  1.0000
  C   C31       1.0  0.6411408446605975  0.4393614510638529  0.004697635819908949  1.0000
  C   C32       1.0  0.5017449152059044  0.42246156911733834  0.9736021384624535  1.0000
  C   C33       1.0  0.5443385731475134  0.4204632215186877  0.9409782231654092  1.0000
  C   C34       1.0  0.7286463493534115  0.43534458958665573  0.9381809432827879  1.0000
  C   C35       1.0  0.37692859573057563  0.27632994675551004  0.62778186520341  1.0000
  C   C36       1.0  0.49944727297141617  0.24532329188472363  0.6142611256109944  1.0000
  C   C37       1.0  0.4092688481254783  0.20991567092796976  0.5882071585821436  1.0000
  C   C38       1.0  0.5130676070115  0.17942444696679166  0.5723051875333312  1.0000
  C   C39       1.0  0.7168230744208656  0.18392115735610307  0.5823243691469244  1.0000
  C   C40       1.0  0.8089615764718018  0.21835476719063965  0.6084755143970284  1.0000
  C   C41       1.0  0.705131264702011  0.24975973630527906  0.6251629747970995  1.0000
  C   C42       1.0  0.8739159865067022  0.09529914143486451  0.5290689964494675  1.0000
  C   C43       1.0  0.06121717791461381  0.09721801115460244  0.5453413058891172  1.0000
  C   C44       1.0  0.16691063258667066  0.0666131307094346  0.5315842597297973  1.0000
  C   C45       1.0  0.08830427205619881  0.033067699862719714  0.5011351724708675  1.0000
  C   C46       1.0  0.4238225565264745  0.9701684117291125  0.49411216892131193  1.0000
  C   C47       1.0  0.3409164096757782  0.9362423355826698  0.46475898206234967  1.0000
  C   C48       1.0  0.4415357973113533  0.9050586465229177  0.45221717810957085  1.0000
  C   C49       1.0  0.6284896907179275  0.906838309784128  0.46853631170010607  1.0000
  C   C50       1.0  0.7726917287183499  0.8166362028713439  0.4191272350195733  1.0000
  C   C51       1.0  0.9758866988872942  0.8205252177179505  0.42938435430421873  1.0000
  C   C52       1.0  0.07676849880743232  0.7896296238834426  0.4138330429746304  1.0000
  C   C53       1.0  0.9844699464568905  0.7544221420025822  0.38779596908249664  1.0000
  C   C54       1.0  0.10546124595841651  0.7231567131279493  0.3738486079308245  1.0000
  C   C55       1.0  0.7790463253465562  0.7504918351484237  0.3768942588525234  1.0000
  C   C56       1.0  0.6778322230485615  0.7822642358636926  0.39342104708244097  1.0000
  C   C57       1.0  0.7171878964256637  0.9408681660807972  0.49908539951255176  1.0000
  C   C58       1.0  0.9048684206027107  0.9436807497364091  0.5165864143237544  1.0000
  C   C59       1.0  0.9846409629631552  0.9767646313857271  0.5460741234315732  1.0000
  C   C60       1.0  0.8804433332568352  0.008333984362501204  0.5593200701823449  1.0000
  C   C61       1.0  0.6978985675883679  0.006514701850605302  0.5427459063686086  1.0000
  C   C62       1.0  0.611873074292966  0.9729303573059344  0.5124381936617726  1.0000
  C   C63       1.0  0.90055822900851  0.03032095013772111  0.48272599164284463  1.0000
  C   C64       1.0  0.8188012983661113  0.9971714698914557  0.4513163625391742  1.0000
  C   C65       1.0  0.6364361696059364  0.9953235644593192  0.4346636876306817  1.0000
  C   C66       1.0  0.528199433371519  0.026421173450607703  0.4488482330978627  1.0000
  C   C67       1.0  0.6034365368785402  0.05904101631960403  0.4794693393598806  1.0000
  C   C68       1.0  0.7905380961865447  0.06184479148797099  0.49716384957932286  1.0000
  C   C69       1.0  0.7491420708530968  0.372225208672056  0.6485650169701601  1.0000
  C   C70       1.0  0.8851794678645393  0.38574651125933473  0.6310738558461609  1.0000
  C   C71       1.0  0.821007189418502  0.41180036187724767  0.6217177331422403  1.0000
  C   C72       1.0  0.9406031975052896  0.42770065611865965  0.6071200280124174  1.0000
  C   C73       1.0  0.1343284947204141  0.41769073886475644  0.601595220407482  1.0000
  C   C74       1.0  0.2003983637522425  0.3915444163027786  0.6098811573321683  1.0000
  C   C75       1.0  0.0799439023243026  0.37484597036569783  0.6245954906192139  1.0000
  C   C76       1.0  0.34496105378254094  0.470922084249054  0.5662039631047477  1.0000
  C   C77       1.0  0.5160477790894191  0.45465216609213843  0.5518729927826839  1.0000
  C   C78       1.0  0.6353881565114606  0.468417267071402  0.5350182455868975  1.0000
  C   C79       1.0  0.5871485178359849  0.49885081982689194  0.5319042208670909  1.0000
  C   C80       1.0  0.9297857519847739  0.5059043556251555  0.47606009028205415  1.0000
  C   C81       1.0  0.8762190391606877  0.5352537814820479  0.47148721742534144  1.0000
  C   C82       1.0  0.9893607391241163  0.5477753973992208  0.45282628019373306  1.0000
  C   C83       1.0  0.16007680402024257  0.5314688150709089  0.4383071024042593  1.0000
  C   C84       1.0  0.35354967298684414  0.580876133590671  0.39750486835878  1.0000
  C   C85       1.0  0.5465303056259644  0.5706441642109469  0.39117380166609905  1.0000
  C   C86       1.0  0.6631336865418904  0.5861885829758935  0.37585330228010616  1.0000
  C   C87       1.0  0.5968741271964646  0.6122124281229162  0.3666534133946016  1.0000
  C   C88       1.0  0.7316495045255494  0.6261438108040738  0.3493156746732638  1.0000
  C   C89       1.0  0.40231829693288307  0.6230884180256596  0.37358638734254873  1.0000
  C   C90       1.0  0.2844508826077715  0.6065647484893192  0.3888173474743937  1.0000
  C   C91       1.0  0.21831975290502476  0.5009400666422508  0.4418112139685561  1.0000
  C   C92       1.0  0.38847528717255414  0.4834291601446739  0.4271147369362113  1.0000
  C   C93       1.0  0.43870217526878014  0.4539366052097692  0.43071062441475766  1.0000
  C   C94       1.0  0.3211968988996859  0.4407029707883797  0.4490391321782283  1.0000
  C   C95       1.0  0.15512582672790404  0.45726822064762745  0.46377745446628893  1.0000
  C   C96       1.0  0.09956437997923483  0.487586156409087  0.4605116716099431  1.0000
  C   C97       1.0  0.4178692254998141  0.5172622639367079  0.5475552779021484  1.0000
  C   C98       1.0  0.3676394331814309  0.5486822163556299  0.5458279356766197  1.0000
  C   C99       1.0  0.201920665802682  0.5653220531506522  0.5606372964556954  1.0000
  C   C100      1.0  0.07952721815864562  0.5511383273487668  0.5775577690122872  1.0000
  C   C101      1.0  0.12413731892765181  0.5205101773897669  0.5795441530894935  1.0000
  C   C102      1.0  0.2935081049297709  0.5028181706482471  0.564642178154905  1.0000
  N   N1        1.0  0.6865228792429718  0.4118299301206891  0.8444913246905656  1.0000
  N   N2        1.0  0.6315355259325629  0.4187065795058091  0.8755698030567417  1.0000
  N   N3        1.0  0.1846187826026553  0.48532068992338423  0.9986380447954276  1.0000
  N   N4        1.0  0.32595620725484065  0.5059929167342363  0.9979741651619206  1.0000
  N   N5        1.0  0.8645748569420987  0.5786160875857789  0.12299595924448428  1.0000
  N   N6        1.0  0.8052194091012767  0.5875772699004786  0.15430121901674454  1.0000
  N   N7        1.0  0.8420395300216653  0.15552197863073053  0.5673601559650336  1.0000
  N   N8        1.0  0.7560006583016516  0.12444364690847463  0.5431514136183537  1.0000
  N   N9        1.0  0.18602127689316458  0.0013676772429534003  0.48669253382941235  1.0000
  N   N10       1.0  0.32804236883063703  0.0020320066317865  0.5080256010079793  1.0000
  N   N11       1.0  0.741577692800654  0.8770076590185029  0.4556209989597164  1.0000
  N   N12       1.0  0.65097343229386  0.8456997809228926  0.4332677795989355  1.0000
  N   N13       1.0  0.2745804124536094  0.43264873295513695  0.5881541404321878  1.0000
  N   N14       1.0  0.21285305567871401  0.4568514410569263  0.581271364325218  1.0000
  N   N15       1.0  0.6993472328920092  0.5133039576032914  0.514660201858419  1.0000
  N   N16       1.0  0.8200399056851779  0.49197883129860304  0.4939941517805551  1.0000
  N   N17       1.0  0.2859928454152795  0.5443881731172483  0.4213864400429657  1.0000
  N   N18       1.0  0.2176662500396206  0.5667242873213141  0.4124151142577047  1.0000
  O   O1        1.0  0.5564543631479567  0.6591713316245277  0.27280451331515115  1.0000
  O   O2        1.0  0.3353881139934033  0.6570597685403072  0.3088016366906672  1.0000
  O   O3        1.0  0.959219293595915  0.63372484228929  0.28148166820584924  1.0000
  O   O4        1.0  0.9264472019055889  0.3434196364629047  0.7281565303783851  1.0000
  O   O5        1.0  0.1462012979899826  0.34419217151518217  0.6913733612027144  1.0000
  O   O6        1.0  0.5233756841733168  0.3679091680473193  0.7181096819554682  1.0000
  O   O7        1.0  0.2836805359332646  0.7271876719216834  0.3863860710514544  1.0000
  O   O8        1.0  0.02671693439317854  0.6911949318192685  0.34824099524701085  1.0000
  O   O9        1.0  0.6776737945065605  0.718510995884188  0.3522490782791153  1.0000
  O   O10       1.0  0.1983453731128436  0.271842390391619  0.6152495644746807  1.0000
  O   O11       1.0  0.4548333997300846  0.30861951578078367  0.6528201998312468  1.0000
  O   O12       1.0  0.8051946669718433  0.2818960730063509  0.6497952537159719  1.0000
  O   O13       1.0  0.8973594137875909  0.6136086784289247  0.3408100672880536  1.0000
  O   O14       1.0  0.6784344023228998  0.6517287208191294  0.3429315978686277  1.0000
  O   O15       1.0  0.3255273969660452  0.6477308863679386  0.3662507221138471  1.0000
  O   O16       1.0  0.5831093971483982  0.38475951327886565  0.6566115675227024  1.0000
  O   O17       1.0  0.801999789786912  0.3471794632485371  0.6558092884508895  1.0000
  O   O18       1.0  0.15543467087513121  0.3502048744959439  0.6320830532412104  1.0000
