data_image0
_chemical_formula_structural       Gd2CoH28C16O18
_chemical_formula_sum              "Gd2 Co1 H28 C16 O18"
_cell_length_a       8.843974730922554
_cell_length_b       9.104656687902692
_cell_length_c       10.522511821831465
_cell_angle_alpha    81.69501656612854
_cell_angle_beta     71.42197154384834
_cell_angle_gamma    78.40713153774635

_space_group_name_H-M_alt    "P 1"
_space_group_IT_number       1

loop_
  _space_group_symop_operation_xyz
  'x, y, z'

loop_
  _atom_site_type_symbol
  _atom_site_label
  _atom_site_symmetry_multiplicity
  _atom_site_fract_x
  _atom_site_fract_y
  _atom_site_fract_z
  _atom_site_occupancy
  Gd  Gd1       1.0  0.9102677859091554  0.0704557603479401  0.6896933960588428  1.0000
  Gd  Gd2       1.0  0.08971954762703402  0.929546410461043  0.3103119949197932  1.0000
  Co  Co1       1.0  3.497934457606172e-06  0.9999899111687681  0.9999902208530145  1.0000
  H   H1        1.0  0.825607035103992  0.3528183897844669  0.06680802913820126  1.0000
  H   H2        1.0  0.17441035006762468  0.6471752516758043  0.933196022244907  1.0000
  H   H3        1.0  0.6378222952804362  0.4242271114040647  0.02846420628539902  1.0000
  H   H4        1.0  0.3621847339844989  0.5757873068911507  0.9715204308635421  1.0000
  H   H5        1.0  0.8160613678435237  0.498941853727949  0.9364814707891826  1.0000
  H   H6        1.0  0.18392843383853116  0.5010583009519747  0.06353121205253842  1.0000
  H   H7        1.0  0.7395510678865873  0.7423509373216532  0.10117626705193326  1.0000
  H   H8        1.0  0.26046300065748795  0.2576435038971495  0.8988180150177385  1.0000
  H   H9        1.0  0.5997515570916931  0.7210698381347812  0.014846716427811685  1.0000
  H   H10       1.0  0.40025516359910523  0.278923649129858  0.9851589914252444  1.0000
  H   H11       1.0  0.5620118547596461  0.8806548153578646  0.10279898697098136  1.0000
  H   H12       1.0  0.4379970271896666  0.11934181885516888  0.8971962462578703  1.0000
  H   H13       1.0  0.49174327650579375  0.8694769012922877  0.5778368739049001  1.0000
  H   H14       1.0  0.508258986379779  0.1305143557745296  0.42217307983001023  1.0000
  H   H15       1.0  0.45399249156383087  0.7258130494756755  0.7135070912880083  1.0000
  H   H16       1.0  0.5460053463954252  0.2741826649782483  0.2865033124151353  1.0000
  H   H17       1.0  0.52494108660629  0.8866085589651435  0.7348643061040222  1.0000
  H   H18       1.0  0.4750586911326593  0.11339714409056259  0.2651375736229511  1.0000
  H   H19       1.0  0.19410167766496764  0.3216293686746283  0.2542838991844434  1.0000
  H   H20       1.0  0.8058425174341294  0.678379444473954  0.7457043939040988  1.0000
  H   H21       1.0  0.2705601157317473  0.38722796246048563  0.36984032586612164  1.0000
  H   H22       1.0  0.7294101458841169  0.6127956393904626  0.6301329219338783  1.0000
  H   H23       1.0  0.07940469260380915  0.4742587473224518  0.35600608298370423  1.0000
  H   H24       1.0  0.9205781217061068  0.525754645492796  0.6439988353303648  1.0000
  H   H25       1.0  0.6603914780937997  0.25934072153653887  0.5693962737241379  1.0000
  H   H26       1.0  0.33960830167248446  0.7406639848529863  0.43061050016467567  1.0000
  H   H27       1.0  0.7436635735332613  0.11958304595201238  0.4771148633406669  1.0000
  H   H28       1.0  0.2563546805528532  0.8803956587545085  0.5228806033054454  1.0000
  C   C1        1.0  0.274291055950364  0.9217238347241263  0.7443354935338818  1.0000
  C   C2        1.0  0.7257128978165707  0.07827284508230288  0.2556647326161824  1.0000
  C   C3        1.0  0.7695308975139736  0.39554568902482856  0.9868936732824525  1.0000
  C   C4        1.0  0.23047459113123375  0.6044478096381595  0.013113282800908656  1.0000
  C   C5        1.0  0.6595183081095399  0.8008703454283647  0.042499192558437954  1.0000
  C   C6        1.0  0.34049937381274725  0.19912311628536367  0.9574981545027301  1.0000
  C   C7        1.0  0.8131152628115855  0.28299560489590897  0.8844894122792226  1.0000
  C   C8        1.0  0.1868825561195635  0.7170135360840247  0.1155153151172215  1.0000
  C   C9        1.0  0.7496822802266366  0.886395355553624  0.918609067469312  1.0000
  C   C10       1.0  0.25033140678085886  0.11359931676788189  0.0813938344428564  1.0000
  C   C11       1.0  0.4476455200381507  0.8480418303781645  0.6875364493683236  1.0000
  C   C12       1.0  0.5523538487447013  0.15195269626467928  0.312470895944422  1.0000
  C   C13       1.0  0.16127431069738649  0.3656574807026871  0.3524716096217447  1.0000
  C   C14       1.0  0.8386964867713546  0.6343483998205952  0.6475153980090198  1.0000
  C   C15       1.0  0.08339212752770922  0.2573163070610888  0.46373724643864034  1.0000
  C   C16       1.0  0.9165980037839176  0.7426903554572063  0.5362649361675125  1.0000
  O   O1        1.0  0.18505898327908446  0.9560193357669744  0.6644376463588558  1.0000
  O   O2        1.0  0.8149451305456096  0.043983954590153494  0.33555591059674583  1.0000
  O   O3        1.0  0.032634656469241505  0.2919053402178661  0.5842234228740254  1.0000
  O   O4        1.0  0.9673571348721807  0.708099060788939  0.4157777222227494  1.0000
  O   O5        1.0  0.9037335909907753  0.8866920843590405  0.8931834181677378  1.0000
  O   O6        1.0  0.0962777940106321  0.11330822464367428  0.1068202051724185  1.0000
  O   O7        1.0  0.9442969652631134  0.1840466781969639  0.8726024502269426  1.0000
  O   O8        1.0  0.05570901915142909  0.8159569488565523  0.12740201891193695  1.0000
  O   O9        1.0  0.6791793555849849  0.9588754505289359  0.8352817589102485  1.0000
  O   O10       1.0  0.3208327656926783  0.0411147186849021  0.1647231031440981  1.0000
  O   O11       1.0  0.7294873614553053  0.28604359466440593  0.8062258397391133  1.0000
  O   O12       1.0  0.27052490085201697  0.7139666116261338  0.19376667681407161  1.0000
  O   O13       1.0  0.06474557695886317  0.12845397834180966  0.43826668411867337  1.0000
  O   O14       1.0  0.9352593968889021  0.8715428184566675  0.5617370826024698  1.0000
  O   O15       1.0  0.7128210826394861  0.15505370618801353  0.5705277808083055  1.0000
  O   O16       1.0  0.2871870281273343  0.844947376895149  0.42946511545814303  1.0000
  O   O17       1.0  0.2255768604217819  0.9424220492412871  0.8677257309394976  1.0000
  O   O18       1.0  0.7744131013180321  0.05758471598932151  0.13228028270776804  1.0000
