data_image0
_chemical_formula_structural       Zn2H10C28I8N2O8
_chemical_formula_sum              "Zn2 H10 C28 I8 N2 O8"
_cell_length_a       9.58903464138594
_cell_length_b       11.009577248495429
_cell_length_c       13.442739571778723
_cell_angle_alpha    90.89483990725952
_cell_angle_beta     82.69946187808654
_cell_angle_gamma    75.13167886542577

_space_group_name_H-M_alt    "P 1"
_space_group_IT_number       1

loop_
  _space_group_symop_operation_xyz
  'x, y, z'

loop_
  _atom_site_type_symbol
  _atom_site_label
  _atom_site_symmetry_multiplicity
  _atom_site_fract_x
  _atom_site_fract_y
  _atom_site_fract_z
  _atom_site_occupancy
  Zn  Zn1       1.0  0.8470724982062946  0.5439271207383456  0.46395093522130537  1.0000
  Zn  Zn2       1.0  0.13319080565210586  0.48923697224603296  0.522021929486435  1.0000
  H   H1        1.0  0.16753824429327585  0.848153983897191  0.5076194114796877  1.0000
  H   H2        1.0  0.6078769206150484  0.770037368497995  0.12297346049063407  1.0000
  H   H3        1.0  0.6547242380952059  0.46292854272699896  0.6025552265080235  1.0000
  H   H4        1.0  0.005346731251975733  0.67699394059003  0.8500728998388496  1.0000
  H   H5        1.0  0.29506195689423725  0.5515423644324712  0.21838151710007034  1.0000
  H   H6        1.0  0.5427623745847824  0.42861696974183144  0.7999922920214927  1.0000
  H   H7        1.0  0.8874707907306529  0.12983848117733024  0.5356822914693069  1.0000
  H   H8        1.0  0.37853766906120984  0.5117157457471606  0.6584382554030697  1.0000
  H   H9        1.0  0.39987522979038914  0.45248379626399776  0.4428037404637594  1.0000
  H   H10       1.0  0.6738664981939166  0.5272860685305076  0.7521191036212329  1.0000
  C   C1        1.0  0.9906249312663463  0.2839455908631408  0.5181077052646827  1.0000
  C   C2        1.0  0.6812018852707099  0.6578473408009344  0.9839430758675718  1.0000
  C   C3        1.0  0.6327023306419904  0.590786788426243  0.9093067624817763  1.0000
  C   C4        1.0  0.0942560785470263  0.45681619215401525  0.3044769408121937  1.0000
  C   C5        1.0  0.8185183716676366  0.6860492282165678  0.9612595396115325  1.0000
  C   C6        1.0  0.8993734098457012  0.6574437755307797  0.8669972998852488  1.0000
  C   C7        1.0  0.7124580411997314  0.5700510356059922  0.8127944368995658  1.0000
  C   C8        1.0  0.08827063054368273  0.9221802575630208  0.47572526247675745  1.0000
  C   C9        1.0  0.9843186272644289  0.8816750579079482  0.4363229313544538  1.0000
  C   C10       1.0  0.10538045264856778  0.04920118155392569  0.48294240127446386  1.0000
  C   C11       1.0  0.9937632855042436  0.14871092087170723  0.5160302751247912  1.0000
  C   C12       1.0  0.31011463686805746  0.5060685200821666  0.059571316879925  1.0000
  C   C13       1.0  0.5760700821519295  0.5056271647545714  0.5519689693622923  1.0000
  C   C14       1.0  0.42584109002852705  0.4958929413967325  0.579107566698397  1.0000
  C   C15       1.0  0.9728835615955946  0.7492711279386697  0.45258909866343094  1.0000
  C   C16       1.0  0.9202730526728545  0.5756950906924414  0.6856500317189145  1.0000
  C   C17       1.0  0.15270706766288814  0.43972394362207007  0.19436711804966222  1.0000
  C   C18       1.0  0.842625332567785  0.6031252573663934  0.790911479319476  1.0000
  C   C19       1.0  0.147269492591505  0.3753104823733508  0.021429261648521  1.0000
  C   C20       1.0  0.09879622204937993  0.37355995567873634  0.1238017604187149  1.0000
  C   C21       1.0  0.2542089979058915  0.5043550322334481  0.1613595500037448  1.0000
  C   C22       1.0  0.2653850260356094  0.4295574635279634  0.9871021581318757  1.0000
  C   C23       1.0  0.41871161247152605  0.5745702642607782  0.031410208721013085  1.0000
  C   C24       1.0  0.5049424093779394  0.5447150118212178  0.9362277674726089  1.0000
  C   C25       1.0  0.47020323859387514  0.4591743764753318  0.8696711046278338  1.0000
  C   C26       1.0  0.35568031449295034  0.4056993689769398  0.8909590879795674  1.0000
  C   C27       1.0  0.45391988279987333  0.6681489181819343  0.09271418450168058  1.0000
  C   C28       1.0  0.5825458803887998  0.7020617424834724  0.07303031518448933  1.0000
  I   I1        1.0  0.3616893166608436  0.26568821177058055  0.778375102627578  1.0000
  I   I2        1.0  0.9058340847095536  0.768206179029107  0.07336783651358297  1.0000
  I   I3        1.0  0.8273429144617882  0.9915614261901524  0.3550897663426866  1.0000
  I   I4        1.0  0.3209398171053552  0.06046890919996168  0.4361105978517656  1.0000
  I   I5        1.0  0.49742645171139105  0.6573401276722493  0.3715598929410788  1.0000
  I   I6        1.0  0.02061629494649962  0.31731484944610594  0.922008993954158  1.0000
  I   I7        1.0  0.96191496319144  0.2611248040978963  0.18105436414250414  1.0000
  I   I8        1.0  0.3033472186444682  0.7896210662448054  0.205917626032381  1.0000
  N   N1        1.0  0.6273916332085748  0.5592438832221021  0.4771699687477593  1.0000
  N   N2        1.0  0.3491060682302276  0.4680314131649439  0.5157243204133479  1.0000
  O   O1        1.0  0.8764204146413235  0.35408596631547345  0.4897432700262812  1.0000
  O   O2        1.0  0.09660715477408391  0.3186163503658932  0.5463618900243645  1.0000
  O   O3        1.0  0.9570125147875505  0.501047716803555  0.32448030376272635  1.0000
  O   O4        1.0  0.18556205142853346  0.4335593845091949  0.3663716444568763  1.0000
  O   O5        1.0  0.8509147960879417  0.7269215666333507  0.4462659066396242  1.0000
  O   O6        1.0  0.08743091494810075  0.6721272802850675  0.4738287254000326  1.0000
  O   O7        1.0  0.8390970105209661  0.5686370865873656  0.6189125652670953  1.0000
  O   O8        1.0  0.057657901902061305  0.5590946489621516  0.6695355966723326  1.0000
