data_image0
_chemical_formula_structural       Zn8H128C172N8O48
_chemical_formula_sum              "Zn8 H128 C172 N8 O48"
_cell_length_a       13.93114529803285
_cell_length_b       13.931086876954284
_cell_length_c       31.12872331185481
_cell_angle_alpha    84.90974449018786
_cell_angle_beta     84.90971122228258
_cell_angle_gamma    88.91807173852527

_space_group_name_H-M_alt    "P 1"
_space_group_IT_number       1

loop_
  _space_group_symop_operation_xyz
  'x, y, z'

loop_
  _atom_site_type_symbol
  _atom_site_label
  _atom_site_symmetry_multiplicity
  _atom_site_fract_x
  _atom_site_fract_y
  _atom_site_fract_z
  _atom_site_occupancy
  Zn  Zn1       1.0  0.8053307913826233  0.3950348527959946  0.46932018715102697  1.0000
  Zn  Zn2       1.0  0.8039521891441055  0.19141202971211166  0.48515899905841303  1.0000
  Zn  Zn3       1.0  0.39503418146516384  0.8053290353155447  0.9693188028202967  1.0000
  Zn  Zn4       1.0  0.19141107184793077  0.8039522872745624  0.9851585594542698  1.0000
  Zn  Zn5       1.0  0.6049644485098115  0.1946697022192225  0.030678952342682895  1.0000
  Zn  Zn6       1.0  0.8085890057908287  0.1960485888883525  0.014840981476908193  1.0000
  Zn  Zn7       1.0  0.19467072039455502  0.6049645588646372  0.530681282460293  1.0000
  Zn  Zn8       1.0  0.19604860285878803  0.8085873935735749  0.5148415347952239  1.0000
  H   H1        1.0  0.3158343496305491  0.1626839766233061  0.2850222364364541  1.0000
  H   H2        1.0  0.2179109723839971  0.19059816071433033  0.25219870042848674  1.0000
  H   H3        1.0  0.18755217612869052  0.4430403769556294  0.3262099925038768  1.0000
  H   H4        1.0  0.055585400787833805  0.43515457862141466  0.3865053275333707  1.0000
  H   H5        1.0  0.04470787578726741  0.12856948995758444  0.3850319224722866  1.0000
  H   H6        1.0  0.1750706006177367  0.13385514502876114  0.32492199106202696  1.0000
  H   H7        1.0  0.43379792563951725  0.18762360765179412  0.17234818284060077  1.0000
  H   H8        1.0  0.42068122693193305  0.108877398420347  0.2211855949049024  1.0000
  H   H9        1.0  0.45564753628237753  0.05428134357929082  0.14344790246776987  1.0000
  H   H10       1.0  0.44553406358557635  0.9606620642956402  0.07991804528445809  1.0000
  H   H11       1.0  0.13749235568525361  0.982987342844531  0.09278710664519002  1.0000
  H   H12       1.0  0.14532040184800374  0.07944988042456201  0.15687123833073707  1.0000
  H   H13       1.0  0.24376576001132833  0.30179349890197227  0.1852033737018814  1.0000
  H   H14       1.0  0.2908929292756994  0.39437553444240353  0.21350201638519198  1.0000
  H   H15       1.0  0.20698897361032928  0.4531525474953356  0.1549283838987989  1.0000
  H   H16       1.0  0.17787192089028991  0.5815626880958507  0.0964433142007053  1.0000
  H   H17       1.0  0.4640514068991096  0.5415397777467917  0.0375184114765403  1.0000
  H   H18       1.0  0.49491835443000565  0.4107379927269506  0.0949879999643812  1.0000
  H   H19       1.0  0.4203324393877282  0.35517539519221947  0.2618493423228472  1.0000
  H   H20       1.0  0.4981544820474397  0.31800879984434255  0.2171077392700198  1.0000
  H   H21       1.0  0.551052946501649  0.094329437539038  0.3251506933025894  1.0000
  H   H22       1.0  0.6482157418848615  0.125646223306866  0.3864552784673023  1.0000
  H   H23       1.0  0.6398218205432755  0.42849540115951607  0.34809088159678936  1.0000
  H   H24       1.0  0.5431100992449346  0.39948655940476396  0.2875607025162026  1.0000
  H   H25       1.0  0.8792161245487906  0.5269351010358679  0.5272552133170051  1.0000
  H   H26       1.0  0.8758303712151305  0.703137327695238  0.536533372980422  1.0000
  H   H27       1.0  0.7350549060480206  0.745968238988539  0.4176353678097797  1.0000
  H   H28       1.0  0.744192643253662  0.5682877270548662  0.41393607919609815  1.0000
  H   H29       1.0  0.6713172419612264  0.04965823016738111  0.4570104770317585  1.0000
  H   H30       1.0  0.668035695191648  0.8714245943066247  0.45110477951739364  1.0000
  H   H31       1.0  0.9342447382673386  0.8495845616495359  0.513867797794788  1.0000
  H   H32       1.0  0.9210723502845044  0.0271661265335226  0.5196196612148114  1.0000
  H   H33       1.0  0.16268449080937591  0.31583362369563883  0.7850226374480228  1.0000
  H   H34       1.0  0.19059658566540355  0.21791077289847752  0.7521981727407834  1.0000
  H   H35       1.0  0.44304019249520377  0.18755296257098317  0.8262112383556399  1.0000
  H   H36       1.0  0.43515183133393986  0.05558510064483361  0.8865063700053354  1.0000
  H   H37       1.0  0.1285694239323902  0.04470852669930282  0.8850306354582357  1.0000
  H   H38       1.0  0.13385636613191562  0.17507188252675124  0.8249222610382958  1.0000
  H   H39       1.0  0.18762426026623302  0.43379969052401895  0.6723488209514413  1.0000
  H   H40       1.0  0.10887704155956611  0.42067911209874626  0.7211857976504134  1.0000
  H   H41       1.0  0.054282673087790605  0.4556493114059635  0.6434485463705572  1.0000
  H   H42       1.0  0.9606611523165399  0.445536352308082  0.5799192054054173  1.0000
  H   H43       1.0  0.9829820684414728  0.1374932584475701  0.5927887450306456  1.0000
  H   H44       1.0  0.0794471426529952  0.14532143666308883  0.6568720009869936  1.0000
  H   H45       1.0  0.3017921210489902  0.24376148902159409  0.685204265978207  1.0000
  H   H46       1.0  0.39437641885272984  0.2908927393411957  0.7135016846157073  1.0000
  H   H47       1.0  0.4531496017615738  0.20698710318443864  0.6549282395942697  1.0000
  H   H48       1.0  0.5815624230976298  0.17787026018379493  0.5964439859799101  1.0000
  H   H49       1.0  0.5415446530684349  0.46405183027300745  0.5375195095226387  1.0000
  H   H50       1.0  0.41074078050326085  0.4949189375303931  0.594987923520506  1.0000
  H   H51       1.0  0.35517291605957285  0.4203337023409405  0.761850085592627  1.0000
  H   H52       1.0  0.31800839343308956  0.4981562697851132  0.7171074405685259  1.0000
  H   H53       1.0  0.0943298957072756  0.5510559334434575  0.8251510142560718  1.0000
  H   H54       1.0  0.12564964951280902  0.6482162634119675  0.8864562360303552  1.0000
  H   H55       1.0  0.42849546634545993  0.6398236004927967  0.8480889649529999  1.0000
  H   H56       1.0  0.3994857880363654  0.5431095114097746  0.7875582556263508  1.0000
  H   H57       1.0  0.5269323976710113  0.8792135149445103  0.027254816660949584  1.0000
  H   H58       1.0  0.70313405667914  0.8758302180584112  0.0365331848126758  1.0000
  H   H59       1.0  0.7459683966824571  0.7350590491537049  0.9176339494470582  1.0000
  H   H60       1.0  0.5682880346828513  0.7441945069326652  0.9139344633911078  1.0000
  H   H61       1.0  0.049656275054871905  0.6713191934217521  0.9570074355613869  1.0000
  H   H62       1.0  0.8714232828813594  0.6680374832435021  0.9511028289147276  1.0000
  H   H63       1.0  0.849585458487816  0.9342465025936877  0.013867671723559693  1.0000
  H   H64       1.0  0.027167185740346208  0.9210721866924201  0.019618812955478397  1.0000
  H   H65       1.0  0.837319183368038  0.684165756163772  0.21497842672557246  1.0000
  H   H66       1.0  0.8094034919733561  0.7820901032644373  0.24780136819039464  1.0000
  H   H67       1.0  0.5569627628311481  0.81244642983566  0.17378792624703718  1.0000
  H   H68       1.0  0.5648503906927475  0.9444107002564338  0.1134920017516095  1.0000
  H   H69       1.0  0.8714321038320705  0.9552944905509053  0.11496812107251492  1.0000
  H   H70       1.0  0.8661466078222163  0.8249325539550937  0.1750770247587425  1.0000
  H   H71       1.0  0.812376537146811  0.5662011740138412  0.32765165573741944  1.0000
  H   H72       1.0  0.8911230195410057  0.5793174400002671  0.2788142360461734  1.0000
  H   H73       1.0  0.9457188389971238  0.5443501005620703  0.35655260196968896  1.0000
  H   H74       1.0  0.03933531334718051  0.5544631330431002  0.4200837456790651  1.0000
  H   H75       1.0  0.01701223543748401  0.8625062593196234  0.4072139689493994  1.0000
  H   H76       1.0  0.9205507740596489  0.8546801906975647  0.34312920188383345  1.0000
  H   H77       1.0  0.6982086682488317  0.7562372136380092  0.31479629645782126  1.0000
  H   H78       1.0  0.6056258169424995  0.7091073828574395  0.28649908581552097  1.0000
  H   H79       1.0  0.5468497500126973  0.7930130605961171  0.3450739281434636  1.0000
  H   H80       1.0  0.41843764064344674  0.8221277304008442  0.40355888199160006  1.0000
  H   H81       1.0  0.45846189818109206  0.5359460652153416  0.4624818208646174  1.0000
  H   H82       1.0  0.5892636122820535  0.5050797116148403  0.40501249863777383  1.0000
  H   H83       1.0  0.6448264426635433  0.5796679042287568  0.23815041862494013  1.0000
  H   H84       1.0  0.6819960059933338  0.5018438218418667  0.2828916393406686  1.0000
  H   H85       1.0  0.9056673153719291  0.44894930928746396  0.1748484674029669  1.0000
  H   H86       1.0  0.8743518902383303  0.35179035543169584  0.1135439839438419  1.0000
  H   H87       1.0  0.571504626357367  0.3601808803375092  0.15190882671084444  1.0000
  H   H88       1.0  0.6005128497460888  0.4568913876958547  0.21243973506053487  1.0000
  H   H89       1.0  0.47306405994206113  0.12078309066886563  0.9727453573133928  1.0000
  H   H90       1.0  0.2968616910567334  0.1241692807621817  0.963466902887653  1.0000
  H   H91       1.0  0.2540302509970758  0.26494473153407944  0.08236489072351111  1.0000
  H   H92       1.0  0.4317091580763093  0.25580569203044934  0.0860645758025029  1.0000
  H   H93       1.0  0.9503438077508765  0.32868240582639163  0.042989506618773994  1.0000
  H   H94       1.0  0.12857608371382412  0.3319655670375072  0.04889504796943808  1.0000
  H   H95       1.0  0.15041533954070024  0.06575436255895542  0.9861321624231394  1.0000
  H   H96       1.0  0.9728335990705405  0.0789250756371942  0.9803808428320906  1.0000
  H   H97       1.0  0.6841657328028817  0.837318340176985  0.7149778898720953  1.0000
  H   H98       1.0  0.78208981783704  0.8094005428674507  0.7478008981943133  1.0000
  H   H99       1.0  0.8124450226560996  0.5569612638744417  0.6737883469827964  1.0000
  H   H100      1.0  0.9444125213995278  0.56484777213187  0.6134929553153655  1.0000
  H   H101      1.0  0.9552929216257768  0.871431374580276  0.6149685542165743  1.0000
  H   H102      1.0  0.8249301980262658  0.8661457207386721  0.6750772005425177  1.0000
  H   H103      1.0  0.5661999769968489  0.8123736981041035  0.8276509426270167  1.0000
  H   H104      1.0  0.5793174039016763  0.8911220578961405  0.7788140593021565  1.0000
  H   H105      1.0  0.5443496513743754  0.945717414439045  0.856550872619536  1.0000
  H   H106      1.0  0.5544645591328106  0.03933523014259071  0.9200816946697683  1.0000
  H   H107      1.0  0.8625041049406338  0.017009983702322994  0.9072127174756801  1.0000
  H   H108      1.0  0.8546782323061638  0.9205502971328061  0.8431277447517685  1.0000
  H   H109      1.0  0.7562372064430534  0.6982087763164059  0.8147953553001699  1.0000
  H   H110      1.0  0.7091078600221153  0.605623168217207  0.7864985460508364  1.0000
  H   H111      1.0  0.7930147228231591  0.5468525979875383  0.8450718090735307  1.0000
  H   H112      1.0  0.8221310503587704  0.4184410277599114  0.9035560001787175  1.0000
  H   H113      1.0  0.5359508361527007  0.458461787548373  0.962480374163448  1.0000
  H   H114      1.0  0.5050831646037537  0.5892628620302175  0.9050114848556986  1.0000
  H   H115      1.0  0.5796683454231585  0.6448218671373882  0.7381503134647217  1.0000
  H   H116      1.0  0.5018448748938198  0.6819920870214418  0.7828918297167108  1.0000
  H   H117      1.0  0.4489463993115735  0.9056685665150116  0.6748493112847668  1.0000
  H   H118      1.0  0.35178215078984465  0.8743489187264117  0.6135458603739464  1.0000
  H   H119      1.0  0.3601775153082869  0.5715004391719206  0.6519111363642053  1.0000
  H   H120      1.0  0.45689140712209314  0.6005114110037011  0.7124408242599002  1.0000
  H   H121      1.0  0.12079260471593761  0.4730670857929767  0.4727461826803463  1.0000
  H   H122      1.0  0.12417331076976981  0.29686421373503435  0.4634679267170796  1.0000
  H   H123      1.0  0.26494299289547746  0.2540290630786402  0.5823676129107723  1.0000
  H   H124      1.0  0.2558081411849074  0.43171025282690334  0.5860667607198594  1.0000
  H   H125      1.0  0.32868066331563034  0.9503405140741422  0.5429914827107751  1.0000
  H   H126      1.0  0.33196509410617386  0.12857410835297864  0.5488957829186347  1.0000
  H   H127      1.0  0.06575172561452552  0.15041420399773392  0.48613421805884377  1.0000
  H   H128      1.0  0.07892411298188051  0.9728326384989643  0.48038299718098176  1.0000
  C   C1        1.0  0.3558992448706563  0.2520566113126891  0.22609225242621986  1.0000
  C   C2        1.0  0.28269425565774503  0.21944649911598194  0.26402469502106385  1.0000
  C   C3        1.0  0.18808704788501274  0.289597929228279  0.32146465980130046  1.0000
  C   C4        1.0  0.15572531152994884  0.3745824508499637  0.33937839439596473  1.0000
  C   C5        1.0  0.0829424047232692  0.3700170260017543  0.372740923780107  1.0000
  C   C6        1.0  0.0415453864944269  0.28170782549678114  0.38925093056750626  1.0000
  C   C7        1.0  0.07642339842415422  0.19716010292498962  0.3719943883373702  1.0000
  C   C8        1.0  0.1493376875861898  0.20030365258175217  0.33815857794483856  1.0000
  C   C9        1.0  0.9593693461638185  0.2803936564948445  0.4235482495827227  1.0000
  C   C10       1.0  0.38460596713358813  0.16472667978673172  0.2008615071984394  1.0000
  C   C11       1.0  0.30027155350025947  0.07281907789482031  0.15388003287013416  1.0000
  C   C12       1.0  0.3855773908031068  0.038822856462609016  0.13287743526575468  1.0000
  C   C13       1.0  0.37991870230555247  0.9857649223606729  0.09731332715296051  1.0000
  C   C14       1.0  0.2913073253152376  0.9652970360417896  0.08258588058158982  1.0000
  C   C15       1.0  0.20640157617378924  0.9989478022391367  0.1044106384978747  1.0000
  C   C16       1.0  0.21048104465339185  0.05211302451502319  0.13978747771427888  1.0000
  C   C17       1.0  0.28722958177313984  0.9088998402880576  0.04419840755785032  1.0000
  C   C18       1.0  0.3098993362766933  0.3301440541659419  0.19618003557956598  1.0000
  C   C19       1.0  0.35365557908652084  0.42488477813098063  0.12883712613567866  1.0000
  C   C20       1.0  0.26345816677109474  0.4713904848311543  0.12918836306388928  1.0000
  C   C21       1.0  0.24692339131660657  0.5433922373001041  0.09638402367700388  1.0000
  C   C22       1.0  0.3190002619763774  0.5696783915014764  0.0634969681858095  1.0000
  C   C23       1.0  0.4082631866845788  0.5209496198512299  0.06326504076656649  1.0000
  C   C24       1.0  0.42579514460098994  0.4488832679297516  0.09535694701948223  1.0000
  C   C25       1.0  0.304196807279027  0.6514807953424439  0.03015631028384289  1.0000
  C   C26       1.0  0.44433501187691604  0.2936679527095407  0.24359618711667963  1.0000
  C   C27       1.0  0.5399328569292409  0.24451741069278657  0.30302449100825163  1.0000
  C   C28       1.0  0.5707078754792151  0.1672647991218029  0.330776020857698  1.0000
  C   C29       1.0  0.6241939788365869  0.18488466622537206  0.3646285489281452  1.0000
  C   C30       1.0  0.6490656443827804  0.2791893653902733  0.3716541198158438  1.0000
  C   C31       1.0  0.6197730826938327  0.3552862778663199  0.3432253395156549  1.0000
  C   C32       1.0  0.5653333319689295  0.3389117346860147  0.309089832544224  1.0000
  C   C33       1.0  0.7049729666099438  0.2957095742894182  0.4091628987010694  1.0000
  C   C34       1.0  0.8484829008720214  0.5789417181660854  0.5039157640991759  1.0000
  C   C35       1.0  0.8465821653842981  0.677038700868252  0.5085142147027284  1.0000
  C   C36       1.0  0.8049583565584302  0.7403277109718974  0.4776774482424812  1.0000
  C   C37       1.0  0.7670549000366904  0.7006318942596723  0.4430310224052718  1.0000
  C   C38       1.0  0.7722816519725769  0.601688530922985  0.4404888692753772  1.0000
  C   C39       1.0  0.7270290927934939  0.0015089327377139988  0.4694381434175483  1.0000
  C   C40       1.0  0.7268368884385554  0.90289801845384  0.46580237717627426  1.0000
  C   C41       1.0  0.801601431136028  0.8449723058661578  0.4817104180626758  1.0000
  C   C42       1.0  0.8731109216721223  0.8900098774186208  0.5016364196565987  1.0000
  C   C43       1.0  0.8674767662683964  0.9889432844046626  0.5043515119993031  1.0000
  C   C44       1.0  0.2520573565231601  0.3558996532485211  0.7260919465259406  1.0000
  C   C45       1.0  0.21944760813417472  0.282694739714735  0.7640246843836991  1.0000
  C   C46       1.0  0.2895995133094686  0.18808660112317446  0.8214639897045188  1.0000
  C   C47       1.0  0.3745838357688029  0.15572421243629012  0.8393786967760307  1.0000
  C   C48       1.0  0.3700163819060124  0.0829428900826485  0.8727412292462304  1.0000
  C   C49       1.0  0.28170678487882134  0.04154526135318551  0.8892506432911347  1.0000
  C   C50       1.0  0.19715928554963819  0.07642346363977032  0.8719934675757273  1.0000
  C   C51       1.0  0.20030428035445882  0.14933740194492637  0.8381579499997328  1.0000
  C   C52       1.0  0.2803949596455908  0.9593685218972396  0.9235484136791499  1.0000
  C   C53       1.0  0.164725556291387  0.3846043379785727  0.7008613802855878  1.0000
  C   C54       1.0  0.07281795594648341  0.30027170118125934  0.6538811222793016  1.0000
  C   C55       1.0  0.0388210685921777  0.38557922893757285  0.6328788307629621  1.0000
  C   C56       1.0  0.9857610884068752  0.37992075838231193  0.5973155564118428  1.0000
  C   C57       1.0  0.9652911997049075  0.2913094183216671  0.5825888155337252  1.0000
  C   C58       1.0  0.9989406865177771  0.20640189592531752  0.6044123839209091  1.0000
  C   C59       1.0  0.05210957339929931  0.21048216908270237  0.6397889271462346  1.0000
  C   C60       1.0  0.9088954736270695  0.2872341164123426  0.5442002353205949  1.0000
  C   C61       1.0  0.33014232945076577  0.30989989180138644  0.6961794738762564  1.0000
  C   C62       1.0  0.4248838746009157  0.3536530087429313  0.628837287172189  1.0000
  C   C63       1.0  0.47139023443511974  0.2634569416999071  0.6291890586075652  1.0000
  C   C64       1.0  0.5433929503800244  0.24692233191440494  0.5963852983013922  1.0000
  C   C65       1.0  0.5696817115178732  0.3190000171172117  0.5634990810708443  1.0000
  C   C66       1.0  0.5209527072188608  0.4082641252064719  0.5632665028828329  1.0000
  C   C67       1.0  0.4488851817870981  0.4257941522875299  0.5953579083304134  1.0000
  C   C68       1.0  0.6514851043372548  0.30419583283394774  0.5301590349048482  1.0000
  C   C69       1.0  0.29366670289883967  0.4443348060235977  0.7435963155079223  1.0000
  C   C70       1.0  0.24451440958265644  0.539936464838334  0.8030232836418564  1.0000
  C   C71       1.0  0.1672642796789745  0.5707110520136851  0.8307750766524435  1.0000
  C   C72       1.0  0.18488776841980586  0.6241956095449908  0.8646272090634638  1.0000
  C   C73       1.0  0.27919124692231634  0.6490671584227669  0.8716531393035112  1.0000
  C   C74       1.0  0.3552879085882879  0.6197747409882909  0.8432230558547643  1.0000
  C   C75       1.0  0.3389094113592463  0.5653350919158272  0.809088014277684  1.0000
  C   C76       1.0  0.29571394710364984  0.7049714871350544  0.9091619463949882  1.0000
  C   C77       1.0  0.5789406446367168  0.8484840085708213  0.003914817340138705  1.0000
  C   C78       1.0  0.6770359108429745  0.8465837836786252  0.008513936861177686  1.0000
  C   C79       1.0  0.740327328282433  0.8049614531318454  0.9776767511167604  1.0000
  C   C80       1.0  0.7006316436446555  0.7670593259540012  0.9430302679121496  1.0000
  C   C81       1.0  0.601688406669666  0.7722851168894425  0.9404872061358275  1.0000
  C   C82       1.0  0.0015083436388679007  0.7270324830633758  0.9694353344088711  1.0000
  C   C83       1.0  0.9028950674786103  0.7268401393944972  0.9658004393552418  1.0000
  C   C84       1.0  0.8449711404944652  0.8016037153865627  0.9817084760500305  1.0000
  C   C85       1.0  0.8900101048450324  0.8731120655336044  0.0016353592556513001  1.0000
  C   C86       1.0  0.9889437320399852  0.8674776491758608  0.004349788517210069  1.0000
  C   C87       1.0  0.7479441591900484  0.6441004802677741  0.2739082094186855  1.0000
  C   C88       1.0  0.7805553519868482  0.7173060933292916  0.23597506559635653  1.0000
  C   C89       1.0  0.7104034354403481  0.8119106309421794  0.17853365428993578  1.0000
  C   C90       1.0  0.6254198228582198  0.8442701264218473  0.16061903349243775  1.0000
  C   C91       1.0  0.6299858413516335  0.9170529120481921  0.12725585742639817  1.0000
  C   C92       1.0  0.7182954410839032  0.9584512614037383  0.11074641479910946  1.0000
  C   C93       1.0  0.8028422265998503  0.923575230468714  0.12800481790720397  1.0000
  C   C94       1.0  0.7996986758951083  0.8506619913838946  0.16184025078971592  1.0000
  C   C95       1.0  0.7196058338959975  0.0406309029254146  0.07645051381909698  1.0000
  C   C96       1.0  0.835273794931986  0.6153951073276506  0.29913856713699266  1.0000
  C   C97       1.0  0.9271813910331164  0.6997270219619128  0.34612046008106023  1.0000
  C   C98       1.0  0.9611754034049086  0.6144216985879539  0.3671230993435016  1.0000
  C   C99       1.0  0.014232499569260398  0.6200802107251419  0.4026877710011334  1.0000
  C   C100      1.0  0.03470166154809821  0.708690119621707  0.4174152396417341  1.0000
  C   C101      1.0  0.001052173261108201  0.7935969226215392  0.3955904147526255  1.0000
  C   C102      1.0  0.9478876162824791  0.7895180268064763  0.36021332475814916  1.0000
  C   C103      1.0  0.09109955365447321  0.7127661112780646  0.4558024220215202  1.0000
  C   C104      1.0  0.6698577523671859  0.6901024243841222  0.30382129497444765  1.0000
  C   C105      1.0  0.5751190758661836  0.6463456608858708  0.3711641549104243  1.0000
  C   C106      1.0  0.5286127205189147  0.7365431682588833  0.37081329012350744  1.0000
  C   C107      1.0  0.4566114402511234  0.7530763150790776  0.4036173727544324  1.0000
  C   C108      1.0  0.43032411749545224  0.680997887537039  0.4365038837273474  1.0000
  C   C109      1.0  0.47905240410977973  0.5917345110841412  0.43673614011743916  1.0000
  C   C110      1.0  0.5511192127800727  0.5742052165616157  0.40464344905871025  1.0000
  C   C111      1.0  0.34851711971445815  0.6958014059381628  0.46984281366916747  1.0000
  C   C112      1.0  0.70633481010929  0.5556646068666141  0.25640386901908835  1.0000
  C   C113      1.0  0.7554835348607868  0.4600716515384138  0.19697412800561406  1.0000
  C   C114      1.0  0.832735108556797  0.4292977632760114  0.1692225715726181  1.0000
  C   C115      1.0  0.815113779818873  0.37581245362478194  0.13536974103517707  1.0000
  C   C116      1.0  0.7208124654984546  0.3509415926496828  0.12834434058824937  1.0000
  C   C117      1.0  0.6447121958580554  0.38023262326853324  0.15677365766628526  1.0000
  C   C118      1.0  0.6610870838817108  0.4346708842958052  0.19090921795697108  1.0000
  C   C119      1.0  0.7042883113199707  0.29503368313489636  0.09083476870657851  1.0000
  C   C120      1.0  0.42105726217884154  0.15151473720766975  0.9960855360470119  1.0000
  C   C121      1.0  0.32295983388008415  0.15341499420848947  0.9914865006926233  1.0000
  C   C122      1.0  0.25967202626149094  0.19503871341525073  0.022322525181280594  1.0000
  C   C123      1.0  0.2993669916758891  0.2329415706924749  0.0569702929433618  1.0000
  C   C124      1.0  0.39830878516627893  0.2277150811514872  0.059512796871011596  1.0000
  C   C125      1.0  0.9984910259691235  0.272971288151112  0.03056219262183648  1.0000
  C   C126      1.0  0.09710285772157333  0.2731629322922586  0.034197493640021996  1.0000
  C   C127      1.0  0.1550289410803245  0.19839788263200833  0.0182897512144464  1.0000
  C   C128      1.0  0.10999069472218541  0.12688880115601356  0.9983628685356649  1.0000
  C   C129      1.0  0.011055625824489802  0.13252323861210874  0.9956488166562776  1.0000
  C   C130      1.0  0.6441001069681889  0.7479428346083242  0.7739070524542057  1.0000
  C   C131      1.0  0.7173058195836789  0.7805536567282375  0.7359745532214247  1.0000
  C   C132      1.0  0.8119101508997774  0.7104037116017851  0.6785336796853726  1.0000
  C   C133      1.0  0.8442718821524339  0.6254177490353287  0.6606196809844106  1.0000
  C   C134      1.0  0.9170540712744285  0.6299839055198931  0.6272568298023485  1.0000
  C   C135      1.0  0.9584510909773913  0.7182938254213769  0.610748079516874  1.0000
  C   C136      1.0  0.9235759618376563  0.8028415051816751  0.628004509524814  1.0000
  C   C137      1.0  0.8506623933731278  0.7996979448220287  0.6618402918617933  1.0000
  C   C138      1.0  0.040630720346897006  0.7196043368563282  0.5764517269490951  1.0000
  C   C139      1.0  0.6153941026976925  0.8352720348053141  0.7991377982088324  1.0000
  C   C140      1.0  0.6997256281308709  0.927178238256559  0.8461194419241095  1.0000
  C   C141      1.0  0.6144197911357596  0.9611744599961584  0.8671217182574082  1.0000
  C   C142      1.0  0.6200784766204991  0.014231673164616198  0.9026861762236749  1.0000
  C   C143      1.0  0.7086891275031633  0.034698128934209614  0.9174137080153671  1.0000
  C   C144      1.0  0.7935963279366973  0.0010502229132712017  0.8955897434716604  1.0000
  C   C145      1.0  0.7895183038649024  0.9478857001651164  0.8602124982906928  1.0000
  C   C146      1.0  0.7127618201371391  0.09109395774110143  0.9558020771348907  1.0000
  C   C147      1.0  0.6901014698670522  0.669858972864958  0.8038197128199727  1.0000
  C   C148      1.0  0.6463466705418172  0.5751189475054731  0.871163180112525  1.0000
  C   C149      1.0  0.7365455248677222  0.5286132200143429  0.8708112445310618  1.0000
  C   C150      1.0  0.7530788592349538  0.45661148925852774  0.9036153187579643  1.0000
  C   C151      1.0  0.6810012603779398  0.4303231844965652  0.936501845509717  1.0000
  C   C152      1.0  0.5917376143567594  0.4790519662348985  0.9367344435266745  1.0000
  C   C153      1.0  0.5742071032454917  0.5511197380027966  0.9046424239978775  1.0000
  C   C154      1.0  0.6958032592962696  0.3485164801491863  0.9698408033906603  1.0000
  C   C155      1.0  0.5556665044517715  0.7063321814215372  0.7564033262857919  1.0000
  C   C156      1.0  0.46006865398929625  0.7554812821861248  0.6969750795589961  1.0000
  C   C157      1.0  0.4292929060111135  0.8327317419669386  0.6692243060544172  1.0000
  C   C158      1.0  0.3758060792511699  0.8151111649401558  0.635371834621914  1.0000
  C   C159      1.0  0.35093585780504816  0.7208071649955912  0.6283461790407258  1.0000
  C   C160      1.0  0.3802269753939242  0.6447095532992151  0.6567750440344043  1.0000
  C   C161      1.0  0.4346681729239777  0.6610855163259334  0.6909104377299541  1.0000
  C   C162      1.0  0.29502852653944706  0.7042847932960118  0.5908384497159033  1.0000
  C   C163      1.0  0.1515222194950638  0.4210590809249555  0.4960858293406928  1.0000
  C   C164      1.0  0.15342151149818767  0.3229613996172418  0.49148682088847545  1.0000
  C   C165      1.0  0.19504099343398454  0.259671733104753  0.5223237842644152  1.0000
  C   C166      1.0  0.23294372532219404  0.29936683866419145  0.5569715518238709  1.0000
  C   C167      1.0  0.22771913246599246  0.39830944895877723  0.5595139706405873  1.0000
  C   C168      1.0  0.27296808877305523  0.9984891012732082  0.530564194234003  1.0000
  C   C169      1.0  0.27316102286393834  0.09710216765464  0.5341988828593288  1.0000
  C   C170      1.0  0.19839575885347932  0.15502789033041617  0.5182915125706272  1.0000
  C   C171      1.0  0.12688699171996382  0.10999102870115965  0.4983654543387672  1.0000
  C   C172      1.0  0.13252042009282414  0.011056190243642999  0.4956514110296268  1.0000
  N   N1        1.0  0.8117857890563087  0.5416560405193566  0.47047727553098173  1.0000
  N   N2        1.0  0.7964661049050292  0.043987111090743304  0.48816227876056917  1.0000
  N   N3        1.0  0.5416553572312851  0.8117875583356595  0.9704760438611899  1.0000
  N   N4        1.0  0.04398717051731181  0.7964675610495676  0.9881598475217501  1.0000
  N   N5        1.0  0.45834182439984533  0.18820975781571295  0.02952343093305389  1.0000
  N   N6        1.0  0.9560129116729571  0.20353403758378627  0.011837737200572504  1.0000
  N   N7        1.0  0.1882171611030473  0.45834262880205767  0.5295244878227053  1.0000
  N   N8        1.0  0.20353107635378362  0.9560109226127834  0.5118403801620631  1.0000
  O   O1        1.0  0.25727300881459314  0.30141736902835  0.2875239391683663  1.0000
  O   O2        1.0  0.9313792346862615  0.36248657281956304  0.43570394015497266  1.0000
  O   O3        1.0  0.9235283096391883  0.19934048045191596  0.43807778808105263  1.0000
  O   O4        1.0  0.29671792332209895  0.12819968592594932  0.1880684081027724  1.0000
  O   O5        1.0  0.36564781390922013  0.8736525554458583  0.027906283813173588  1.0000
  O   O6        1.0  0.20436480699303422  0.9000011783005776  0.03032164295838409  1.0000
  O   O7        1.0  0.3783118031774535  0.3544818910238164  0.15980918571357708  1.0000
  O   O8        1.0  0.22105890521158503  0.6913390727884235  0.03014270961068629  1.0000
  O   O9        1.0  0.3777663054005985  0.6763296031266111  0.004473277610109985  1.0000
  O   O10       1.0  0.4854020950000121  0.21943067871779934  0.2714267812284347  1.0000
  O   O11       1.0  0.7184139590766918  0.22167552498650883  0.4353262755333773  1.0000
  O   O12       1.0  0.7348210624314718  0.3803942959708381  0.41279391149760875  1.0000
  O   O13       1.0  0.3014167590702074  0.2572726556520236  0.7875230430018051  1.0000
  O   O14       1.0  0.36248647330860717  0.9313786274525101  0.9357034852398058  1.0000
  O   O15       1.0  0.19933950940534123  0.9235275903221379  0.938078047493299  1.0000
  O   O16       1.0  0.1282034088429853  0.2967172671232917  0.6880673978404274  1.0000
  O   O17       1.0  0.8736490603753426  0.365655558750433  0.5279086169063804  1.0000
  O   O18       1.0  0.8999991309379001  0.20437256881209012  0.5303213083697286  1.0000
  O   O19       1.0  0.3544791946717609  0.37831026323559064  0.6598084333162789  1.0000
  O   O20       1.0  0.691339933763402  0.2210569182252087  0.5301449418880823  1.0000
  O   O21       1.0  0.6763354459007475  0.3777674103967359  0.5044758697970123  1.0000
  O   O22       1.0  0.21942912574580486  0.4854041879180573  0.7714258914998097  1.0000
  O   O23       1.0  0.22167943888884173  0.7184137821089466  0.9353259509555159  1.0000
  O   O24       1.0  0.3803981962382467  0.734814944677744  0.9127931495048998  1.0000
  O   O25       1.0  0.6985861920769453  0.7427252967320186  0.21247489368134606  1.0000
  O   O26       1.0  0.6375150367512816  0.06861934664467381  0.06429418628336242  1.0000
  O   O27       1.0  0.8006613039304044  0.07647759766484091  0.06192257897230748  1.0000
  O   O28       1.0  0.8718017082681232  0.7032820928673335  0.3119320038666801  1.0000
  O   O29       1.0  0.1263416553233512  0.6343483353654592  0.47209502967031364  1.0000
  O   O30       1.0  0.10000167760318132  0.7956311785375052  0.46967873271849203  1.0000
  O   O31       1.0  0.6455216030490193  0.6216906016096642  0.3401917221015012  1.0000
  O   O32       1.0  0.30865868895498494  0.7789403762130223  0.46985479806613734  1.0000
  O   O33       1.0  0.3236667949968891  0.6222341527466712  0.4955251647405133  1.0000
  O   O34       1.0  0.7805702453363069  0.5146003026929408  0.22857289203281536  1.0000
  O   O35       1.0  0.7783249864219501  0.2815927966897647  0.064671265356786  1.0000
  O   O36       1.0  0.619606193291098  0.2651822653670735  0.08720508092061147  1.0000
  O   O37       1.0  0.7427241869573892  0.6985835508682428  0.7124747501717791  1.0000
  O   O38       1.0  0.06862083932420403  0.6375135817950836  0.564296593171825  1.0000
  O   O39       1.0  0.07647392978432781  0.8006603632949806  0.5619219899545485  1.0000
  O   O40       1.0  0.7032814204015311  0.8717975981167995  0.8119309825248209  1.0000
  O   O41       1.0  0.6343421309910868  0.12633694084731673  0.9720937859428458  1.0000
  O   O42       1.0  0.795625889219238  0.09999695295839221  0.9696799833798833  1.0000
  O   O43       1.0  0.6216911701612062  0.6455225448432388  0.8401907426256087  1.0000
  O   O44       1.0  0.778941159274119  0.30865748269191323  0.9698537901040538  1.0000
  O   O45       1.0  0.6222344821799339  0.32366766196954433  0.9955234867377599  1.0000
  O   O46       1.0  0.514600857621268  0.7805679930627536  0.728572411956634  1.0000
  O   O47       1.0  0.2815853858133083  0.7783224781453628  0.5646746928672145  1.0000
  O   O48       1.0  0.2651833225463633  0.6196021916035334  0.5872062751367578  1.0000
