data_image0
_chemical_formula_structural       Cd4H20C38O20F12
_chemical_formula_sum              "Cd4 H20 C38 O20 F12"
_cell_length_a       7.854544951124902
_cell_length_b       10.423851564979023
_cell_length_c       12.818152071719135
_cell_angle_alpha    90.97471613333171
_cell_angle_beta     107.85068536504704
_cell_angle_gamma    90.01420479519626

_space_group_name_H-M_alt    "P 1"
_space_group_IT_number       1

loop_
  _space_group_symop_operation_xyz
  'x, y, z'

loop_
  _atom_site_type_symbol
  _atom_site_label
  _atom_site_symmetry_multiplicity
  _atom_site_fract_x
  _atom_site_fract_y
  _atom_site_fract_z
  _atom_site_occupancy
  Cd  Cd1       1.0  0.32960655285530277  0.6521012005753235  0.4656174330114664  1.0000
  Cd  Cd2       1.0  0.8643126199141945  0.8481945193704732  0.53451030312344  1.0000
  Cd  Cd3       1.0  0.6703936469636744  0.34790076609034776  0.5343845600630528  1.0000
  Cd  Cd4       1.0  0.13568889958898467  0.1518055268590928  0.4654911320342662  1.0000
  H   H1        1.0  0.1101785443031318  0.16436719506817346  0.8061177823539719  1.0000
  H   H2        1.0  0.30380498829395447  0.3356585497386249  0.19369407896353852  1.0000
  H   H3        1.0  0.8898203115137516  0.8356338112471348  0.19388394972608572  1.0000
  H   H4        1.0  0.696197873667238  0.6643414996687654  0.8063083856750236  1.0000
  H   H5        1.0  0.39069101459949696  0.12614853728135236  0.9510594058096228  1.0000
  H   H6        1.0  0.43995127642166654  0.37404423807203097  0.049033424406587776  1.0000
  H   H7        1.0  0.6093064972152857  0.8738515086835931  0.04894206527596612  1.0000
  H   H8        1.0  0.5600489006234994  0.6259558049797179  0.9509669812702694  1.0000
  H   H9        1.0  0.6550046711681005  0.40681146459392176  0.8105905350666729  1.0000
  H   H10       1.0  0.8439823278513285  0.0929281249530547  0.18954917504399285  1.0000
  H   H11       1.0  0.3449954994115743  0.5931876189680736  0.18940985800395535  1.0000
  H   H12       1.0  0.15601514642541756  0.9070699904463385  0.8104483653660918  1.0000
  H   H13       1.0  0.24324928482177907  0.8932005837800857  0.336236496386867  1.0000
  H   H14       1.0  0.9071966942760242  0.606761471861617  0.6637071731386894  1.0000
  H   H15       1.0  0.7567509100757874  0.1068013805683776  0.6637647155950429  1.0000
  H   H16       1.0  0.09280482030573721  0.3932385720507412  0.3362934809264073  1.0000
  H   H17       1.0  0.44765001299291635  0.8786644976669606  0.3756557286279828  1.0000
  H   H18       1.0  0.0723189531083293  0.6214613811350489  0.6244846057836282  1.0000
  H   H19       1.0  0.5523515129757611  0.12133650805235868  0.6243457191359452  1.0000
  H   H20       1.0  0.9276812288582476  0.3785386642339077  0.3755165809858382  1.0000
  C   C1        1.0  0.37615999403671896  0.3778771485371735  0.7302975223918506  1.0000
  C   C2        1.0  0.6452986444453755  0.12197506454491248  0.2696740048124297  1.0000
  C   C3        1.0  0.623840183008447  0.6221228945145754  0.26970288328499936  1.0000
  C   C4        1.0  0.3547042092170755  0.8780259374005938  0.7303261291545196  1.0000
  C   C5        1.0  0.21915465727894198  0.3129413175704059  0.729655342048616  1.0000
  C   C6        1.0  0.48889498132160714  0.18692551008888358  0.27015000661111077  1.0000
  C   C7        1.0  0.780842838227528  0.6870577642703708  0.2703445542455326  1.0000
  C   C8        1.0  0.5111051729497476  0.8130726093489431  0.729848811668077  1.0000
  C   C9        1.0  0.22931380762129547  0.21897765777765701  0.8080273347366  1.0000
  C   C10       1.0  0.4209222595909523  0.2809548742769863  0.19179808834297765  1.0000
  C   C11       1.0  0.770682355269983  0.7810214255197181  0.1919730942619181  1.0000
  C   C12       1.0  0.5790765620652111  0.7190432466174386  0.8082012626405725  1.0000
  C   C13       1.0  0.3884201816092982  0.19755035937247103  0.8901213492502007  1.0000
  C   C14       1.0  0.49830445394555767  0.30247367319911694  0.10987834454238768  1.0000
  C   C15       1.0  0.6115759828260678  0.80244968109745  0.10987831126192295  1.0000
  C   C16       1.0  0.5016943726320164  0.6975244500125157  0.8901217875337789  1.0000
  C   C17       1.0  0.5426970271066907  0.2699131872799043  0.8979250884809884  1.0000
  C   C18       1.0  0.6446634437004946  0.2300083667957509  0.10212944518109164  1.0000
  C   C19       1.0  0.4573018108577926  0.7300858977386966  0.1020758372940094  1.0000
  C   C20       1.0  0.3553367235018499  0.7699916716215754  0.8978693983105326  1.0000
  C   C21       1.0  0.5368309318272819  0.35506384434680877  0.8140956148870939  1.0000
  C   C22       1.0  0.7223290313540287  0.1447491320992782  0.18592744837665245  1.0000
  C   C23       1.0  0.4631678962943723  0.6449352360373625  0.1859037487026781  1.0000
  C   C24       1.0  0.277673830317994  0.8552537865085342  0.8140719297101239  1.0000
  C   C25       1.0  0.38018718721241385  0.46993080052169484  0.6428364950200203  1.0000
  C   C26       1.0  0.7365659093302809  0.029989981003730303  0.35722149518100804  1.0000
  C   C27       1.0  0.6198156436762259  0.5300682778098889  0.35716205154925956  1.0000
  C   C28       1.0  0.2634342643375618  0.9700110169033567  0.6427773609168382  1.0000
  C   C29       1.0  0.03635744054943049  0.3338909361090002  0.6506083086636207  1.0000
  C   C30       1.0  0.3851605115723374  0.1660559048900012  0.3492146333605034  1.0000
  C   C31       1.0  0.9636440626454287  0.6661081459963969  0.3493915517026449  1.0000
  C   C32       1.0  0.6148410030094311  0.8339441390223571  0.6507860207045936  1.0000
  C   C33       1.0  0.7070699399839595  0.2499491165810639  5.864194145737731e-05  1.0000
  C   C34       1.0  0.2929275536892675  0.7500518772875893  0.999938936287293  1.0000
  C   C35       1.0  0.8108045606898315  0.13230453237446232  0.9751923976306995  1.0000
  C   C36       1.0  0.8356936787666099  0.3676109582071235  0.02497815896106201  1.0000
  C   C37       1.0  0.1891942803628197  0.8676964669892228  0.024806991171523386  1.0000
  C   C38       1.0  0.1643024758259344  0.6323890776283748  0.9750199393658361  1.0000
  O   O1        1.0  0.5256576150249613  0.48567668319478235  0.6202870112045175  1.0000
  O   O2        1.0  0.9046147924586734  0.014094692203912  0.37977582488899475  1.0000
  O   O3        1.0  0.4743465826395834  0.5143252791010937  0.37971338375689345  1.0000
  O   O4        1.0  0.09538537812100151  0.9859043913580835  0.6202245681816405  1.0000
  O   O5        1.0  0.2382806584847543  0.5311610062334109  0.5922469560770691  1.0000
  O   O6        1.0  0.6453281589558914  0.9689777029077434  0.4079805942386016  1.0000
  O   O7        1.0  0.7617221887121984  0.4688390362223487  0.407753165283651  1.0000
  O   O8        1.0  0.35467470609346907  0.031024260844731102  0.5920203334271787  1.0000
  O   O9        1.0  0.9308868803452411  0.4088754620076145  0.6784799225521919  1.0000
  O   O10       1.0  0.2516536752774385  0.09113504987296041  0.3213102014421024  1.0000
  O   O11       1.0  0.06911330316541607  0.5911255405338878  0.32152049573088687  1.0000
  O   O12       1.0  0.7483491866837538  0.9088649995344227  0.6786922631964598  1.0000
  O   O13       1.0  0.9839356874713373  0.2647340310944061  0.5625969242020116  1.0000
  O   O14       1.0  0.4210366492361643  0.23509297854808855  0.43728079239249223  1.0000
  O   O15       1.0  0.016065825566343495  0.7352650556454066  0.4374044983494726  1.0000
  O   O16       1.0  0.5789662078036174  0.7649070685420867  0.5627208911534536  1.0000
  O   O17       1.0  0.3355480828517088  0.8273818709452029  0.3552424251104965  1.0000
  O   O18       1.0  0.9805299786836271  0.6726552941621264  0.6447966394941813  1.0000
  O   O19       1.0  0.6644520957375448  0.1726191292790915  0.6447572120799661  1.0000
  O   O20       1.0  0.019471547285043297  0.3273457115571929  0.35520480826974676  1.0000
  F   F1        1.0  0.7109745725980261  0.0231685990662527  0.966268818068279  1.0000
  F   F2        1.0  0.7447333181203601  0.47671284534973773  0.03387986860978023  1.0000
  F   F3        1.0  0.28902697305628783  0.9768324159219047  0.03373575406610029  1.0000
  F   F4        1.0  0.2552641773861097  0.5232862364910389  0.9661200276843612  1.0000
  F   F5        1.0  0.9695653330950975  0.11335990356137418  0.054380678951801514  1.0000
  F   F6        1.0  0.9153325608603637  0.3866679819059726  0.945832467474737  1.0000
  F   F7        1.0  0.030437530121012885  0.8866439722189837  0.9456179306485805  1.0000
  F   F8        1.0  0.08466494574384599  0.6133349309421946  0.05416513596645697  1.0000
  F   F9        1.0  0.8475299231980171  0.1441783763930573  0.8791546957595809  1.0000
  F   F10       1.0  0.9684872287105294  0.3557739269551732  0.12101731966823337  1.0000
  F   F11       1.0  0.1524662055325479  0.8558178214834272  0.12084335214243676  1.0000
  F   F12       1.0  0.0315089129510184  0.6442241899008252  0.8789807534462281  1.0000
