data_image0
_chemical_formula_structural       Al4H60C79Br2O25
_chemical_formula_sum              "Al4 H60 C79 Br2 O25"
_cell_length_a       6.647106762894939
_cell_length_b       20.591564740171986
_cell_length_c       23.937661006499095
_cell_angle_alpha    89.87441035208533
_cell_angle_beta     86.40577305682937
_cell_angle_gamma    89.22541106227648

_space_group_name_H-M_alt    "P 1"
_space_group_IT_number       1

loop_
  _space_group_symop_operation_xyz
  'x, y, z'

loop_
  _atom_site_type_symbol
  _atom_site_label
  _atom_site_symmetry_multiplicity
  _atom_site_fract_x
  _atom_site_fract_y
  _atom_site_fract_z
  _atom_site_occupancy
  Al  Al1       1.0  0.1230310626776401  0.501212344048561  0.5052137497326965  1.0000
  Al  Al2       1.0  0.624059112726371  0.49883421761262525  0.5015867381027093  1.0000
  Al  Al3       1.0  0.6793708066645364  0.9939976242527774  0.9993043998198485  1.0000
  Al  Al4       1.0  0.17847618105072624  0.9964744275940658  0.003196727184942499  1.0000
  H   H1        1.0  0.023046533985080882  0.6284134566980697  0.6523623376985697  1.0000
  H   H2        1.0  0.6066226759026135  0.6972189880227261  0.5354183501924865  1.0000
  H   H3        1.0  0.6180976175849291  0.8664043876774695  0.6728740436286884  1.0000
  H   H4        1.0  0.11878776914147682  0.7836763184698439  0.9781678133109749  1.0000
  H   H5        1.0  0.8500442468056305  0.8795798169097038  0.841883596331918  1.0000
  H   H6        1.0  0.11870978662880555  0.635840244151872  0.7261567607888749  1.0000
  H   H7        1.0  0.650735013910136  0.1596567928828421  0.7680014650911884  1.0000
  H   H8        1.0  0.6171874329702189  0.23856747227694086  0.6900262723015942  1.0000
  H   H9        1.0  0.1621307990812042  0.33222383245718123  0.7339990508729314  1.0000
  H   H10       1.0  0.19576254520645614  0.2533791791883856  0.8119906334477844  1.0000
  H   H11       1.0  0.6900368035645171  0.7381172169348956  0.31122940667035687  1.0000
  H   H12       1.0  0.7009954423924966  0.814677371084052  0.23034353816746028  1.0000
  H   H13       1.0  0.11277149264669352  0.7516590253421781  0.1882947490483531  1.0000
  H   H14       1.0  0.10172571565331616  0.6751474293661985  0.2692130454054862  1.0000
  H   H15       1.0  0.27676521744228205  0.28585253807705163  0.4839335339519053  1.0000
  H   H16       1.0  0.3631095915368333  0.12139416653326408  0.3464393287159523  1.0000
  H   H17       1.0  0.40700746932790816  0.32043422011711437  0.05782444538487399  1.0000
  H   H18       1.0  0.3981282843992344  0.21400635731609438  0.0083938166517399  1.0000
  H   H19       1.0  0.4268224528503381  0.11376734694073318  0.16502385808613695  1.0000
  H   H20       1.0  0.40913356681024726  0.38713525211920796  0.2471108420865065  1.0000
  H   H21       1.0  0.41638449433568064  0.11669190011618007  0.24476730335299376  1.0000
  H   H22       1.0  0.4906230697488852  0.6666768855904764  0.8499284003579604  1.0000
  H   H23       1.0  0.5103298769742607  0.6393600283553693  0.7788633227893555  1.0000
  H   H24       1.0  0.4562441544676614  0.5511857262896596  0.8821361546238577  1.0000
  H   H25       1.0  0.4868108216061629  0.5243651327965749  0.8120712266445621  1.0000
  H   H26       1.0  0.838424762437256  0.572134804144369  0.8040302230695389  1.0000
  H   H27       1.0  0.8145518491511364  0.5149007750233635  0.8593626108658085  1.0000
  H   H28       1.0  0.8065603483308049  0.5991036208053513  0.8742610411897401  1.0000
  H   H29       1.0  0.5964107880487787  0.4677883124127363  0.1127831993872022  1.0000
  H   H30       1.0  0.6522642280202856  0.4310079178028872  0.17753578363185343  1.0000
  H   H31       1.0  0.2749108513165411  0.5137120595134661  0.1575830668040865  1.0000
  H   H32       1.0  0.33693445660431803  0.4820520964200197  0.22301580748077746  1.0000
  H   H33       1.0  0.6571488530313727  0.5477084014618113  0.2185380770015684  1.0000
  H   H34       1.0  0.4416325292682187  0.5985429197314572  0.21444474561526758  1.0000
  H   H35       1.0  0.5942835873322136  0.5802078745753789  0.15294040502914893  1.0000
  H   H36       1.0  0.6783710166079969  0.4394346063728065  0.2696771111821192  1.0000
  H   H37       1.0  0.7396739930311823  0.35819586619233224  0.2883203954289613  1.0000
  H   H38       1.0  0.7754109416638072  0.4775924556595115  0.3631465987710882  1.0000
  H   H39       1.0  0.8576801059185825  0.3970670028143175  0.37865116411366967  1.0000
  H   H40       1.0  0.10171087349591086  0.3998445950925316  0.2932772332193281  1.0000
  H   H41       1.0  0.1522343935033277  0.46308702239449645  0.33999705587466866  1.0000
  H   H42       1.0  0.022017489740186077  0.48052128467474375  0.2789148517442541  1.0000
  H   H43       1.0  0.09619366713251047  0.0911117426802477  0.4430563449891594  1.0000
  H   H44       1.0  0.052733037289470985  0.14114245968126934  0.3839898175917256  1.0000
  H   H45       1.0  0.9352547559819653  0.17838944339067808  0.5057518217785101  1.0000
  H   H46       1.0  0.8774703209227467  0.22362915565458508  0.4456643577089848  1.0000
  H   H47       1.0  0.6717886693156174  0.1309339931010598  0.412325447222976  1.0000
  H   H48       1.0  0.5802221423743105  0.15519191902164656  0.4798751481422698  1.0000
  H   H49       1.0  0.7327014547770501  0.08403585139216571  0.4714992094317907  1.0000
  H   H50       1.0  0.48960831219915235  0.8696371878713759  0.821444641626499  1.0000
  H   H51       1.0  0.4351452782954367  0.8900932710049645  0.7514081995780301  1.0000
  H   H52       1.0  0.602285481413645  0.9834570818197004  0.8364041557603553  1.0000
  H   H53       1.0  0.5506393343078669  0.0035979745062988  0.7668239043767855  1.0000
  H   H54       1.0  0.1809502960335009  0.9760629721814525  0.7884770591976391  1.0000
  H   H55       1.0  0.2594099527476671  0.0379745805350709  0.8334352964307712  1.0000
  H   H56       1.0  0.23601251759198047  0.9572048222198146  0.8583035277479921  1.0000
  H   H57       1.0  0.36559531866456746  0.48963140664214677  0.5761779382549648  1.0000
  H   H58       1.0  0.9002500703910667  0.4625584398407483  0.4385774173934678  1.0000
  H   H59       1.0  0.43661732389873703  0.013277148127997407  0.9299834287256058  1.0000
  H   H60       1.0  0.9007554616120074  0.0354858670306513  0.0650039491190597  1.0000
  C   C1        1.0  0.37669238316108533  0.5753197918580566  0.42677960891671757  1.0000
  C   C2        1.0  0.39235560446984846  0.4033139763173494  0.44491679825880937  1.0000
  C   C3        1.0  0.8651079983189047  0.42302090068038467  0.5809951576291893  1.0000
  C   C4        1.0  0.8468384819143748  0.5971447158554283  0.5582173816834484  1.0000
  C   C5        1.0  0.9846321888213935  0.83817816377654  0.9121541985618009  1.0000
  C   C6        1.0  0.8223302087817713  0.6582142929061233  0.5913017969626964  1.0000
  C   C7        1.0  0.11191506839491436  0.7288028962578963  0.9021455857873875  1.0000
  C   C8        1.0  0.07816779725366979  0.7834721079735656  0.9348146842927317  1.0000
  C   C9        1.0  0.9242834074744053  0.8370585031273237  0.857980896841056  1.0000
  C   C10       1.0  0.9666740894888404  0.783380051365967  0.8220877516944751  1.0000
  C   C11       1.0  0.07227025743843278  0.7278389908675393  0.8441988060391166  1.0000
  C   C12       1.0  0.9024652441769089  0.7826843385165674  0.7648874114162464  1.0000
  C   C13       1.0  0.9516394934688817  0.7277920832056493  0.7302452850295251  1.0000
  C   C14       1.0  0.07149983014892307  0.6773903411615834  0.7519587783118382  1.0000
  C   C15       1.0  0.12938389450453505  0.6761657315728015  0.805898564353619  1.0000
  C   C16       1.0  0.7832633409759636  0.8333084645134504  0.7406904260654555  1.0000
  C   C17       1.0  0.708820002414164  0.8268596418909695  0.6887785455938911  1.0000
  C   C18       1.0  0.7444680208458861  0.7709005212223442  0.655617495839614  1.0000
  C   C19       1.0  0.8757260217055673  0.7211371220584225  0.674993298036604  1.0000
  C   C20       1.0  0.6529909928192834  0.761356056520128  0.6041345654104902  1.0000
  C   C21       1.0  0.6846956531760141  0.7055915961458652  0.5733051225930196  1.0000
  C   C22       1.0  0.9187248210112099  0.6664357012239248  0.6404638534616253  1.0000
  C   C23       1.0  0.7429078840141086  0.24163522382303876  0.7169899031583212  1.0000
  C   C24       1.0  0.8867293597261676  0.2908411352567343  0.7071821874710977  1.0000
  C   C25       1.0  0.050893756817124755  0.2943279149353728  0.74174463581749  1.0000
  C   C26       1.0  0.0698011448150737  0.2503303482133887  0.785109195069026  1.0000
  C   C27       1.0  0.9248572977196543  0.2015336205188801  0.7952714130296383  1.0000
  C   C28       1.0  0.7617501727453726  0.1976556399646441  0.7603516299745506  1.0000
  C   C29       1.0  0.8687598823708881  0.3362449752639519  0.6632840750797868  1.0000
  C   C30       1.0  0.9391171503806531  0.15729673309349573  0.8401749482788147  1.0000
  C   C31       1.0  0.9438893829244034  0.11904312190917209  0.878988234711663  1.0000
  C   C32       1.0  0.858466317414262  0.37586191787875833  0.6256570980330662  1.0000
  C   C33       1.0  0.5707241922079331  0.7838359193969638  0.23904071464068008  1.0000
  C   C34       1.0  0.4075013272864822  0.7882110824775876  0.20409967280830435  1.0000
  C   C35       1.0  0.23818516387754574  0.7485168161716658  0.21545581198480324  1.0000
  C   C36       1.0  0.2320799848833629  0.705962654223235  0.2604976644589456  1.0000
  C   C37       1.0  0.3951253585611595  0.7016846067680332  0.2955052600627894  1.0000
  C   C38       1.0  0.5646430579068776  0.7412647687780022  0.2840635788423214  1.0000
  C   C39       1.0  0.413083037874351  0.8324294868399561  0.15874989851390348  1.0000
  C   C40       1.0  0.38923005768675967  0.6579177104479682  0.34115809500252686  1.0000
  C   C41       1.0  0.38441793084324155  0.6200879166344464  0.3803802964296068  1.0000
  C   C42       1.0  0.41847701683710875  0.871206234229568  0.12021507481349399  1.0000
  C   C43       1.0  0.41253761368223957  0.15807526241658817  0.08501797728830239  1.0000
  C   C44       1.0  0.38460806537816666  0.34202472441084086  0.4113393366951499  1.0000
  C   C45       1.0  0.4086437260791697  0.27495260134954685  0.0810763928585843  1.0000
  C   C46       1.0  0.4045995687508536  0.2161229486404324  0.0537454535227226  1.0000
  C   C47       1.0  0.42013159356230995  0.15970719326102056  0.14258496855602226  1.0000
  C   C48       1.0  0.4167011971542535  0.21915229099138137  0.17212239364560125  1.0000
  C   C49       1.0  0.413349224290144  0.2775786581160488  0.1400235067863278  1.0000
  C   C50       1.0  0.41575197434337224  0.221735443765283  0.23255795765975754  1.0000
  C   C51       1.0  0.4176106315989329  0.28298799192673835  0.2599181003555485  1.0000
  C   C52       1.0  0.417136889148537  0.34044651552062527  0.226365583111189  1.0000
  C   C53       1.0  0.4162516721085651  0.33828101359546986  0.16902047798016887  1.0000
  C   C54       1.0  0.40621959290982085  0.1638746704976057  0.26520068946403086  1.0000
  C   C55       1.0  0.37623711408094335  0.1660407127182353  0.322125273524513  1.0000
  C   C56       1.0  0.364879874087677  0.2263529827058832  0.3511339696060602  1.0000
  C   C57       1.0  0.40754055003211664  0.2854449822643801  0.3209215248608642  1.0000
  C   C58       1.0  0.3134153515298335  0.22790452718744794  0.4097262944631764  1.0000
  C   C59       1.0  0.31887277944179704  0.28530156843260096  0.43919433409887887  1.0000
  C   C60       1.0  0.4311717615568042  0.34252177832838976  0.3538260464579536  1.0000
  C   C61       1.0  0.41001280030256027  0.0939945179738899  0.05596352579686228  1.0000
  C   C62       1.0  0.427108128754618  0.9182429526366813  0.075596026904357  1.0000
  C   C63       1.0  0.9596069055324817  0.898659428620121  0.946227322821656  1.0000
  C   C64       1.0  0.9349189727552485  0.07271218732995519  0.9242133460068018  1.0000
  C   C65       1.0  0.4505890285080054  0.6272192443274348  0.8216718874383062  1.0000
  C   C66       1.0  0.5314863160345807  0.5622814008089277  0.8410426459201616  1.0000
  C   C67       1.0  0.75977782058969  0.5621564978003376  0.8448037998273391  1.0000
  C   C68       1.0  0.5287111696654491  0.44793291334222823  0.1522631507878813  1.0000
  C   C69       1.0  0.4022109280740977  0.5005184007907103  0.1828387855389764  1.0000
  C   C70       1.0  0.5306817580131734  0.5599897684577968  0.19269505537344137  1.0000
  C   C71       1.0  0.6901215539197095  0.4058743877316219  0.3052085808658589  1.0000
  C   C72       1.0  0.8387299623860611  0.4323252482217443  0.3445947668737119  1.0000
  C   C73       1.0  0.03993876843465926  0.44478995638937147  0.3125875761808175  1.0000
  C   C74       1.0  0.07765502734780935  0.14168744928823426  0.42910279925987277  1.0000
  C   C75       1.0  0.9002640928331543  0.17397992827893918  0.4615645291108876  1.0000
  C   C76       1.0  0.7109743290393098  0.1339506110197703  0.45620037557503673  1.0000
  C   C77       1.0  0.5305466175129183  0.9021955509044944  0.7858622916114014  1.0000
  C   C78       1.0  0.5023353468184978  0.9726945199851754  0.8026678744227523  1.0000
  C   C79       1.0  0.28267567353204015  0.9868610953625208  0.8216709677179067  1.0000
  Br  Br1       1.0  0.4719562595679676  0.8254678338074936  0.5774027185889564  1.0000
  Br  Br2       1.0  0.20043544538145847  0.6546565318175296  0.9430042454137106  1.0000
  O   O1        1.0  0.560684552674182  0.42006852629125285  0.46243443512467747  1.0000
  O   O2        1.0  0.20401135375327323  0.566072721334443  0.45127259436404893  1.0000
  O   O3        1.0  0.017295709384718777  0.5678147200099417  0.5551989758693451  1.0000
  O   O4        1.0  0.22421166538502038  0.43274572860723026  0.4545563355507767  1.0000
  O   O5        1.0  0.041660922648489376  0.4365567581984208  0.5607838402437436  1.0000
  O   O6        1.0  0.542659708911408  0.5486972775265642  0.43861486404879446  1.0000
  O   O7        1.0  0.3686183788757375  0.5041334733475508  0.537595165960532  1.0000
  O   O8        1.0  0.6982735462811004  0.4469451123132941  0.5665554727760379  1.0000
  O   O9        1.0  0.6890630126631405  0.5782584046268865  0.5358706756786518  1.0000
  O   O10       1.0  0.8836805925944375  0.49199807317097566  0.47019843803583666  1.0000
  O   O11       1.0  0.2633014834264101  0.9477149008145105  0.0659595496114989  1.0000
  O   O12       1.0  0.5747924635701336  0.0616375506522502  0.05100926265893689  1.0000
  O   O13       1.0  0.7579655739004352  0.05991267525514841  0.9446590807755155  1.0000
  O   O14       1.0  0.5990045628885879  0.9267918058295519  0.0503664937315094  1.0000
  O   O15       1.0  0.7910984796499959  0.9289662478028616  0.9482031076287922  1.0000
  O   O16       1.0  0.24148128124893015  0.076622484464373  0.038746574335803495  1.0000
  O   O17       1.0  0.4340788450397213  0.9918278756970479  0.9661453285720112  1.0000
  O   O18       1.0  0.11577776153698237  0.9161074544089941  0.9700834873680646  1.0000
  O   O19       1.0  0.1006265552675956  0.04828263994863139  0.9387854567060996  1.0000
  O   O20       1.0  0.9181805055831302  0.0034200354087161986  0.03536353602651589  1.0000
  O   O21       1.0  0.23348547499046649  0.6219259493308725  0.8219815424551838  1.0000
  O   O22       1.0  0.41678647124996354  0.3924308075992258  0.13564688362562546  1.0000
  O   O23       1.0  0.4880454517240976  0.40174482471431366  0.3310999248920865  1.0000
  O   O24       1.0  0.26817743080273704  0.17146381216051051  0.43857274022690257  1.0000
  O   O25       1.0  0.7407496102622417  0.8910746823243155  0.768279827006381  1.0000
