data_image0
_chemical_formula_structural       Cu2H12C16N20
_chemical_formula_sum              "Cu2 H12 C16 N20"
_cell_length_a       5.0312571464270865
_cell_length_b       10.274209218135702
_cell_length_c       11.498788781072316
_cell_angle_alpha    67.97186787612996
_cell_angle_beta     83.92999799920851
_cell_angle_gamma    87.05475436533582

_space_group_name_H-M_alt    "P 1"
_space_group_IT_number       1

loop_
  _space_group_symop_operation_xyz
  'x, y, z'

loop_
  _atom_site_type_symbol
  _atom_site_label
  _atom_site_symmetry_multiplicity
  _atom_site_fract_x
  _atom_site_fract_y
  _atom_site_fract_z
  _atom_site_occupancy
  Cu  Cu1       1.0  0.5541451334716924  0.17164808740792378  0.24025700443981893  1.0000
  Cu  Cu2       1.0  0.44585414336089013  0.8283479482305649  0.7597424717673888  1.0000
  H   H1        1.0  0.10607515762774254  0.6331619370652176  0.37482517019466144  1.0000
  H   H2        1.0  0.8939379703930186  0.3668413553420394  0.6251791079124445  1.0000
  H   H3        1.0  0.6704185708354942  0.643705008375633  0.5058446797244898  1.0000
  H   H4        1.0  0.32958858308160904  0.35629726204643214  0.49415846815900716  1.0000
  H   H5        1.0  0.42432415830572984  0.8784659265126393  0.44322706451168864  1.0000
  H   H6        1.0  0.5756690744035282  0.12153327430105781  0.5567716421625732  1.0000
  H   H7        1.0  0.4812851413083409  0.1971275636771708  0.8827277521535563  1.0000
  H   H8        1.0  0.5187200103828431  0.8028747053503338  0.11727635697557302  1.0000
  H   H9        1.0  0.1876504368919285  0.41629562623399613  0.8354995406843031  1.0000
  H   H10       1.0  0.8123447788639806  0.5837046195434041  0.16449873089342051  1.0000
  H   H11       1.0  0.7825568891569076  0.4064811238098827  0.9929675970042666  1.0000
  H   H12       1.0  0.21743240668444488  0.5935149628329839  0.007028837855422469  1.0000
  C   C1        1.0  0.9378213863128552  0.9589388080336146  0.22854215010445972  1.0000
  C   C2        1.0  0.0621838104342842  0.041061386739414694  0.7714591628207828  1.0000
  C   C3        1.0  0.9862381051877235  0.7293483443584207  0.3545105261677933  1.0000
  C   C4        1.0  0.013773043135095994  0.27065390952704144  0.6454933150829945  1.0000
  C   C5        1.0  0.7462507094702531  0.7345875474491945  0.4253237222225082  1.0000
  C   C6        1.0  0.2537564602774154  0.2654136729618203  0.5746797714647514  1.0000
  C   C7        1.0  0.6101846382698142  0.8628348331073994  0.3919646675463185  1.0000
  C   C8        1.0  0.3898145685431018  0.13716538969148934  0.6080351693515524  1.0000
  C   C9        1.0  0.0224667737047355  0.08639917675512979  0.1183654369930025  1.0000
  C   C10       1.0  0.9775404319657425  0.9136010322962774  0.881633170780894  1.0000
  C   C11       1.0  0.3010845245391849  0.20135842863541598  0.9437304622138853  1.0000
  C   C12       1.0  0.6989186191416437  0.7986449083343032  0.056271646498558356  1.0000
  C   C13       1.0  0.140914079392509  0.3222488044201838  0.9183898041617126  1.0000
  C   C14       1.0  0.8590831510711753  0.6777503862988182  0.08160872392699757  1.0000
  C   C15       1.0  0.9182539327824344  0.3172929805784718  0.00250611244361213  1.0000
  C   C16       1.0  0.08173135525836979  0.6827030968333645  0.9974931168601912  1.0000
  N   N1        1.0  0.8391562518299692  0.23663312535503422  0.3651500183612555  1.0000
  N   N2        1.0  0.1608389946740942  0.7633639381796726  0.6348536503920101  1.0000
  N   N3        1.0  0.0427988357427793  0.175198250512274  0.3656305487281769  1.0000
  N   N4        1.0  0.9571983530136594  0.8248030209031113  0.6343699036115638  1.0000
  N   N5        1.0  0.24521342478499258  0.10779430566426382  0.3687848278869054  1.0000
  N   N6        1.0  0.7547877492440165  0.8922080121093858  0.6312142281106645  1.0000
  N   N7        1.0  0.41369474608799095  0.3639667355588471  0.16082776111284863  1.0000
  N   N8        1.0  0.5863045024321708  0.6360314065436583  0.8391701515339847  1.0000
  N   N9        1.0  0.3895015796446444  0.4343796713548045  0.22481750035430534  1.0000
  N   N10       1.0  0.6104916664594455  0.5656195552265258  0.7751777185085446  1.0000
  N   N11       1.0  0.36622862378607823  0.5077383667114432  0.2824455788921725  1.0000
  N   N12       1.0  0.6337566301578689  0.49226088650119226  0.7175491251889384  1.0000
  N   N13       1.0  0.7060837446657828  0.9743724860544133  0.2934735588739059  1.0000
  N   N14       1.0  0.2939174735062053  0.025626675244161796  0.706527406487801  1.0000
  N   N15       1.0  0.08264491907598169  0.8409155498472385  0.2554194815760056  1.0000
  N   N16       1.0  0.9173623048607882  0.15908253341442702  0.7445833056168283  1.0000
  N   N17       1.0  0.8583765131131214  0.1990675646574616  0.1019678130894235  1.0000
  N   N18       1.0  0.1416187193863223  0.8009327133294873  0.8980260987240385  1.0000
  N   N19       1.0  0.24243723466369002  0.08327763408532719  0.04397941476118209  1.0000
  N   N20       1.0  0.7575659473756744  0.9167236157461078  0.9560216416530736  1.0000
