data_image0
_chemical_formula_structural       Ba2H20C12N16O24
_chemical_formula_sum              "Ba2 H20 C12 N16 O24"
_cell_length_a       6.442636854734088
_cell_length_b       9.245873085294704
_cell_length_c       14.837961229451823
_cell_angle_alpha    73.82775271013219
_cell_angle_beta     77.4886676602997
_cell_angle_gamma    69.60251051437078

_space_group_name_H-M_alt    "P 1"
_space_group_IT_number       1

loop_
  _space_group_symop_operation_xyz
  'x, y, z'

loop_
  _atom_site_type_symbol
  _atom_site_label
  _atom_site_symmetry_multiplicity
  _atom_site_fract_x
  _atom_site_fract_y
  _atom_site_fract_z
  _atom_site_occupancy
  Ba  Ba1       1.0  0.3309224767683648  0.2500259658884191  0.750010977574938  1.0000
  Ba  Ba2       1.0  0.669078357685571  0.74997417727905  0.24998888984914913  1.0000
  H   H1        1.0  0.7172540620146747  0.0037968905547103005  0.8981411889274682  1.0000
  H   H2        1.0  0.6192353824859252  0.49613347417680154  0.6020364630466873  1.0000
  H   H3        1.0  0.282745846287959  0.9962020700400561  0.10185868344014891  1.0000
  H   H4        1.0  0.38076535647267207  0.5038666760012092  0.39796190566670486  1.0000
  H   H5        1.0  0.7750817911361239  0.16315673675304512  0.8522550257630002  1.0000
  H   H6        1.0  0.7906749941663949  0.336689708948427  0.6478941518493286  1.0000
  H   H7        1.0  0.22491939941626543  0.836841036509249  0.14774582631643088  1.0000
  H   H8        1.0  0.20932455803778538  0.6633116215515076  0.3521047358629374  1.0000
  H   H9        1.0  0.8316129377935656  0.3564426173335066  0.9039075956799111  1.0000
  H   H10       1.0  0.09192582727622794  0.14352959066246035  0.5960597202976743  1.0000
  H   H11       1.0  0.16839113363001698  0.6435551542561271  0.09609355695010179  1.0000
  H   H12       1.0  0.9080761939321318  0.856469372183078  0.40393962812753154  1.0000
  H   H13       1.0  0.7893083917895396  0.4091506168834088  0.7965987199173769  1.0000
  H   H14       1.0  0.9952336125892104  0.09075084447092512  0.7033567853137797  1.0000
  H   H15       1.0  0.21069609150105617  0.5908495206879679  0.20340227255028512  1.0000
  H   H16       1.0  0.0047684086191495684  0.9092481183746132  0.2966425631114263  1.0000
  H   H17       1.0  0.341200675216769  0.6725852837904469  0.7447544739709145  1.0000
  H   H18       1.0  0.7581574641022975  0.8275192132714935  0.7553472103326655  1.0000
  H   H19       1.0  0.6587963452927283  0.327417220857221  0.25524628117563  1.0000
  H   H20       1.0  0.24183802739820964  0.17247975684279745  0.24465071249838385  1.0000
  C   C1        1.0  0.2719854999883754  0.46313502060506556  0.9513343115220252  1.0000
  C   C2        1.0  0.686820247066365  0.036970897960671316  0.54867316146791  1.0000
  C   C3        1.0  0.7280175428666312  0.5368651178026411  0.04866653067034584  1.0000
  C   C4        1.0  0.3131823441948427  0.9630316173627522  0.45132519735842186  1.0000
  C   C5        1.0  0.2677425344349162  0.6970792772182863  0.8967515819670312  1.0000
  C   C6        1.0  0.8613696456295373  0.8029134778761461  0.6033855883130954  1.0000
  C   C7        1.0  0.7322583955143572  0.30292085893864856  0.10324978416774401  1.0000
  C   C8        1.0  0.13862965289346368  0.19708667313819467  0.3966126301250057  1.0000
  C   C9        1.0  0.31114392942192404  0.6238014853677641  0.8200460622237601  1.0000
  C   C10       1.0  0.7547654964751659  0.8763121355466552  0.6800358059325476  1.0000
  C   C11       1.0  0.6888550458074649  0.3761998350345338  0.1799549984168962  1.0000
  C   C12       1.0  0.24523575676771975  0.12368683122231527  0.3199627179996654  1.0000
  N   N1        1.0  0.31329460937978154  0.4730003213334728  0.8563932311495179  1.0000
  N   N2        1.0  0.6427979123208236  0.0271697842591934  0.6435988818503873  1.0000
  N   N3        1.0  0.6867045240354416  0.5270021855649675  0.14360700005462232  1.0000
  N   N4        1.0  0.357201995981811  0.9728291763355725  0.35640099051722984  1.0000
  N   N5        1.0  0.24346983847559073  0.5943826765224217  0.9805298461161202  1.0000
  N   N6        1.0  0.8185579376814403  0.9056319563484507  0.5195538355430999  1.0000
  N   N7        1.0  0.7565316057579781  0.40561627622548013  0.019471675237483124  1.0000
  N   N8        1.0  0.18144228699286916  0.09436937723859272  0.4804443779514713  1.0000
  N   N9        1.0  0.2565962384093581  0.854867543366119  0.8919548588215136  1.0000
  N   N10       1.0  0.0033755724414280177  0.6451289890485656  0.6082621087039256  1.0000
  N   N11       1.0  0.7434046915399152  0.14513259279081586  0.10804650731326151  1.0000
  N   N12       1.0  0.9966214549900061  0.354869973218861  0.39173746311310964  1.0000
  N   N13       1.0  0.26269337392170666  0.3186809345434654  0.016619902421247414  1.0000
  N   N14       1.0  0.5982769061924033  0.18142875838707795  0.4833431961901767  1.0000
  N   N15       1.0  0.7373056013076821  0.6813203858588325  0.983381158219416  1.0000
  N   N16       1.0  0.401723928261539  0.8185713847803985  0.5166566712339034  1.0000
  O   O1        1.0  0.2768038702662781  0.9408349524973547  0.8102022714511036  1.0000
  O   O2        1.0  0.027400483569160042  0.5591632110032023  0.6900486717768216  1.0000
  O   O3        1.0  0.7231939182086862  0.059167548226881216  0.1897993081884266  1.0000
  O   O4        1.0  0.9725983961648911  0.44083811640963694  0.30995089015314653  1.0000
  O   O5        1.0  0.23176177187029653  0.9000763635342256  0.9658205475687184  1.0000
  O   O6        1.0  0.09827168205517728  0.5999299183580292  0.534455554759262  1.0000
  O   O7        1.0  0.7682417852689908  0.09992259146444843  0.03418044984247357  1.0000
  O   O8        1.0  0.9017187598998506  0.4000643152912319  0.4655437362813116  1.0000
  O   O9        1.0  0.23892985521231228  0.3151208464965408  0.1027328462503974  1.0000
  O   O10       1.0  0.6572359590329742  0.18495358757180466  0.39724026064401846  1.0000
  O   O11       1.0  0.7610731876426872  0.6848792919111661  0.8972679959419734  1.0000
  O   O12       1.0  0.34276199454976836  0.8150465572683318  0.6027593062294798  1.0000
  O   O13       1.0  0.278800339404221  0.20302591663133282  0.9843932755879337  1.0000
  O   O14       1.0  0.46611065028701426  0.29703304645634193  0.5155038632924374  1.0000
  O   O15       1.0  0.72119930829529  0.7969754068580744  0.015607110835027476  1.0000
  O   O16       1.0  0.5338870496145562  0.7029659188981868  0.4844950343068959  1.0000
  O   O17       1.0  0.7216085764347117  0.08321114150998452  0.8387654545939469  1.0000
  O   O18       1.0  0.6436947894866523  0.416584291858385  0.6613672673651436  1.0000
  O   O19       1.0  0.278390145113498  0.9167889994067128  0.16123493677254433  1.0000
  O   O20       1.0  0.3563047627175281  0.5834170386415565  0.3386316203471226  1.0000
  O   O21       1.0  0.8749593382620308  0.32237816754747683  0.8422458955503416  1.0000
  O   O22       1.0  0.03966187132922994  0.17753682568793752  0.6577421610814724  1.0000
  O   O23       1.0  0.12504345091179667  0.677620791374629  0.15775427736785733  1.0000
  O   O24       1.0  0.9603394774089935  0.8224621340704987  0.34225786156144267  1.0000
