data_image0
_chemical_formula_structural       Cu4H28C24I4N12O4
_chemical_formula_sum              "Cu4 H28 C24 I4 N12 O4"
_cell_length_a       4.598303526848662
_cell_length_b       9.962659825222131
_cell_length_c       19.663865709532843
_cell_angle_alpha    102.01292155134719
_cell_angle_beta     90.00160307333864
_cell_angle_gamma    89.99609532190445

_space_group_name_H-M_alt    "P 1"
_space_group_IT_number       1

loop_
  _space_group_symop_operation_xyz
  'x, y, z'

loop_
  _atom_site_type_symbol
  _atom_site_label
  _atom_site_symmetry_multiplicity
  _atom_site_fract_x
  _atom_site_fract_y
  _atom_site_fract_z
  _atom_site_occupancy
  Cu  Cu1       1.0  0.6721689187792136  0.5246196194542138  0.7906606521835399  1.0000
  Cu  Cu2       1.0  0.17211594164423621  0.47538821002243037  0.709324769370717  1.0000
  Cu  Cu3       1.0  0.32783975920609987  0.47536376045918155  0.20934093983740346  1.0000
  Cu  Cu4       1.0  0.8278970847694752  0.524607451982007  0.2906750345247602  1.0000
  H   H1        1.0  0.27421035673967964  0.7560037144262282  0.8406146346889614  1.0000
  H   H2        1.0  0.7741997856274311  0.24400421882562273  0.6593831681135427  1.0000
  H   H3        1.0  0.7257961462459193  0.24398169099176661  0.15938462287311947  1.0000
  H   H4        1.0  0.22578714389089777  0.7559965800006978  0.3406176725598939  1.0000
  H   H5        1.0  0.12472934460254241  0.9037467467620389  0.9540851951183811  1.0000
  H   H6        1.0  0.6246879196572905  0.096274939754295  0.5459110009611762  1.0000
  H   H7        1.0  0.8753054283628997  0.09625607680955989  0.0459133111832202  1.0000
  H   H8        1.0  0.3752837862170679  0.9037340527964872  0.4540891567053151  1.0000
  H   H9        1.0  0.707021900827094  0.6659321991593997  0.05551410989892249  1.0000
  H   H10       1.0  0.20695404154548672  0.3340362728957443  0.4444768825113671  1.0000
  H   H11       1.0  0.29300852281593137  0.334071683017534  0.9444875565874893  1.0000
  H   H12       1.0  0.7930176645451182  0.6659686040480821  0.5555218347665658  1.0000
  H   H13       1.0  0.8323841114173048  0.5288766837347582  0.9374094918532164  1.0000
  H   H14       1.0  0.332345017960705  0.47109756888719545  0.5625755684268512  1.0000
  H   H15       1.0  0.1676245659784925  0.4711159374339998  0.06259355916319008  1.0000
  H   H16       1.0  0.6676506106147003  0.5288980718267595  0.43742219900546075  1.0000
  H   H17       1.0  0.7214493261179911  0.893555424914915  0.1228327179399216  1.0000
  H   H18       1.0  0.22142640394793736  0.10643631896167702  0.37717093440333826  1.0000
  H   H19       1.0  0.2785723991258635  0.10644646425438249  0.877174337635786  1.0000
  H   H20       1.0  0.7785431275548121  0.8935706589278283  0.622832575930893  1.0000
  H   H21       1.0  0.3300509585488669  0.07800904678281739  0.18823228675531564  1.0000
  H   H22       1.0  0.8300809818435582  0.9219823698190199  0.3117618780272267  1.0000
  H   H23       1.0  0.6699468448688463  0.9219886948107853  0.8117702737408548  1.0000
  H   H24       1.0  0.16991247177110583  0.0780173811462532  0.688236820681631  1.0000
  H   H25       1.0  0.29209082079647436  0.9482857671618703  0.2255294186191961  1.0000
  H   H26       1.0  0.7920848453391187  0.05171706459142911  0.2744656694475651  1.0000
  H   H27       1.0  0.7079200307741687  0.0517140266484759  0.77447335298573  1.0000
  H   H28       1.0  0.2078933854075373  0.9482806341901124  0.7255328181487569  1.0000
  C   C1        1.0  0.3656176437272407  0.7403760808728778  0.889641851500656  1.0000
  C   C2        1.0  0.86557512593415  0.2596300445239521  0.6103507746531918  1.0000
  C   C3        1.0  0.634397557706052  0.25961548165753356  0.1103580393347272  1.0000
  C   C4        1.0  0.13440310439987974  0.7403738115020744  0.3896483462012909  1.0000
  C   C5        1.0  0.28279572583107887  0.8217659810751599  0.9528410726479278  1.0000
  C   C6        1.0  0.7827620457996504  0.1782283457768727  0.5471548788198461  1.0000
  C   C7        1.0  0.7172303487256358  0.17823277013072672  0.04716006611578649  1.0000
  C   C8        1.0  0.21720531117522768  0.8217713948072715  0.4528428016271632  1.0000
  C   C9        1.0  0.4072993125690445  0.797851762192245  0.014182332387683499  1.0000
  C   C10       1.0  0.9072569709567517  0.2021352469317463  0.4858108717543955  1.0000
  C   C11       1.0  0.5927289365556517  0.20214696203738922  0.985816260838682  1.0000
  C   C12       1.0  0.0927060362540502  0.7978685877707862  0.5141862126407017  1.0000
  C   C13       1.0  0.608459276312182  0.690936646897768  0.009217969478534422  1.0000
  C   C14       1.0  0.10840266480406768  0.30904914130103117  0.4907700847363259  1.0000
  C   C15       1.0  0.39157549659441326  0.3090661658965317  0.990779518606615  1.0000
  C   C16       1.0  0.8915712162274045  0.6909536993609038  0.509229948784018  1.0000
  C   C17       1.0  0.677627743817247  0.6136882992557915  0.9438457065681618  1.0000
  C   C18       1.0  0.1775807125703039  0.3862917052895796  0.5561414663028827  1.0000
  C   C19       1.0  0.32238093351016056  0.3863022317776057  0.05615356960461781  1.0000
  C   C20       1.0  0.8223975179700389  0.6137090721141971  0.44385733792252313  1.0000
  C   C21       1.0  0.30897160585637107  0.8838215735713817  0.08189299713254881  1.0000
  C   C22       1.0  0.80894259073375  0.11617360566119568  0.41810548369593886  1.0000
  C   C23       1.0  0.6910631670597811  0.11618331858098674  0.9181072475797832  1.0000
  C   C24       1.0  0.19101606650666264  0.88383740178196  0.5818913212763306  1.0000
  I   I1        1.0  0.5589667057056146  0.6504758676773648  0.6945957454243299  1.0000
  I   I2        1.0  0.0590847198279079  0.3495395656982154  0.8053958140077668  1.0000
  I   I3        1.0  0.44108981559919874  0.3495105524114237  0.3054025995513499  1.0000
  I   I4        1.0  0.9409457043159931  0.6504581754001819  0.194606746545162  1.0000
  N   N1        1.0  0.5607555256644972  0.6374686081449851  0.8846253355409743  1.0000
  N   N2        1.0  0.06071455373204769  0.3625200865512994  0.6153629766118484  1.0000
  N   N3        1.0  0.439261850690187  0.36251987573017885  0.11537423866910497  1.0000
  N   N4        1.0  0.9392767250987717  0.6374806906543994  0.38463582763625936  1.0000
  N   N5        1.0  0.5032576909126547  0.9066110006162659  0.13404678358329386  1.0000
  N   N6        1.0  0.0032462358032532006  0.0933822259209052  0.3659545636440597  1.0000
  N   N7        1.0  0.4967575100782184  0.09338983011276268  0.8659571117886812  1.0000
  N   N8        1.0  0.9967319944914264  0.906622661701178  0.6340451718616791  1.0000
  N   N9        1.0  0.439886012443061  0.9943272449593863  0.1980970888867262  1.0000
  N   N10       1.0  0.9399051988891498  0.0056659680751139  0.30189798576643057  1.0000
  N   N11       1.0  0.560116140169079  0.005673569801786002  0.8019052791378698  1.0000
  N   N12       1.0  0.060077381032066085  0.9943368778434089  0.6981025568772736  1.0000
  O   O1        1.0  0.056571030440537094  0.9319435833004874  0.08822924376106299  1.0000
  O   O2        1.0  0.5565483026084196  0.06804898627269297  0.41176628519635017  1.0000
  O   O3        1.0  0.9434506944308011  0.0680571988316601  0.9117700696482344  1.0000
  O   O4        1.0  0.443399480133543  0.9319722403004818  0.588227502321466  1.0000
