data_image0
_chemical_formula_structural       Zn2H40C40Br2N18O8
_chemical_formula_sum              "Zn2 H40 C40 Br2 N18 O8"
_cell_length_a       11.03023720570208
_cell_length_b       16.614441561415116
_cell_length_c       17.67555066477448
_cell_angle_alpha    95.19580864916144
_cell_angle_beta     90.81765959173495
_cell_angle_gamma    92.04748759218245

_space_group_name_H-M_alt    "P 1"
_space_group_IT_number       1

loop_
  _space_group_symop_operation_xyz
  'x, y, z'

loop_
  _atom_site_type_symbol
  _atom_site_label
  _atom_site_symmetry_multiplicity
  _atom_site_fract_x
  _atom_site_fract_y
  _atom_site_fract_z
  _atom_site_occupancy
  Zn  Zn1       1.0  0.4955354124477722  0.418159791415633  0.49685901078385797  1.0000
  Zn  Zn2       1.0  0.5036603678531506  0.599969978039276  0.5061982689719144  1.0000
  H   H1        1.0  0.534521928238327  0.0088740776908978  0.5930871690328203  1.0000
  H   H2        1.0  0.45722664752655356  0.008617540628556198  0.4253424756432977  1.0000
  H   H3        1.0  0.410917903431404  0.4262791165827481  0.003983855504650106  1.0000
  H   H4        1.0  0.599580382577983  0.566226890977376  0.00220196194390352  1.0000
  H   H5        1.0  0.7717289929303063  0.5223933560199043  0.36366254868219267  1.0000
  H   H6        1.0  0.8829244117906966  0.5247774055572236  0.24398409862460818  1.0000
  H   H7        1.0  0.22298159325848843  0.5071333376535138  0.36322590780429914  1.0000
  H   H8        1.0  0.10915125934369738  0.5151878116968689  0.24366009265511218  1.0000
  H   H9        1.0  0.695742302531272  0.6731474974753836  0.5722435417391409  1.0000
  H   H10       1.0  0.7536203523238569  0.7661067636345112  0.6077144940148855  1.0000
  H   H11       1.0  0.6984482055077876  0.8742485591866043  0.6609325220696576  1.0000
  H   H12       1.0  0.7525327104614661  0.9213205841767336  0.5882400235897407  1.0000
  H   H13       1.0  0.31222030886903707  0.6623617964475131  0.44823283226636323  1.0000
  H   H14       1.0  0.25991968991701947  0.7496211737107147  0.41750098597803026  1.0000
  H   H15       1.0  0.3213090930992095  0.8625269959283063  0.3787456707500425  1.0000
  H   H16       1.0  0.2463327793142085  0.8874015836852395  0.4575205121979096  1.0000
  H   H17       1.0  0.6762150180214803  0.07809764304339238  0.5650397443927062  1.0000
  H   H18       1.0  0.7521872834368678  0.1678480742850184  0.5685419564361922  1.0000
  H   H19       1.0  0.6874138158841063  0.2768322033309971  0.627116884326476  1.0000
  H   H20       1.0  0.6540282735952089  0.36151183760531314  0.5866912018637862  1.0000
  H   H21       1.0  0.29843089813203955  0.0612157609616943  0.4157468524437462  1.0000
  H   H22       1.0  0.2913382501377626  0.1350454188183008  0.3575068483870396  1.0000
  H   H23       1.0  0.29952927657437567  0.3450296963632696  0.436315795224388  1.0000
  H   H24       1.0  0.23568204902586123  0.25241425928120975  0.40989504708633007  1.0000
  H   H25       1.0  0.49431982580149736  0.3530344374830109  0.31792720434893335  1.0000
  H   H26       1.0  0.5723439258489833  0.31244552133940573  0.24279835699013566  1.0000
  H   H27       1.0  0.5399822916517323  0.3288790918315597  0.06359421183631749  1.0000
  H   H28       1.0  0.4733032819084856  0.29204881594098003  0.1395655139941141  1.0000
  H   H29       1.0  0.49055767222809277  0.6460678496146459  0.32464111359950465  1.0000
  H   H30       1.0  0.4169452768528216  0.6779212364363474  0.24941501770322816  1.0000
  H   H31       1.0  0.45683246115914505  0.6306333884331468  0.061618911156422505  1.0000
  H   H32       1.0  0.4904189023221477  0.6846311877475915  0.1466126021724676  1.0000
  H   H33       1.0  0.5196375694519374  0.3686879801277457  0.9303085995465492  1.0000
  H   H34       1.0  0.5230516362757385  0.32391040450124114  0.8408022197971121  1.0000
  H   H35       1.0  0.4564984315970335  0.3724165967696322  0.6701236356282079  1.0000
  H   H36       1.0  0.39720193069426557  0.33655671730336684  0.7496477236091649  1.0000
  H   H37       1.0  0.6013219485357553  0.6672222394678614  0.9519750656590772  1.0000
  H   H38       1.0  0.5551606699292434  0.7131456747700685  0.8751674180381741  1.0000
  H   H39       1.0  0.5397793680164753  0.6635767584411526  0.6940918721264424  1.0000
  H   H40       1.0  0.6329213923703277  0.694318497993507  0.7677496019754456  1.0000
  C   C1        1.0  0.4949540086149753  0.5030816664011012  0.3539886156015725  1.0000
  C   C2        1.0  0.2617966930367501  0.5050551158639466  0.5044006605573443  1.0000
  C   C3        1.0  0.5041259119311832  0.5184775216632289  0.6495368990474475  1.0000
  C   C4        1.0  0.7353781955945988  0.5100208741202934  0.5023000195845952  1.0000
  C   C5        1.0  0.41951982457403847  0.7652897602641674  0.4749268357205877  1.0000
  C   C6        1.0  0.4197944359219718  0.8504326616017366  0.476060132792874  1.0000
  C   C7        1.0  0.505505329574845  0.8966659205028125  0.5232939328298087  1.0000
  C   C8        1.0  0.5905588818463555  0.8561396479496822  0.5645346836787651  1.0000
  C   C9        1.0  0.5911540672008612  0.7707750251018409  0.5552056868105879  1.0000
  C   C10       1.0  0.508987848886214  0.9851488554034944  0.5351409937360714  1.0000
  C   C11       1.0  0.48438472349168643  0.03584857900246869  0.48184784443957795  1.0000
  C   C12       1.0  0.3981140415773439  0.16383712117473692  0.4524487933707276  1.0000
  C   C13       1.0  0.4868665511392791  0.12398134361230012  0.49166809000583095  1.0000
  C   C14       1.0  0.5764468815688913  0.17120461655765953  0.5348268501544737  1.0000
  C   C15       1.0  0.5743374002673107  0.25623944801055404  0.5366277289433083  1.0000
  C   C16       1.0  0.4014645280731912  0.2488034770882237  0.45677069146248067  1.0000
  C   C17       1.0  0.4942335691757407  0.4968809127644819  0.26992702763094195  1.0000
  C   C18       1.0  0.49225874878132464  0.5680669138723148  0.23007297330962473  1.0000
  C   C19       1.0  0.49470699010814906  0.5618989767381422  0.14991685982461425  1.0000
  C   C20       1.0  0.4894410730086705  0.48496125647406535  0.10825021334972007  1.0000
  C   C21       1.0  0.4890892690029247  0.41478533097225073  0.1476116716798117  1.0000
  C   C22       1.0  0.4954220653648774  0.4194833760638162  0.2275286844374307  1.0000
  C   C23       1.0  0.4764777031002865  0.47433314453690667  0.025399875332581704  1.0000
  C   C24       1.0  0.5349372071426544  0.5199454743844215  0.9763316062478964  1.0000
  C   C25       1.0  0.5365639830879658  0.5903775561149375  0.8598599432104093  1.0000
  C   C26       1.0  0.5223416642395478  0.516618217395383  0.8939591642426163  1.0000
  C   C27       1.0  0.5001566674544478  0.4440757578763127  0.8470514563264828  1.0000
  C   C28       1.0  0.48944899966386396  0.4446605608608039  0.7674806987353406  1.0000
  C   C29       1.0  0.5075394534210601  0.5184548034801395  0.7331295746252806  1.0000
  C   C30       1.0  0.5323307249353418  0.5917129065800707  0.7803992171626177  1.0000
  C   C31       1.0  0.8716881935418356  0.5107651965387278  0.5039468037736226  1.0000
  C   C32       1.0  0.9334475279627766  0.5134146055526828  0.4339442437779013  1.0000
  C   C33       1.0  0.9351344852485894  0.5080154823527179  0.5715791880602408  1.0000
  C   C34       1.0  0.8703031782098805  0.5189158647860452  0.3640552068861993  1.0000
  C   C35       1.0  0.9327285155072431  0.5203049597257134  0.2970891433267511  1.0000
  C   C36       1.0  0.12586241708002888  0.5074200304982668  0.5048264724794435  1.0000
  C   C37       1.0  0.06381006917276011  0.5068888331320383  0.5722493498351398  1.0000
  C   C38       1.0  0.0630250445849114  0.51070587597939  0.43421737366656277  1.0000
  C   C39       1.0  0.12450834025060689  0.5109501031102823  0.3640261892958846  1.0000
  C   C40       1.0  0.060554269913332306  0.5155039376445031  0.29699380530446007  1.0000
  Br  Br1       1.0  0.15301710726548376  0.5073220486916342  0.664988417880842  1.0000
  Br  Br2       1.0  0.8469236841372733  0.5046331518066439  0.6631461399678855  1.0000
  N   N1        1.0  0.5052528089787032  0.7260419536857798  0.5123577325903099  1.0000
  N   N2        1.0  0.48975468382438686  0.29387745999073195  0.4972383761972877  1.0000
  N   N3        1.0  0.6782506043581122  0.7315642945041463  0.5920369098903889  1.0000
  N   N4        1.0  0.676129174070489  0.9016281478428922  0.6137297522659536  1.0000
  N   N5        1.0  0.33314560424693695  0.7191337184815155  0.43251584417854616  1.0000
  N   N6        1.0  0.3298940027485174  0.8883226200083671  0.4332590689564384  1.0000
  N   N7        1.0  0.6704372717948885  0.1390380117928558  0.575932620513953  1.0000
  N   N8        1.0  0.6648242058302499  0.30078948449166637  0.5780481664109514  1.0000
  N   N9        1.0  0.29942619923231467  0.12211409452097399  0.4126500788564583  1.0000
  N   N10       1.0  0.314277886224275  0.2863817235790691  0.41734069031102905  1.0000
  N   N11       1.0  0.5000773041013175  0.34552416915967404  0.2601918063091872  1.0000
  N   N12       1.0  0.4798285006146799  0.3385225822811436  0.1060734511262638  1.0000
  N   N13       1.0  0.4886747154672904  0.6466923609199854  0.2668946953515031  1.0000
  N   N14       1.0  0.5004013679082603  0.632814195851914  0.11288431185408139  1.0000
  N   N15       1.0  0.4869150675343761  0.36846768861011014  0.8762048724947744  1.0000
  N   N16       1.0  0.46567076158527226  0.36903399198914855  0.7271269075663653  1.0000
  N   N17       1.0  0.5460205103527045  0.6642338891150958  0.9053498823972033  1.0000
  N   N18       1.0  0.5506414353535264  0.6676200469170938  0.7517998005377605  1.0000
  O   O1        1.0  0.46632899254167637  0.4394229474771195  0.38719827935475587  1.0000
  O   O2        1.0  0.5230953189645078  0.571323212139248  0.39160423938506733  1.0000
  O   O3        1.0  0.318714961260639  0.5710077685341021  0.4940904291568485  1.0000
  O   O4        1.0  0.3083908387305669  0.4378611878184557  0.5123092627675162  1.0000
  O   O5        1.0  0.4866353315090848  0.5844706319743267  0.6192830676583083  1.0000
  O   O6        1.0  0.5200529521033131  0.4510231999016129  0.6094893067738737  1.0000
  O   O7        1.0  0.6810287972904092  0.44292662235201874  0.48350017916521176  1.0000
  O   O8        1.0  0.6870020619331497  0.5777784246805027  0.5181058001774514  1.0000
