data_image0
_chemical_formula_structural       Cs2H38C44Br2N6O6
_chemical_formula_sum              "Cs2 H38 C44 Br2 N6 O6"
_cell_length_a       8.056863569613034
_cell_length_b       11.470047347318184
_cell_length_c       14.619014811392057
_cell_angle_alpha    106.30063530291483
_cell_angle_beta     102.7774856582807
_cell_angle_gamma    99.23122172890272

_space_group_name_H-M_alt    "P 1"
_space_group_IT_number       1

loop_
  _space_group_symop_operation_xyz
  'x, y, z'

loop_
  _atom_site_type_symbol
  _atom_site_label
  _atom_site_symmetry_multiplicity
  _atom_site_fract_x
  _atom_site_fract_y
  _atom_site_fract_z
  _atom_site_occupancy
  Cs  Cs1       1.0  0.35438643845142087  0.4923485118290357  0.369431995447016  1.0000
  Cs  Cs2       1.0  0.6456139053356438  0.5076504360058393  0.6305706713236745  1.0000
  H   H1        1.0  0.23885725071007613  0.5463339120806622  0.7958715797835437  1.0000
  H   H2        1.0  0.7611423894617746  0.45366689691305584  0.20412730925708186  1.0000
  H   H3        1.0  0.13391201147402398  0.9904654582648715  0.4269464142138233  1.0000
  H   H4        1.0  0.8660834891183385  0.009534417964786695  0.5730510967589453  1.0000
  H   H5        1.0  0.28272588468959015  0.03969629790670838  0.3651770955055227  1.0000
  H   H6        1.0  0.7172725026229045  0.9603045159734619  0.6348230148273402  1.0000
  H   H7        1.0  0.9561481742724071  0.1567960423493061  0.08135590082363824  1.0000
  H   H8        1.0  0.04385494054711362  0.8432075675808546  0.918643330902313  1.0000
  H   H9        1.0  0.6582234834702092  0.37215832316121567  0.880534613338952  1.0000
  H   H10       1.0  0.34177683130430125  0.6278406194135043  0.1194659966710816  1.0000
  H   H11       1.0  0.017251393961799977  0.4497405986645829  0.649331269504401  1.0000
  H   H12       1.0  0.9827482845309278  0.5502564718572954  0.3506681692459779  1.0000
  H   H13       1.0  0.9765149527456388  0.28331017614021187  0.5901558571902896  1.0000
  H   H14       1.0  0.023484754759636035  0.7166868996418145  0.4098456383207392  1.0000
  H   H15       1.0  0.10131764155715223  0.38799453898138836  0.5485948461279762  1.0000
  H   H16       1.0  0.8986807550636655  0.612002531166787  0.4514037571539902  1.0000
  H   H17       1.0  0.5078554832242332  0.5458832343212875  0.9193472392668127  1.0000
  H   H18       1.0  0.4921451158432006  0.45411663814301295  0.08065155681894956  1.0000
  H   H19       1.0  0.8271957877310995  0.9350657398817855  0.18592030652447986  1.0000
  H   H20       1.0  0.17280697509955445  0.06493692788510687  0.8140759400175527  1.0000
  H   H21       1.0  0.9086338478121901  0.8692228314888552  0.2782829388817661  1.0000
  H   H22       1.0  0.09136479478068082  0.1307789070207406  0.7217133007661758  1.0000
  H   H23       1.0  0.04179813968818971  0.9065209724342291  0.20349484157425468  1.0000
  H   H24       1.0  0.9582062279906864  0.09348263260947928  0.7965031688594593  1.0000
  H   H25       1.0  0.584251569034656  0.14979662608162408  0.18748263347711713  1.0000
  H   H26       1.0  0.4157494686967667  0.8502004588410228  0.8125231254367478  1.0000
  H   H27       1.0  0.4047745418705588  0.15382710583833867  0.3044490654294805  1.0000
  H   H28       1.0  0.5952194316028924  0.846175592626956  0.6955543589844595  1.0000
  H   H29       1.0  0.1403729549143122  0.16405722146979676  0.9666416123090684  1.0000
  H   H30       1.0  0.859634033808426  0.835938903870854  0.033357797307210925  1.0000
  H   H31       1.0  0.6075385290697498  0.1635831300212587  0.6417596475724991  1.0000
  H   H32       1.0  0.3924592602818251  0.8364120733342231  0.3582398412104624  1.0000
  H   H33       1.0  0.48392461913991275  0.07954776714424126  0.6980381296788352  1.0000
  H   H34       1.0  0.5160731609033391  0.9204511799432349  0.30196286615502993  1.0000
  H   H35       1.0  0.6877224993478137  0.1861338684357604  0.7707509318847698  1.0000
  H   H36       1.0  0.3122743214373287  0.8138622696957539  0.22924796426616473  1.0000
  H   H37       1.0  0.22162749857128722  0.08736384903238556  0.5784565313367267  1.0000
  H   H38       1.0  0.7783728065323742  0.9126350917889564  0.4215433930864236  1.0000
  C   C1        1.0  0.8841226401073642  0.116404458865631  0.3670994071998948  1.0000
  C   C2        1.0  0.11587474962614396  0.8835972845304166  0.6328980537402913  1.0000
  C   C3        1.0  0.325946987289882  0.2776446915638289  0.6665311794739353  1.0000
  C   C4        1.0  0.6740520359418766  0.7223542488838106  0.33346790948080235  1.0000
  C   C5        1.0  0.8616557376818508  0.22667165062658504  0.34629783028289307  1.0000
  C   C6        1.0  0.13834103511156567  0.7733282242233913  0.653699830571405  1.0000
  C   C7        1.0  0.7635729234437535  0.30661604573388956  0.38590547747187987  1.0000
  C   C8        1.0  0.23642071665748426  0.6933782231041474  0.6140919476563412  1.0000
  C   C9        1.0  0.16602489911853271  0.1515583260450981  0.19993692876932562  1.0000
  C   C10       1.0  0.833976953533309  0.8484490325035166  0.8000650312997594  1.0000
  C   C11       1.0  0.969581902636378  0.25252195905135005  0.28347574131790765  1.0000
  C   C12       1.0  0.030414870519571445  0.7474816612840057  0.7165241121741702  1.0000
  C   C13       1.0  0.021988524927436994  0.06806713030957208  0.3170574908987192  1.0000
  C   C14       1.0  0.9780095010878683  0.9319364851393316  0.6829411413011215  1.0000
  C   C15       1.0  0.2372833261973639  0.37397693458657233  0.6879503767398633  1.0000
  C   C16       1.0  0.7627185837545272  0.6260229435115859  0.3120513115749688  1.0000
  C   C17       1.0  0.25691420648546176  0.18762737586250466  0.48479287343417343  1.0000
  C   C18       1.0  0.743086098618207  0.8123715649588304  0.5152070509889768  1.0000
  C   C19       1.0  0.3058138224236514  0.4706236790338777  0.7796655407718234  1.0000
  C   C20       1.0  0.6941899476568382  0.5293780609705222  0.2203340407497691  1.0000
  C   C21       1.0  0.47754391056597717  0.2751407521827857  0.7354419969988654  1.0000
  C   C22       1.0  0.5224560715613649  0.724857251735436  0.2645569990010159  1.0000
  C   C23       1.0  0.17914309578966237  0.06547185730067179  0.39887084284071517  1.0000
  C   C24       1.0  0.820855595157454  0.9345298899758492  0.6011288247416504  1.0000
  C   C25       1.0  0.09352066711301178  0.15497020280304238  0.1043694059623164  1.0000
  C   C26       1.0  0.9064834259437902  0.8450324741044708  0.8956311039825452  1.0000
  C   C27       1.0  0.540821450831217  0.3726477386792054  0.8265355503343343  1.0000
  C   C28       1.0  0.459178540966974  0.6273502669924013  0.1734641312524303  1.0000
  C   C29       1.0  0.0731535351637547  0.37338915523961447  0.6152650898072309  1.0000
  C   C30       1.0  0.9268477385063463  0.6266088508056951  0.3847354272479464  1.0000
  C   C31       1.0  0.4563024624464306  0.47002828537004854  0.848456575753879  1.0000
  C   C32       1.0  0.5437010039994304  0.5299725212379938  0.15154344851821117  1.0000
  C   C33       1.0  0.9448397037465528  0.9366032923526076  0.2414920264740488  1.0000
  C   C34       1.0  0.05516210985936709  0.0634003136970875  0.7585049986097232  1.0000
  C   C35       1.0  0.37239518929060017  0.15662795844455246  0.07030750283980321  1.0000
  C   C36       1.0  0.6276099493369145  0.8433700522286144  0.9296968917943786  1.0000
  C   C37       1.0  0.4463105920904057  0.14998027028354236  0.1637642045982162  1.0000
  C   C38       1.0  0.5536929420514056  0.8500205485981949  0.8362406187820638  1.0000
  C   C39       1.0  0.3432230167898568  0.14904405750539235  0.2289259116148159  1.0000
  C   C40       1.0  0.6567757128406555  0.8509576967846685  0.7710764983150896  1.0000
  C   C41       1.0  0.1965668038747879  0.15907304664157346  0.0398820774480413  1.0000
  C   C42       1.0  0.8034370045265717  0.8409249548909797  0.9601180537833045  1.0000
  C   C43       1.0  0.5692791294776995  0.1709567195228558  0.7105959528356962  1.0000
  C   C44       1.0  0.430717691307443  0.8290394186086589  0.2894029433152383  1.0000
  Br  Br1       1.0  0.5150294945671378  0.16511994784573147  0.9829292758437731  1.0000
  Br  Br2       1.0  0.4849792146914921  0.8348733903269615  0.017077932069014323  1.0000
  N   N1        1.0  0.061564056569231695  0.15947394246707347  0.2667584810066188  1.0000
  N   N2        1.0  0.9384330298921809  0.8405306130180106  0.7332416153218446  1.0000
  N   N3        1.0  0.25857163457509813  0.17685853378460337  0.5749393616573997  1.0000
  N   N4        1.0  0.7414296294241467  0.8231394705073211  0.42506046981089435  1.0000
  N   N5        1.0  0.6821539212568271  0.3744524320814691  0.42022636274676733  1.0000
  N   N6        1.0  0.3178340134626224  0.6255437192146045  0.579772855407235  1.0000
  O   O1        1.0  0.9850147362796733  0.3417981847414992  0.2507194090252014  1.0000
  O   O2        1.0  0.014985530503118016  0.6582044945516825  0.7492799656881958  1.0000
  O   O3        1.0  0.3156255848287374  0.28794463385378316  0.4724856159205189  1.0000
  O   O4        1.0  0.6843721952145074  0.7120543132336932  0.5275153799133392  1.0000
  O   O5        1.0  0.8146163251646998  0.0632456663412313  0.4182464022251224  1.0000
  O   O6        1.0  0.18538299203083133  0.9367542057493733  0.5817515583922344  1.0000
