data_image0
_chemical_formula_structural       Zn4H67C80Br5N20
_chemical_formula_sum              "Zn4 H67 C80 Br5 N20"
_cell_length_a       20.532315481012706
_cell_length_b       20.12832710145606
_cell_length_c       20.739268039211005
_cell_angle_alpha    106.69944166164183
_cell_angle_beta     105.31256528872079
_cell_angle_gamma    112.69842376616674

_space_group_name_H-M_alt    "P 1"
_space_group_IT_number       1

loop_
  _space_group_symop_operation_xyz
  'x, y, z'

loop_
  _atom_site_type_symbol
  _atom_site_label
  _atom_site_symmetry_multiplicity
  _atom_site_fract_x
  _atom_site_fract_y
  _atom_site_fract_z
  _atom_site_occupancy
  Zn  Zn1       1.0  0.6196312655211996  0.5989621996787804  0.501641092652939  1.0000
  Zn  Zn2       1.0  0.3852950606882928  0.3768333441246128  0.47641793869296134  1.0000
  Zn  Zn3       1.0  0.49187359957804916  0.5712589235118416  0.5803730606791363  1.0000
  Zn  Zn4       1.0  0.5046173848959796  0.39887950624572716  0.38153665726420627  1.0000
  H   H1        1.0  0.7735383123864564  0.7129481059109821  0.6476516245066364  1.0000
  H   H2        1.0  0.4346409032557048  0.2775613192767424  0.5471856897754749  1.0000
  H   H3        1.0  0.9167658978790384  0.4566789371375394  0.45398727968255065  1.0000
  H   H4        1.0  0.04883154964192469  0.4984468655914613  0.4858158949918022  1.0000
  H   H5        1.0  0.021726996161284297  0.3970197097234234  0.4626913553991729  1.0000
  H   H6        1.0  0.9625103079348845  0.4402928981007077  0.6624847042723162  1.0000
  H   H7        1.0  0.9025156872100482  0.351359949346147  0.5787864789342622  1.0000
  H   H8        1.0  0.9948136429068267  0.5714221611816868  0.6644183712753318  1.0000
  H   H9        1.0  0.10991031847379419  0.5662269943684352  0.6897627278915267  1.0000
  H   H10       1.0  0.010769239071052497  0.3492891083019246  0.5610759677781091  1.0000
  H   H11       1.0  0.5126949279702302  0.5765038266373141  0.7330170419167106  1.0000
  H   H12       1.0  0.39373396485673595  0.6164649636488875  0.46731426019128725  1.0000
  H   H13       1.0  0.40839435080385295  0.9808906303124232  0.34151219944124733  1.0000
  H   H14       1.0  0.42786394884788587  0.027221512043517596  0.5381192951456982  1.0000
  H   H15       1.0  0.4450631414426596  0.9241846170934808  0.536970137217658  1.0000
  H   H16       1.0  0.6017327035568769  0.07458928684613404  0.4926867984026942  1.0000
  H   H17       1.0  0.5762346706792626  0.0829319890021907  0.5682807354989521  1.0000
  H   H18       1.0  0.5088398845405422  0.0160617563276304  0.36652468999550797  1.0000
  H   H19       1.0  0.6639911424532626  0.3739423084404691  0.3787195021564073  1.0000
  H   H20       1.0  0.5532208712192811  0.9556027206378133  0.5522807392226456  1.0000
  H   H21       1.0  0.4047265194437344  0.5751192663415736  0.7825131235021276  1.0000
  H   H22       1.0  0.5077079090572382  0.6735036734555918  0.26096881997671056  1.0000
  H   H23       1.0  0.3512635302010878  0.26002296645969386  0.20802589422290654  1.0000
  H   H24       1.0  0.3755288126621323  0.34398769796740686  0.7569742573385909  1.0000
  H   H25       1.0  0.30455164216547803  0.4257023036545605  0.03295802861873653  1.0000
  H   H26       1.0  0.34809860062738807  0.3635389373927609  0.8691037488035179  1.0000
  H   H27       1.0  0.33851028674311573  0.4212275288082808  0.15499924766032797  1.0000
  H   H28       1.0  0.2386440115204279  0.23255940396143873  0.09967412698848933  1.0000
  H   H29       1.0  0.11120418046919409  0.15636211885161086  0.9884088171329851  1.0000
  H   H30       1.0  0.965831358311945  0.9861524919899125  0.8115707792757194  1.0000
  H   H31       1.0  0.8605593339300269  0.8496977046769204  0.7147783439824027  1.0000
  H   H32       1.0  0.11598778915185902  0.2214700308131726  0.23974210622650116  1.0000
  H   H33       1.0  0.7089655451205841  0.8712541569688597  0.8190039140516135  1.0000
  H   H34       1.0  0.23005353346649568  0.3103762503575993  0.34034465269808584  1.0000
  H   H35       1.0  0.7528931581047899  0.5735288213392947  0.5906094223236168  1.0000
  H   H36       1.0  0.567357523108356  0.2832079466481332  0.4155636561448263  1.0000
  H   H37       1.0  0.610673436047655  0.7442160372509362  0.731984656564947  1.0000
  H   H38       1.0  0.5797848673451824  0.6528272920793299  0.35761775898168935  1.0000
  H   H39       1.0  0.3511652121559337  0.8326037051431642  0.25276175849230503  1.0000
  H   H40       1.0  0.346664058381684  0.7748869451363449  0.30387444789450063  1.0000
  H   H41       1.0  0.3188172458530544  0.8498257902004486  0.3234568898391645  1.0000
  H   H42       1.0  0.3397279779643441  0.7878539405759782  0.45700568135829667  1.0000
  H   H43       1.0  0.3077229071135292  0.8550165303658093  0.49268647922630765  1.0000
  H   H44       1.0  0.2914379391234618  0.8195584167689632  0.3983127146661617  1.0000
  H   H45       1.0  0.6247903392652319  0.7775760336574324  0.4974491128619151  1.0000
  H   H46       1.0  0.5579942382486037  0.9238333465049564  0.3566963145623277  1.0000
  H   H47       1.0  0.48855653079083067  0.8201947646292638  0.3162934982894329  1.0000
  H   H48       1.0  0.476629679145688  0.8795545273056931  0.27003845559290346  1.0000
  H   H49       1.0  0.43031190764432375  0.6595944026493045  0.9555014987874203  1.0000
  H   H50       1.0  0.3740406254747625  0.6459124224374904  0.8656237806080541  1.0000
  H   H51       1.0  0.3284396102423912  0.6041269991210925  0.9176774949292722  1.0000
  H   H52       1.0  0.5114981067571164  0.7512367716764246  0.1939362826181963  1.0000
  H   H53       1.0  0.5295729401596887  0.7029860217963916  0.11977929552058707  1.0000
  H   H54       1.0  0.4432283706027746  0.708236978618672  0.09938882435904627  1.0000
  H   H55       1.0  0.3422951107834535  0.2689103970674864  0.6277074054026316  1.0000
  H   H56       1.0  0.3823362017240584  0.4141981519464367  0.2645377353394097  1.0000
  H   H57       1.0  0.27203121626606463  0.3000931628036057  0.6226138006254588  1.0000
  H   H58       1.0  0.29185825367054  0.26947704444513926  0.5440538048916821  1.0000
  H   H59       1.0  0.8251133648025614  0.016635424374513083  0.981085556694346  1.0000
  H   H60       1.0  0.8313889624807799  0.08188032633542254  0.9393932316214803  1.0000
  H   H61       1.0  0.7403756667498199  0.9928274802295222  0.9056201989247513  1.0000
  H   H62       1.0  0.9817373136119657  0.16234403169104178  0.19214140115963826  1.0000
  H   H63       1.0  0.9370178520633347  0.17010197257568652  0.1104458679639749  1.0000
  H   H64       1.0  0.9305037206887617  0.07821210028642155  0.10294083233575449  1.0000
  H   H65       1.0  0.35994027475138063  0.6174575446650579  0.6106950452442917  1.0000
  H   H66       1.0  0.12105977281668598  0.602195438108865  0.6227617481564212  1.0000
  H   H67       1.0  0.896127608923237  0.36438341123952267  0.4576436965578027  1.0000
  C   C1        1.0  0.7236337389372308  0.7075975312949154  0.6593975565540973  1.0000
  C   C2        1.0  0.5735323194823607  0.7302251118925228  0.4945643975452968  1.0000
  C   C3        1.0  0.43679725053807766  0.47059564109089547  0.29665229950740724  1.0000
  C   C4        1.0  0.4654814376140379  0.28958596014750543  0.5130675219946427  1.0000
  C   C5        1.0  0.33528372120078126  0.5553380682630474  0.5723279961806825  1.0000
  C   C6        1.0  0.4639485075992765  0.5388922302296565  0.28381097086573703  1.0000
  C   C7        1.0  0.26193836570475065  0.4896391435346034  0.5498992292403814  1.0000
  C   C8        1.0  0.49630471729905423  0.7159722141997593  0.4692908854600973  1.0000
  C   C9        1.0  0.259218628999882  0.2688981226270215  0.244363782615011  1.0000
  C   C10       1.0  0.0020115555061934994  0.5483527659934354  0.6136824834077004  1.0000
  C   C11       1.0  0.9374588988558941  0.429171907740887  0.487014420414738  1.0000
  C   C12       1.0  0.5019482210162282  0.25036118550991665  0.483354044430513  1.0000
  C   C13       1.0  0.020709949224922794  0.448350904103542  0.4986290177818945  1.0000
  C   C14       1.0  0.20106319370810158  0.48659961206527674  0.5697060219194726  1.0000
  C   C15       1.0  0.935035139248114  0.4607462920787382  0.5632708951603432  1.0000
  C   C16       1.0  0.470708987019009  0.5149718570736681  0.6921800186845033  1.0000
  C   C17       1.0  0.08199200079749146  0.5535095683459302  0.6311638705390409  1.0000
  C   C18       1.0  0.0719789187049571  0.4734651365667589  0.5811834265392122  1.0000
  C   C19       1.0  0.0257063991220932  0.407860200049001  0.6013133095180765  1.0000
  C   C20       1.0  0.9531045881794071  0.4118610944467776  0.6045131147258263  1.0000
  C   C21       1.0  0.14573431799150427  0.48063721087184774  0.5837348867189436  1.0000
  C   C22       1.0  0.8592913230396562  0.45478893205428506  0.5496450715446458  1.0000
  C   C23       1.0  0.4153285322216149  0.4535777626162768  0.6999578537073604  1.0000
  C   C24       1.0  0.8003570196878442  0.45843133524148544  0.5261629588956752  1.0000
  C   C25       1.0  0.4598672996785139  0.9835380323739217  0.37813873888402594  1.0000
  C   C26       1.0  0.41590629687303965  0.9887695130080093  0.48197855038504417  1.0000
  C   C27       1.0  0.4129213056250833  0.909680560674808  0.4784728723698424  1.0000
  C   C28       1.0  0.6751387656488959  0.4254140017609843  0.42516568266123056  1.0000
  C   C29       1.0  0.4725995359121029  0.7664775771061586  0.4482710948041914  1.0000
  C   C30       1.0  0.4795525639516924  0.0338295752626792  0.4598587930327583  1.0000
  C   C31       1.0  0.4456406018154908  0.897499858461146  0.3628576521879696  1.0000
  C   C32       1.0  0.46583710234008885  0.8927546230978153  0.439718155196495  1.0000
  C   C33       1.0  0.548331267117696  0.9622451447724814  0.5009684149220989  1.0000
  C   C34       1.0  0.7357429798855221  0.46772223855465705  0.4978033792279677  1.0000
  C   C35       1.0  0.557324114971216  0.04384691127228288  0.5098062722881097  1.0000
  C   C36       1.0  0.46270277028316537  0.8182922710650687  0.43595371208990497  1.0000
  C   C37       1.0  0.4900914264060602  0.11273359939124108  0.4719030006435291  1.0000
  C   C38       1.0  0.49911779976416437  0.17880441938444855  0.4816525786253366  1.0000
  C   C39       1.0  0.4301897864577668  0.5461365287460538  0.21654999651489254  1.0000
  C   C40       1.0  0.37990924260370207  0.3860153055200469  0.6306914493605335  1.0000
  C   C41       1.0  0.3684522297044879  0.4775226784294732  0.15193218152899857  1.0000
  C   C42       1.0  0.3487738860361347  0.47953085924360295  0.08370177489445046  1.0000
  C   C43       1.0  0.3892653440856719  0.5504278395782194  0.07771429575475254  1.0000
  C   C44       1.0  0.44329617528251936  0.622650349421207  0.14287780597175745  1.0000
  C   C45       1.0  0.5377984141082945  0.5922688273486685  0.34448155128496444  1.0000
  C   C46       1.0  0.4629496471851269  0.6186804111293114  0.21099810556172124  1.0000
  C   C47       1.0  0.38014255707791716  0.5421093716014909  0.8663010406373105  1.0000
  C   C48       1.0  0.394884205243784  0.5295314397180562  0.8031645419457335  1.0000
  C   C49       1.0  0.36583983541232357  0.48117634993239017  0.8913614285548094  1.0000
  C   C50       1.0  0.39590024092205306  0.4603091971079892  0.7636097728130339  1.0000
  C   C51       1.0  0.37617467099931895  0.3987564530454435  0.7865115720395651  1.0000
  C   C52       1.0  0.7208679083088326  0.5272692930701839  0.5337170188615091  1.0000
  C   C53       1.0  0.36092251403460546  0.409314982395756  0.848823209793885  1.0000
  C   C54       1.0  0.7782026852080787  0.8479495891234736  0.7628393622540913  1.0000
  C   C55       1.0  0.7659976673462764  0.8955877353344376  0.8177013206460517  1.0000
  C   C56       1.0  0.2631466225264915  0.42602325411429826  0.4997832068166091  1.0000
  C   C57       1.0  0.8237293978494263  0.97226170242876  0.8721865558128173  1.0000
  C   C58       1.0  0.8986734831292366  0.0024862090084097695  0.8715228921720809  1.0000
  C   C59       1.0  0.9086218762888122  0.9590613747095774  0.8118790991087014  1.0000
  C   C60       1.0  0.8501275782798458  0.8828872881425626  0.7587926428033641  1.0000
  C   C61       1.0  0.11380237954416117  0.1722819222036662  0.044258905025642996  1.0000
  C   C62       1.0  0.18437446870154156  0.21387992538583228  0.10642230623927422  1.0000
  C   C63       1.0  0.042995113202529495  0.14685540895592913  0.051597447443001015  1.0000
  C   C64       1.0  0.5337334533927985  0.29292279016279116  0.4459886732516481  1.0000
  C   C65       1.0  0.1865826383411502  0.23090793098792525  0.17816269927727293  1.0000
  C   C66       1.0  0.11561834950227731  0.2087028150704811  0.18475971463389843  1.0000
  C   C67       1.0  0.45474782892709  0.6476461646850639  0.47832795495701685  1.0000
  C   C68       1.0  0.04392099011691639  0.16776708034865354  0.12330386191094792  1.0000
  C   C69       1.0  0.6409925864006851  0.7238289232830938  0.7026425235396588  1.0000
  C   C70       1.0  0.7182622807259731  0.7653907343829189  0.7117396817477798  1.0000
  C   C71       1.0  0.36025520847174863  0.8348982177538389  0.308226715941558  1.0000
  C   C72       1.0  0.3329391293570012  0.8386188959739871  0.4543887148844094  1.0000
  C   C73       1.0  0.49582228000868167  0.8795896917102369  0.3248591834336311  1.0000
  C   C74       1.0  0.37812370177549326  0.6170118222793448  0.9029862709552036  1.0000
  C   C75       1.0  0.483922837656621  0.7006041049315218  0.13894083274878014  1.0000
  C   C76       1.0  0.3183467610807326  0.30185104938284724  0.6049324018778393  1.0000
  C   C77       1.0  0.8039137969185502  0.018255048687464484  0.9273737091596389  1.0000
  C   C78       1.0  0.33275151824558685  0.27803140866847537  0.2512989535900729  1.0000
  C   C79       1.0  0.9694981687162139  0.14343120490735098  0.13305365963342541  1.0000
  C   C80       1.0  0.27074501976685633  0.3036050360236048  0.31844569203011736  1.0000
  Br  Br1       1.0  0.18419755964761458  0.31806987144691595  0.4509480514207881  1.0000
  Br  Br2       1.0  0.9936989850673683  0.6212601520627602  0.5686494402840199  1.0000
  Br  Br3       1.0  0.09093546176264769  0.4170297884760075  0.6964883884196739  1.0000
  Br  Br4       1.0  0.31481465856947466  0.9770558897926664  0.4230002002059693  1.0000
  Br  Br5       1.0  0.640975212993048  0.9560791374803871  0.4939690327200169  1.0000
  N   N1        1.0  0.655035872773837  0.6377994652762667  0.6211784650758646  1.0000
  N   N2        1.0  0.3604131939392373  0.48380156104913397  0.9579979156309123  1.0000
  N   N3        1.0  0.9692543069802114  0.06866749904051522  0.9281336430593756  1.0000
  N   N4        1.0  0.4734385473880564  0.3492439863155639  0.4927309650524664  1.0000
  N   N5        1.0  0.9691594592117881  0.09301839297568641  0.9920224358286307  1.0000
  N   N6        1.0  0.46835418993877187  0.4871472112017655  0.62348367343985  1.0000
  N   N7        1.0  0.6285716288054813  0.4574254967006439  0.4180348151267097  1.0000
  N   N8        1.0  0.41136114250516437  0.4081988130853489  0.5858605168745968  1.0000
  N   N9        1.0  0.6575621362307585  0.5209370798464619  0.485775640723503  1.0000
  N   N10       1.0  0.5155223750175182  0.3511493447384951  0.45193210252593735  1.0000
  N   N11       1.0  0.6042676192654851  0.6486160884950252  0.648937495753053  1.0000
  N   N12       1.0  0.33056012021026493  0.45091840238544734  0.4926995509146082  1.0000
  N   N13       1.0  0.5537108692356442  0.5575889570207764  0.3882288302900748  1.0000
  N   N14       1.0  0.5039738145896634  0.6242287854678921  0.507684125497832  1.0000
  N   N15       1.0  0.3834841752396798  0.3145947648653476  0.3234061357112666  1.0000
  N   N16       1.0  0.3443932254988056  0.3305435670739172  0.36510849551142854  1.0000
  N   N17       1.0  0.5772760493842384  0.675707735181426  0.5176685944118306  1.0000
  N   N18       1.0  0.49107135677954245  0.4824126590629517  0.35892470140885996  1.0000
  N   N19       1.0  0.3752284132512571  0.5316312888509033  0.5384035738546019  1.0000
  N   N20       1.0  0.3854859455169403  0.552487626201625  0.009482271042060153  1.0000
