data_image0
_chemical_formula_structural       Na2H56Au2C48N16Cl8O16
_chemical_formula_sum              "Na2 H56 Au2 C48 N16 Cl8 O16"
_cell_length_a       7.8597337125026705
_cell_length_b       14.161415003668354
_cell_length_c       14.6537255894677
_cell_angle_alpha    90.52342607670647
_cell_angle_beta     90.02965005662786
_cell_angle_gamma    106.06320203798299

_space_group_name_H-M_alt    "P 1"
_space_group_IT_number       1

loop_
  _space_group_symop_operation_xyz
  'x, y, z'

loop_
  _atom_site_type_symbol
  _atom_site_label
  _atom_site_symmetry_multiplicity
  _atom_site_fract_x
  _atom_site_fract_y
  _atom_site_fract_z
  _atom_site_occupancy
  Na  Na1       1.0  0.17346368868135195  0.9999401509565263  0.2500213963406495  1.0000
  Na  Na2       1.0  0.8265384427212298  5.868396170430009e-05  0.7499794662624311  1.0000
  H   H1        1.0  0.0729099462632732  0.32166940796556537  0.6811148721793074  1.0000
  H   H2        1.0  0.24978261770237253  0.32204910273341625  0.1809312336220472  1.0000
  H   H3        1.0  0.927090006997112  0.6783301602958433  0.3188866810502731  1.0000
  H   H4        1.0  0.750222624829945  0.6779534190459202  0.8190655776527579  1.0000
  H   H5        1.0  0.11395420640555191  0.21669218029705925  0.7334182928504518  1.0000
  H   H6        1.0  0.10430236218017802  0.21708381424512885  0.2333151269900569  1.0000
  H   H7        1.0  0.8860450137839349  0.7833059203744382  0.2665825608260803  1.0000
  H   H8        1.0  0.8957028818342392  0.7829187118155189  0.7666803194881665  1.0000
  H   H9        1.0  0.29519703315659745  0.310923897925619  0.687608765615998  1.0000
  H   H10       1.0  0.0167339891679532  0.31120241511815294  0.1874263758146597  1.0000
  H   H11       1.0  0.7048027275976595  0.6890727391280008  0.3123900238854986  1.0000
  H   H12       1.0  0.9832703466346684  0.6888008375544243  0.81257180865952  1.0000
  H   H13       1.0  0.6103127680175716  0.9222397532534072  0.0640717423314001  1.0000
  H   H14       1.0  0.31066570282072087  0.9219839226239657  0.5642580481312437  1.0000
  H   H15       1.0  0.3896853573824117  0.07775615994749069  0.9359236264266783  1.0000
  H   H16       1.0  0.6893345940519993  0.0780112379678357  0.4357427715849482  1.0000
  H   H17       1.0  0.813302946487333  0.013487506472238  0.0837873936073663  1.0000
  H   H18       1.0  0.19889939127761377  0.013310157316595898  0.5840083227232783  1.0000
  H   H19       1.0  0.18668830235580464  0.9865150187091062  0.9162094157470051  1.0000
  H   H20       1.0  0.8011007326773549  0.9866872038990238  0.41599388734704223  1.0000
  H   H21       1.0  0.7167947437816551  0.9959154101537919  0.9707941397340392  1.0000
  H   H22       1.0  0.27778654576799505  0.9957317648817892  0.4710377140346935  1.0000
  H   H23       1.0  0.2832026455832235  0.0040790268945585  0.0292032590641611  1.0000
  H   H24       1.0  0.7222037430887269  0.004261186857100099  0.5289651259221557  1.0000
  H   H25       1.0  0.08238902734832003  0.6993006717130825  0.9530456420788979  1.0000
  H   H26       1.0  0.6158919276311892  0.6996979088645786  0.4527162997277046  1.0000
  H   H27       1.0  0.9176191293612915  0.3007025928756164  0.04694844852929239  1.0000
  H   H28       1.0  0.3840967521290892  0.30029947011911423  0.5472811319833255  1.0000
  H   H29       1.0  0.7505926007131761  0.508085700123452  0.27889694743880267  1.0000
  H   H30       1.0  0.7577647857707603  0.5085353149953633  0.778820495036662  1.0000
  H   H31       1.0  0.2494078938530251  0.49191240666074526  0.7211018592174412  1.0000
  H   H32       1.0  0.2422337231593659  0.4914664563397935  0.22118176597417258  1.0000
  H   H33       1.0  0.6050113524878923  0.4817037272088597  0.1830366784407644  1.0000
  H   H34       1.0  0.876725487116353  0.4820715678881412  0.6829396868008074  1.0000
  H   H35       1.0  0.3949829520050939  0.5182921740759099  0.8169627841833105  1.0000
  H   H36       1.0  0.12327356089643614  0.5179287355478266  0.31706187483155895  1.0000
  H   H37       1.0  0.5270198865178131  0.5118494360287896  0.29177297995686763  1.0000
  H   H38       1.0  0.9850716976772985  0.5121801654282976  0.7916682166882935  1.0000
  H   H39       1.0  0.47297679084665134  0.4881486695425679  0.7082265085739223  1.0000
  H   H40       1.0  0.014926811993880993  0.48782160804751845  0.20833336192424673  1.0000
  H   H41       1.0  0.772581965597432  0.125976315811144  0.2497821381990093  1.0000
  H   H42       1.0  0.3548491563820022  0.126433719797582  0.7496353469715373  1.0000
  H   H43       1.0  0.22740888711768997  0.8740203148447705  0.7502193796735597  1.0000
  H   H44       1.0  0.6451544404213081  0.8735680481598249  0.2503675971359201  1.0000
  H   H45       1.0  0.5613365995235854  0.07412494673927482  0.1974519475609853  1.0000
  H   H46       1.0  0.514019392890482  0.07444930250353819  0.6972387971872749  1.0000
  H   H47       1.0  0.4386517074023075  0.925871680253863  0.8025509347589904  1.0000
  H   H48       1.0  0.48598293175927404  0.9255524657631398  0.302764146745595  1.0000
  H   H49       1.0  0.7168559821710049  0.17623190835124095  0.1454580351591517  1.0000
  H   H50       1.0  0.46033948552897647  0.17657905313244973  0.6452608895381147  1.0000
  H   H51       1.0  0.2831325172610164  0.8237676498496854  0.8545476108889076  1.0000
  H   H52       1.0  0.5396542813634468  0.823418320332827  0.3547379076678324  1.0000
  H   H53       1.0  0.3780511024273848  0.3908000710776633  0.37808206550401025  1.0000
  H   H54       1.0  0.013229801358434651  0.3912523429722157  0.8780552251319378  1.0000
  H   H55       1.0  0.621944326818209  0.60920317947852  0.62191748254466  1.0000
  H   H56       1.0  0.9867734585020074  0.6087538519207171  0.12194231090428789  1.0000
  Au  Au1       1.0  0.5000035808004526  0.5000025074793868  4.321012056599747e-06  1.0000
  Au  Au2       1.0  9.842193911362507e-06  0.5000039084547723  0.4999956281367304  1.0000
  C   C1        1.0  0.1557385511778122  0.2707615548836557  0.6791948725461836  1.0000
  C   C2        1.0  0.11622970021558389  0.2710900073637745  0.1790499411448536  1.0000
  C   C3        1.0  0.8442593968581135  0.7292365460971125  0.32080598095576823  1.0000
  C   C4        1.0  0.8837733656566299  0.7289132520400513  0.8209461959598698  1.0000
  C   C5        1.0  0.9741566786591136  0.15099533547162022  0.5740435388029397  1.0000
  C   C6        1.0  0.17788257649095837  0.1510018221961076  0.0741171281034951  1.0000
  C   C7        1.0  0.025841609283894104  0.8489983471362519  0.42595999317708083  1.0000
  C   C8        1.0  0.8221174082146234  0.8490029121474266  0.9258776608356456  1.0000
  C   C9        1.0  0.7386042641140949  0.9601204358231286  0.0338454105122068  1.0000
  C   C10       1.0  0.220215357005003  0.959940421684742  0.5340483646518095  1.0000
  C   C11       1.0  0.26139495903959903  0.0398776734109987  0.9661527135711623  1.0000
  C   C12       1.0  0.7797798482892658  0.0400547315815274  0.4659551839592169  1.0000
  C   C13       1.0  0.07713148892849378  0.13461133913880727  0.4165869013572063  1.0000
  C   C14       1.0  0.05881083921342168  0.13469222632539157  0.9165339919834921  1.0000
  C   C15       1.0  0.9228600691175827  0.8653816037281744  0.5834186683673863  1.0000
  C   C16       1.0  0.9412122360213289  0.8653154315183473  0.0834642462245441  1.0000
  C   C17       1.0  0.24303418153161965  0.2054595634800762  0.44015954930297607  1.0000
  C   C18       1.0  0.9639464926787582  0.20576065472900495  0.9399452187447679  1.0000
  C   C19       1.0  0.7569517802627458  0.7945400146053173  0.5598399548113022  1.0000
  C   C20       1.0  0.03607294123621324  0.7942448098407056  0.0600495813905155  1.0000
  C   C21       1.0  0.26303529403588033  0.24597245429078643  0.5257667309525544  1.0000
  C   C22       1.0  0.9843632798480328  0.24629949735017928  0.025551595220818495  1.0000
  C   C23       1.0  0.7369521120887369  0.754024920720866  0.4742320653804768  1.0000
  C   C24       1.0  0.01564996918108342  0.7537037767047108  0.9744390840942572  1.0000
  C   C25       1.0  0.6136578149348679  0.474443394115461  0.2571624035887652  1.0000
  C   C26       1.0  0.8610235596961076  0.4748362479792192  0.7570670689831188  1.0000
  C   C27       1.0  0.3863401345831575  0.5255547111466257  0.7428370851166051  1.0000
  C   C28       1.0  0.13897695594057766  0.5251669949178959  0.24293452695875573  1.0000
  C   C29       1.0  0.644266067062027  0.309571753935046  0.2360251918466432  1.0000
  C   C30       1.0  0.6660685869029804  0.3099528270938166  0.7358141910567398  1.0000
  C   C31       1.0  0.35572351127638063  0.6904248706081689  0.7639783730462141  1.0000
  C   C32       1.0  0.33393176100331345  0.6900526314117242  0.2641840184512247  1.0000
  C   C33       1.0  0.6656138738005025  0.1422699268075363  0.2100897142888982  1.0000
  C   C34       1.0  0.4779122093923506  0.14264668263538027  0.7098902665191886  1.0000
  C   C35       1.0  0.33437570453790494  0.8577266977356713  0.7899138506039519  1.0000
  C   C36       1.0  0.5220888460680512  0.857355094503198  0.29010994764593784  1.0000
  C   C37       1.0  0.4626845080861344  0.1717638473818326  0.3265717087290056  1.0000
  C   C38       1.0  0.7106052615080288  0.1721498012209253  0.8262900702587643  1.0000
  C   C39       1.0  0.5373074649352814  0.82824011970154  0.6734339889579033  1.0000
  C   C40       1.0  0.2894049011670887  0.8278549327890802  0.17370403767876036  1.0000
  C   C41       1.0  0.381385482502047  0.23984024089784836  0.3707413509606283  1.0000
  C   C42       1.0  0.8598774754602799  0.24019516953339348  0.8704786793386248  1.0000
  C   C43       1.0  0.6185995725626229  0.7601600680807934  0.6292595263530244  1.0000
  C   C44       1.0  0.140137950228933  0.7598073668970072  0.1295126741465253  1.0000
  C   C45       1.0  0.4351127791718525  0.3364622058664323  0.3467157743663023  1.0000
  C   C46       1.0  0.9021473840271524  0.3368496184592544  0.8465904068685576  1.0000
  C   C47       1.0  0.5648764600005265  0.6635388391903377  0.653284429650185  1.0000
  C   C48       1.0  0.09785822392903037  0.6631536339040522  0.1534077777802096  1.0000
  N   N1        1.0  0.13445643925605566  0.22062462892207438  0.5904677307509729  1.0000
  N   N2        1.0  0.08741822477718839  0.2208437646174986  0.09037438794798189  1.0000
  N   N3        1.0  0.8655369562840886  0.7793719968339727  0.4095351522673454  1.0000
  N   N4        1.0  0.9125902951331425  0.7791602241332001  0.9096231232290393  1.0000
  N   N5        1.0  0.8404545997578193  0.8900562699417375  0.013041545941113997  1.0000
  N   N6        1.0  0.048412040770990934  0.890007716825288  0.5131258077278105  1.0000
  N   N7        1.0  0.15955699983704358  0.10994623958794142  0.9869586781980644  1.0000
  N   N8        1.0  0.9515802503459767  0.1099866936316118  0.4868804615498306  1.0000
  N   N9        1.0  0.5599913469905147  0.3706215617447556  0.2816490287722928  1.0000
  N   N10       1.0  0.8111595861649051  0.37101357039249183  0.7815289672623535  1.0000
  N   N11       1.0  0.4400056950567687  0.6293772722699129  0.7183525155307393  1.0000
  N   N12       1.0  0.18884093169493338  0.6289896789265937  0.2184705814846524  1.0000
  N   N13       1.0  0.5898626441092176  0.21110886880601495  0.2600368218391367  1.0000
  N   N14       1.0  0.6225255767942173  0.21147726065677117  0.7597480338887266  1.0000
  N   N15       1.0  0.4101294785363123  0.7888877551186511  0.7399667434028886  1.0000
  N   N16       1.0  0.37747748907799666  0.788525998747055  0.24024810321599693  1.0000
  Cl  Cl1       1.0  0.20251492007537308  0.48441137346747354  0.0162151997203779  1.0000
  Cl  Cl2       1.0  0.2817637562063596  0.4840640907148455  0.5162426422860875  1.0000
  Cl  Cl3       1.0  0.7974924939296815  0.5155903957027661  0.9837870625125404  1.0000
  Cl  Cl4       1.0  0.718259324215751  0.5159435821134934  0.4837508191339097  1.0000
  Cl  Cl5       1.0  0.43737734201451434  0.3448152501401652  0.9348168392709725  1.0000
  Cl  Cl6       1.0  0.9076883831419237  0.34493945445494495  0.43456897075619594  1.0000
  Cl  Cl7       1.0  0.5626326321807793  0.6551916395398435  0.0651929893847836  1.0000
  Cl  Cl8       1.0  0.09230289492326445  0.6550682303865614  0.5654231215026186  1.0000
  O   O1        1.0  0.8602298831284898  0.1272116750036645  0.6342914540479895  1.0000
  O   O2        1.0  0.267745134904537  0.12707274672752075  0.1344963088698421  1.0000
  O   O3        1.0  0.13976947556933783  0.8727790503992594  0.3657175031580167  1.0000
  O   O4        1.0  0.7322597303470813  0.8729290102173194  0.865510047403653  1.0000
  O   O5        1.0  0.9418408927019968  0.9042867387296095  0.1603663109911935  1.0000
  O   O6        1.0  0.9611824228251532  0.9042311514449394  0.6603716868918639  1.0000
  O   O7        1.0  0.058190528936641804  0.09571725301679382  0.839628473735182  1.0000
  O   O8        1.0  0.038810160129521896  0.0957485512879614  0.3396371414789101  1.0000
  O   O9        1.0  0.7581961119491112  0.3425874989192792  0.17765595944197093  1.0000
  O   O10       1.0  0.5848559767324771  0.3429687557492329  0.6774879195082661  1.0000
  O   O11       1.0  0.24179581819029752  0.6574061937975985  0.8223448420719706  1.0000
  O   O12       1.0  0.4151412833377179  0.6570381584300904  0.322515083418736  1.0000
  O   O13       1.0  0.4259351050013578  0.082189748590956  0.343853788887813  1.0000
  O   O14       1.0  0.6579128596058794  0.0825940590676524  0.8436397376528362  1.0000
  O   O15       1.0  0.574067204086319  0.9178119747219072  0.6561634854091665  1.0000
  O   O16       1.0  0.3420940242091177  0.9174092036896652  0.156355035179061  1.0000
