data_image0
_chemical_formula_structural       Co2H40C44N4O8
_chemical_formula_sum              "Co2 H40 C44 N4 O8"
_cell_length_a       8.798246896469132
_cell_length_b       10.154385787347508
_cell_length_c       11.681827877055614
_cell_angle_alpha    68.64238728030324
_cell_angle_beta     84.86502936001473
_cell_angle_gamma    78.06545154603515

_space_group_name_H-M_alt    "P 1"
_space_group_IT_number       1

loop_
  _space_group_symop_operation_xyz
  'x, y, z'

loop_
  _atom_site_type_symbol
  _atom_site_label
  _atom_site_symmetry_multiplicity
  _atom_site_fract_x
  _atom_site_fract_y
  _atom_site_fract_z
  _atom_site_occupancy
  Co  Co1       1.0  0.3580553979314089  0.843244710373234  0.056886762235492994  1.0000
  Co  Co2       1.0  0.6419343462567895  0.15675093669519669  0.9431160346125793  1.0000
  H   H1        1.0  0.3775318195748057  0.3958534907912393  0.028839141682667054  1.0000
  H   H2        1.0  0.6224554275352858  0.6041432431825485  0.9711634890229917  1.0000
  H   H3        1.0  0.017792598917743915  0.1448245888107778  0.1680990476847697  1.0000
  H   H4        1.0  0.9822008632697818  0.8551753437715347  0.8319021310395414  1.0000
  H   H5        1.0  0.9600670185481661  0.5696710098627022  0.18617861489784807  1.0000
  H   H6        1.0  0.03992248963772482  0.4303257208922274  0.8138204321178151  1.0000
  H   H7        1.0  0.7204213573978038  0.3837213394982583  0.17184862258128666  1.0000
  H   H8        1.0  0.2795697475032314  0.6162732240573376  0.8281552760631358  1.0000
  H   H9        1.0  0.782885310483465  0.39427249105913387  0.30832770133100956  1.0000
  H   H10       1.0  0.21710899664795152  0.6057231370898747  0.6916739214746317  1.0000
  H   H11       1.0  0.8052403738220165  0.22502130393566944  0.289658682205733  1.0000
  H   H12       1.0  0.1947550871567857  0.7749743154715103  0.7103445735192225  1.0000
  H   H13       1.0  0.4679752755398142  0.8414550147622818  0.8079925428945671  1.0000
  H   H14       1.0  0.5320307565941889  0.1585448591049925  0.19200861792959503  1.0000
  H   H15       1.0  0.4039659084554754  0.9784088440144673  0.5887877239044029  1.0000
  H   H16       1.0  0.5960369943493476  0.021595344637375995  0.411213151764116  1.0000
  H   H17       1.0  0.9985786800784171  0.21660340396062588  0.7124722845776502  1.0000
  H   H18       1.0  0.001425638858322029  0.783405085905656  0.2875245633195505  1.0000
  H   H19       1.0  0.07994267477839401  0.07293873730975518  0.9238778662742888  1.0000
  H   H20       1.0  0.9200533632158071  0.927065485962075  0.07612177378910435  1.0000
  H   H21       1.0  0.06174983549826863  0.292991643513524  0.4932552212756676  1.0000
  H   H22       1.0  0.9382565434762073  0.7070179161218063  0.5067394302455881  1.0000
  H   H23       1.0  0.09131074581289064  0.13140760436108678  0.4644851253181983  1.0000
  H   H24       1.0  0.908692436758578  0.868600888897731  0.5355126582329178  1.0000
  H   H25       1.0  0.37768038448387403  0.14946164329136016  0.4171295217336706  1.0000
  H   H26       1.0  0.622322707704271  0.8505414759387832  0.5828682542386263  1.0000
  H   H27       1.0  0.23953847040163373  0.27234237799527955  0.3121354979909158  1.0000
  H   H28       1.0  0.7604678356716335  0.7276618022620766  0.6878617145247645  1.0000
  H   H29       1.0  0.4308038364623813  0.39949360236370507  0.33224663033944074  1.0000
  H   H30       1.0  0.5692048704783019  0.6005041187427125  0.6677498845487689  1.0000
  H   H31       1.0  0.2530569090732869  0.46398001349604096  0.3938796367094922  1.0000
  H   H32       1.0  0.7469528906517483  0.5360295323954958  0.6061139202321685  1.0000
  H   H33       1.0  0.36045703034579196  0.36293487714926437  0.8125571030875136  1.0000
  H   H34       1.0  0.6395458694209709  0.6370574975897296  0.18743894534499358  1.0000
  H   H35       1.0  0.2320515229845981  0.44353189851117486  0.6091577909892223  1.0000
  H   H36       1.0  0.7679616129350536  0.5564722578247936  0.39083551998511024  1.0000
  H   H37       1.0  0.6450066176496209  0.22192117555130156  0.4819516975255524  1.0000
  H   H38       1.0  0.35500791394710535  0.7780818865732397  0.5180478523915966  1.0000
  H   H39       1.0  0.7545876471174395  0.14854790018432598  0.6913389645313613  1.0000
  H   H40       1.0  0.245413099438963  0.8514498464529012  0.3086632437432045  1.0000
  C   C1        1.0  0.17336593919928586  0.495681371083137  0.10505916795415259  1.0000
  C   C2        1.0  0.8266225724129512  0.5043089071322484  0.8949437007779508  1.0000
  C   C3        1.0  0.2628948848363706  0.38437754329045487  0.07068523200941006  1.0000
  C   C4        1.0  0.7370997253711735  0.6156223823331287  0.9293167234431436  1.0000
  C   C5        1.0  0.2058391258153378  0.2580110020812825  0.09376453502491701  1.0000
  C   C6        1.0  0.794153619565172  0.7419867825684604  0.9062373732984454  1.0000
  C   C7        1.0  0.05974320997530922  0.24434164498191538  0.15048427138682294  1.0000
  C   C8        1.0  0.9402593343343073  0.7556528614680786  0.8495214012024447  1.0000
  C   C9        1.0  0.9685877121019785  0.3551244038466805  0.1840781116126209  1.0000
  C   C10       1.0  0.03140757393755684  0.6448604657200433  0.8159259851457891  1.0000
  C   C11       1.0  0.02717348332330974  0.48076296934590346  0.16095971718097252  1.0000
  C   C12       1.0  0.9728132654999584  0.5192305383581157  0.83904482438291  1.0000
  C   C13       1.0  0.23592257959305143  0.6286726733622955  0.08454835320612371  1.0000
  C   C14       1.0  0.7640738488225481  0.3713294074999283  0.915446799846997  1.0000
  C   C15       1.0  0.3005141653958391  0.1357294047200739  0.061233023578552113  1.0000
  C   C16       1.0  0.6994735420641263  0.8642651654469162  0.938775394409781  1.0000
  C   C17       1.0  0.8111659498430726  0.33893198239862693  0.24211760915802924  1.0000
  C   C18       1.0  0.1888276404813213  0.6610614978178049  0.7578847432466488  1.0000
  C   C19       1.0  0.36558962166640924  0.9268123842584681  0.7823739577092753  1.0000
  C   C20       1.0  0.6344093562736506  0.07318859365049238  0.21762906720598343  1.0000
  C   C21       1.0  0.32795542718616133  0.0033910904192992982  0.6599564252445518  1.0000
  C   C22       1.0  0.6720461265605807  0.996614178179172  0.3400450610097891  1.0000
  C   C23       1.0  0.19514134159463484  0.11191322823012233  0.6288619836856029  1.0000
  C   C24       1.0  0.8048609289591226  0.8880941883009258  0.3711387729696938  1.0000
  C   C25       1.0  0.10403077602229874  0.13450529751960968  0.7269881309395886  1.0000
  C   C26       1.0  0.8959684816844061  0.8654999849963261  0.27301180185826723  1.0000
  C   C27       1.0  0.14918868882522676  0.05369021630576038  0.8474971720984995  1.0000
  C   C28       1.0  0.8508116994193671  0.9463150646007392  0.1525009688543548  1.0000
  C   C29       1.0  0.15012259296079122  0.19727664134435227  0.4968054461698229  1.0000
  C   C30       1.0  0.8498778127659251  0.8027286342128547  0.5031952633562753  1.0000
  C   C31       1.0  0.28256098189002193  0.2424525712257406  0.40498899686358664  1.0000
  C   C32       1.0  0.7174443888560377  0.7575505394362447  0.5950077639919586  1.0000
  C   C33       1.0  0.3479264806294183  0.36996208271748526  0.40944416177772064  1.0000
  C   C34       1.0  0.6520821040017709  0.6300420889717059  0.5905520356212008  1.0000
  C   C35       1.0  0.4192406245135913  0.33497277056297037  0.7361551104037787  1.0000
  C   C36       1.0  0.5807616663115952  0.665022824922829  0.263844243779829  1.0000
  C   C37       1.0  0.3491519618639175  0.37904857553581905  0.6229155241776142  1.0000
  C   C38       1.0  0.6508611915378568  0.62095557545085  0.37708035536995504  1.0000
  C   C39       1.0  0.4263319740976499  0.3371072247403503  0.5282970930883764  1.0000
  C   C40       1.0  0.5736802614590388  0.6628958513016556  0.47170090337229453  1.0000
  C   C41       1.0  0.5771481746946847  0.2558966826886291  0.5526113963194348  1.0000
  C   C42       1.0  0.42286592568903814  0.7441085343272106  0.44738664727042726  1.0000
  C   C43       1.0  0.6397797002473667  0.21571195952878233  0.668186474063802  1.0000
  C   C44       1.0  0.3602250993106751  0.7842825454854532  0.3318147586443845  1.0000
  N   N1        1.0  0.2791459136526912  0.9516435562901504  0.8761046971429638  1.0000
  N   N2        1.0  0.720852924495752  0.0483638775508837  0.12389544170977018  1.0000
  N   N3        1.0  0.5614281747331304  0.25188748203854067  0.7602825265431719  1.0000
  N   N4        1.0  0.43857483289907156  0.7481102613798285  0.23971609804139152  1.0000
  O   O1        1.0  0.16102748753872487  0.7267466675050257  0.1233305593881155  1.0000
  O   O2        1.0  0.8389773674383961  0.2732532222364838  0.8766655437524093  1.0000
  O   O3        1.0  0.36705464726766485  0.6427109265592319  0.02933522684281094  1.0000
  O   O4        1.0  0.6329299804548258  0.35729334490270037  0.9706669202311389  1.0000
  O   O5        1.0  0.42188825021380455  0.1563812070803435  0.994901107161759  1.0000
  O   O6        1.0  0.5780992095891052  0.8436144503393448  0.005101848612000089  1.0000
  O   O7        1.0  0.25244278835793926  0.01612994476483459  0.1017918036347467  1.0000
  O   O8        1.0  0.7475666032801769  0.9838645324144795  0.8982125359864028  1.0000
