data_image0
_chemical_formula_structural       Zn6H4C44Cl8O24
_chemical_formula_sum              "Zn6 H4 C44 Cl8 O24"
_cell_length_a       19.970002163610918
_cell_length_b       19.970104835875357
_cell_length_c       19.970119594514575
_cell_angle_alpha    65.94885931294185
_cell_angle_beta     72.74221293984345
_cell_angle_gamma    107.2043481210675

_space_group_name_H-M_alt    "P 1"
_space_group_IT_number       1

loop_
  _space_group_symop_operation_xyz
  'x, y, z'

loop_
  _atom_site_type_symbol
  _atom_site_label
  _atom_site_symmetry_multiplicity
  _atom_site_fract_x
  _atom_site_fract_y
  _atom_site_fract_z
  _atom_site_occupancy
  Zn  Zn1       1.0  0.44510800007578405  0.945107730339622  0.5000002877861507  1.0000
  Zn  Zn2       1.0  0.5550059075946334  0.05500439827914492  0.4999978220839339  1.0000
  Zn  Zn3       1.0  0.5547240057977869  0.49965407051740807  0.9449290210465195  1.0000
  Zn  Zn4       1.0  0.4445810976485659  0.49965176621716273  0.05507151947016097  1.0000
  Zn  Zn5       1.0  0.999445624977035  0.9394366992097147  0.06000719958630924  1.0000
  Zn  Zn6       1.0  0.9994453240558626  0.05945244794582278  0.9399916961450504  1.0000
  H   H1        1.0  0.5958654149816026  0.8061336987998118  0.7897222840795666  1.0000
  H   H2        1.0  0.5958642413067209  0.3855887819260106  0.2102704555972323  1.0000
  H   H3        1.0  0.4021460409264676  0.6915068935219963  0.7106543095522256  1.0000
  H   H4        1.0  0.4021512748639323  0.11280158105797262  0.28935758631895675  1.0000
  C   C1        1.0  0.3909749704197622  0.00043206662508050677  0.6094530480598125  1.0000
  C   C2        1.0  0.6098871243833626  0.0004306119484738089  0.3905427683004847  1.0000
  C   C3        1.0  0.27829423119890584  0.00010668652053150283  0.7218071747063989  1.0000
  C   C4        1.0  0.7219134108286909  0.00010341061917523069  0.2781883096990897  1.0000
  C   C5        1.0  0.22102009506632903  0.9996523681660463  0.7786299552922389  1.0000
  C   C6        1.0  0.7782815142731961  0.9996475778909685  0.2213670503163813  1.0000
  C   C7        1.0  0.16888545729936033  0.9992165542354384  0.8303301350486412  1.0000
  C   C8        1.0  0.8295438663889599  0.9992098724750779  0.16966971301728517  1.0000
  C   C9        1.0  0.6091653779330812  0.6091643247151524  0.999998611893013  1.0000
  C   C10       1.0  0.4995314857281769  0.6179361337419422  0.8815965681664438  1.0000
  C   C11       1.0  0.4995317801154541  0.3811285019273924  0.11840600658818097  1.0000
  C   C12       1.0  0.39010029533080365  0.3900995818739759  1.7654101399728842e-06  1.0000
  C   C13       1.0  0.10859507226931694  0.10859584323497273  0.9999985349167846  1.0000
  C   C14       1.0  0.10824460991052078  0.9991637606557047  0.8909194580384469  1.0000
  C   C15       1.0  0.8900813244598921  0.9991586597707071  0.10908171619642815  1.0000
  C   C16       1.0  0.8903814283752495  0.8903813739968315  0.9999992788232108  1.0000
  C   C17       1.0  0.6697761476665529  0.6697751752793905  0.9999999316013946  1.0000
  C   C18       1.0  0.49920645298675465  0.8806830583434575  0.6185240751001901  1.0000
  C   C19       1.0  0.4992089340934953  0.11773305876918984  0.381476120371339  1.0000
  C   C20       1.0  0.7214302905601782  0.7214300166301443  6.263050807428657e-07  1.0000
  C   C21       1.0  0.7781858306885638  0.7781856334898266  6.730379313176583e-07  1.0000
  C   C22       1.0  0.82984338105598  0.8298432518580372  4.072750030786906e-07  1.0000
  C   C23       1.0  0.3294180320752957  0.32941661042882947  1.4780609874440915e-06  1.0000
  C   C24       1.0  0.2777247415815293  0.2777232477550198  0.9999995945622119  1.0000
  C   C25       1.0  0.2208861940232577  0.22088586901399737  0.9999989091704226  1.0000
  C   C26       1.0  0.16919838975427098  0.1691986182146435  0.999998634385918  1.0000
  C   C27       1.0  0.48021380840921046  0.7972713565519668  0.7759727939114287  1.0000
  C   C28       1.0  0.5732418422795859  0.2561844712140058  0.22402700522595612  1.0000
  C   C29       1.0  0.5732393405919324  0.7972654242213865  0.682942769379558  1.0000
  C   C30       1.0  0.480213950266993  0.2561867935989425  0.31705692170803706  1.0000
  C   C31       1.0  0.5528756624892068  0.7812724440320197  0.7715989846812691  1.0000
  C   C32       1.0  0.55287569518061  0.3244760202407448  0.2283979216316255  1.0000
  C   C33       1.0  0.4980177661435617  0.6849401831202114  0.813080392393737  1.0000
  C   C34       1.0  0.4980191754759459  0.3110987476050369  0.18692195132872774  1.0000
  C   C35       1.0  0.42478930049229974  0.7012986959263897  0.8168853383471062  1.0000
  C   C36       1.0  0.5181765721174116  0.24167160804711338  0.1831194893834649  1.0000
  C   C37       1.0  0.5181735829406122  0.7012932772593958  0.7234966361013733  1.0000
  C   C38       1.0  0.4247906072836115  0.2416747222490301  0.27650863722575303  1.0000
  C   C39       1.0  0.4452566305883039  0.7169938834096571  0.7282726008721173  1.0000
  C   C40       1.0  0.44526064679727273  0.17353027026242532  0.27173501714401027  1.0000
  C   C41       1.0  0.49889251781682725  0.8119706151724416  0.6869252754343408  1.0000
  C   C42       1.0  0.4988949133158157  0.18581943150557828  0.31307695884764536  1.0000
  C   C43       1.0  0.330386687806559  0.0005003140299137922  0.6701061219741932  1.0000
  C   C44       1.0  0.6706076758833106  0.0004977412926266174  0.32988701314624086  1.0000
  Cl  Cl1       1.0  0.4557827589700449  0.8583240696165431  0.8090060897755011  1.0000
  Cl  Cl2       1.0  0.6673263908321728  0.26478094462380847  0.1909881199529552  1.0000
  Cl  Cl3       1.0  0.6673234798387423  0.8583106823832195  0.5974540475197405  1.0000
  Cl  Cl4       1.0  0.4557792034600823  0.2647872560650982  0.4025427541279641  1.0000
  Cl  Cl5       1.0  0.32963112616226203  0.6423894111122125  0.9005091411591127  1.0000
  Cl  Cl6       1.0  0.5428827741957605  0.2301325988117853  0.0994998290808837  1.0000
  Cl  Cl7       1.0  0.5428783020997299  0.642379282577508  0.6872515888263566  1.0000
  Cl  Cl8       1.0  0.32963033342519305  0.2301368398756551  0.3127577342090292  1.0000
  O   O1        1.0  0.3663662119846123  0.9520448166722134  0.5856769488813641  1.0000
  O   O2        1.0  0.5377242092731931  0.9520457006760381  0.41432230828326794  1.0000
  O   O3        1.0  0.9142928494241573  0.8615840396045443  0.0527082851538196  1.0000
  O   O4        1.0  0.9142928178331714  0.9670015921027828  0.9472902898039739  1.0000
  O   O5        1.0  0.46331021987881355  0.04868652979369153  0.5853742596704167  1.0000
  O   O6        1.0  0.634064783062179  0.04868605716804817  0.41462053585270564  1.0000
  O   O7        1.0  0.4510744778116089  0.8590622222534421  0.5920127102627433  1.0000
  O   O8        1.0  0.4510777005170468  0.04308931003347282  0.4079879993823639  1.0000
  O   O9        1.0  0.5474799067784628  0.954772209943556  0.5927055665201879  1.0000
  O   O10       1.0  0.5474817894356078  0.14018908284297274  0.407292273474262  1.0000
  O   O11       1.0  0.6337141775279275  0.5853376810277949  0.9516231268653075  1.0000
  O   O12       1.0  0.5369625580825499  0.5853362479810756  0.04837366835307939  1.0000
  O   O13       1.0  0.548530235322552  0.5925697935951176  0.8596061173160623  1.0000
  O   O14       1.0  0.4521751945356556  0.4081376239476243  0.14039493333599048  1.0000
  O   O15       1.0  0.45217502794986314  0.5925682202940123  0.9559618090174028  1.0000
  O   O16       1.0  0.5485303138435853  0.4081378611687754  0.04403948536936771  1.0000
  O   O17       1.0  0.4624117421347833  0.4140771297670868  0.9516663465231973  1.0000
  O   O18       1.0  0.3657411525290328  0.41407565491395104  0.048336208942735895  1.0000
  O   O19       1.0  0.0845833924218269  0.03190389215165371  0.05267729742138984  1.0000
  O   O20       1.0  0.08458194709207582  0.13726166936337586  0.9473202611160121  1.0000
  O   O21       1.0  0.08425746444473947  0.9464856661557804  0.9676167897019217  1.0000
  O   O22       1.0  0.9141000765887596  0.051868240118778816  0.032384818908944644  1.0000
  O   O23       1.0  0.9141030747526954  0.9464829639761306  0.13777181053215778  1.0000
  O   O24       1.0  0.08425693477509809  0.05187340550079262  0.8622289099822424  1.0000
