data_image0
_chemical_formula_structural       Cu4H48C64Cl8O24
_chemical_formula_sum              "Cu4 H48 C64 Cl8 O24"
_cell_length_a       5.043385284
_cell_length_b       11.512465732863392
_cell_length_c       29.1078
_cell_angle_alpha    99.04476611194728
_cell_angle_beta     90.0
_cell_angle_gamma    90.0

_space_group_name_H-M_alt    "P 1"
_space_group_IT_number       1

loop_
  _space_group_symop_operation_xyz
  'x, y, z'

loop_
  _atom_site_type_symbol
  _atom_site_label
  _atom_site_symmetry_multiplicity
  _atom_site_fract_x
  _atom_site_fract_y
  _atom_site_fract_z
  _atom_site_occupancy
  Cu  Cu1       1.0  0.7135584131192445  0.0092107550964755  0.022825493541120102  1.0000
  Cu  Cu2       1.0  0.21355695417855708  0.4907893505826948  0.4771757154565108  1.0000
  Cu  Cu3       1.0  0.2864107972441801  0.9907929745029164  0.977177486757661  1.0000
  Cu  Cu4       1.0  0.7864122561848674  0.5092073425345802  0.5228233918310323  1.0000
  H   H1        1.0  0.020137267783646  0.5391370192365272  0.1757699431604181  1.0000
  H   H2        1.0  0.5201347611339884  0.9608676956022961  0.3242325830716126  1.0000
  H   H3        1.0  0.9798537533266938  0.4608596738807407  0.8242308818797568  1.0000
  H   H4        1.0  0.4798681567473934  0.0391386726778933  0.6757660951350746  1.0000
  H   H5        1.0  0.71756960775555  0.4143335745359948  0.21551932242225294  1.0000
  H   H6        1.0  0.21757013161003866  0.0856700493842339  0.2844831359799471  1.0000
  H   H7        1.0  0.2824114993789166  0.5856683959428679  0.7844828613989847  1.0000
  H   H8        1.0  0.78242287229547  0.9143284028535703  0.7155140193809402  1.0000
  H   H9        1.0  0.36648003194672896  0.2957688507960512  0.16987925364459502  1.0000
  H   H10       1.0  0.8664695941163814  0.20422949576258279  0.3301218459765423  1.0000
  H   H11       1.0  0.6335189203443008  0.7042260832006875  0.8301197442664547  1.0000
  H   H12       1.0  0.1335273753794795  0.7957715951560118  0.6698771912017136  1.0000
  H   H13       1.0  0.3226463790427303  0.2972227639143128  0.0855551664782297  1.0000
  H   H14       1.0  0.8226260272365095  0.2027773417648504  0.4144460425194012  1.0000
  H   H15       1.0  0.6773704184048626  0.7027651336003018  0.9144433939268453  1.0000
  H   H16       1.0  0.17738482182556228  0.7972316651961293  0.5855534868530725  1.0000
  H   H17       1.0  0.4712211869950806  0.3793437876287342  0.9729958212975234  1.0000
  H   H18       1.0  0.9712206631405991  0.1206571976106972  0.5270057859388828  1.0000
  H   H19       1.0  0.5288134556090753  0.6206608215309259  0.0270044652852945  1.0000
  H   H20       1.0  0.0287961343070009  0.879334218144983  0.4729923061181296  1.0000
  H   H21       1.0  0.2519399031501806  0.37579476195892164  0.0201040488816062  1.0000
  H   H22       1.0  0.7519294653198257  0.1242062232805097  0.4798996196579495  1.0000
  H   H23       1.0  0.7480868082732853  0.6242177632431236  0.97989466859228  1.0000
  H   H24       1.0  0.2480893149229431  0.8757878311559677  0.5200989800143248  1.0000
  H   H25       1.0  0.8995763251309015  0.9207228059810859  0.2517373953355744  1.0000
  H   H26       1.0  0.3995907285516012  0.5792599198511041  0.24826410724081432  1.0000
  H   H27       1.0  0.1004246099552972  0.0792615732924702  0.7482606027659884  1.0000
  H   H28       1.0  0.6004042581490764  0.4207499666701437  0.7517365074714918  1.0000
  H   H29       1.0  0.8038330945806038  0.712866003685093  0.21763638198178367  1.0000
  H   H30       1.0  0.30386930874821155  0.7871211199484307  0.2823633327326789  1.0000
  H   H31       1.0  0.1961559437345599  0.2871218938295286  0.7823614913222414  1.0000
  H   H32       1.0  0.6961177467717761  0.21288612789202688  0.71763849211699  1.0000
  H   H33       1.0  0.45636211996370685  0.6695072008550937  0.1557195740428199  1.0000
  H   H34       1.0  0.9563834068561333  0.8304904775016126  0.3442773614253483  1.0000
  H   H35       1.0  0.5436368323273228  0.3304886127019131  0.8442774172533236  1.0000
  H   H36       1.0  0.0436016658686853  0.169510613416989  0.6557240806065894  1.0000
  H   H37       1.0  0.20259209686824417  0.8302186933796846  0.1303858312149799  1.0000
  H   H38       1.0  0.7025915730137555  0.6697851418988705  0.3696121741719693  1.0000
  H   H39       1.0  0.7974187521938276  0.1697771201773222  0.8696097858790638  1.0000
  H   H40       1.0  0.2974073792772742  0.3302141898991948  0.6303898455845243  1.0000
  H   H41       1.0  0.9626014525207154  0.9770991007350602  0.1252311499145691  1.0000
  H   H42       1.0  0.462603959170373  0.5229073732242924  0.3747711421434304  1.0000
  H   H43       1.0  0.0373776718185752  0.0229037493040636  0.8747734934485935  1.0000
  H   H44       1.0  0.5373910275303118  0.4771007541764262  0.6252259276871186  1.0000
  H   H45       1.0  0.9924881241732209  0.1306366883788996  0.1275915801856797  1.0000
  H   H46       1.0  0.49248071684701233  0.36936869466185834  0.3724116746940638  1.0000
  H   H47       1.0  0.0075068625274568  0.8693644025397018  0.8724157022051954  1.0000
  H   H48       1.0  0.5075103042633202  0.6306394327388603  0.6275864257880599  1.0000
  C   C1        1.0  0.649964223514594  0.4168719854611708  0.08226755115286011  1.0000
  C   C2        1.0  0.1499469022125197  0.083125481537202  0.41773383733055885  1.0000
  C   C3        1.0  0.3500486083426466  0.583116791613719  0.917732781693097  1.0000
  C   C4        1.0  0.8500679124399042  0.9168791276224582  0.5822640443985777  1.0000
  C   C5        1.0  0.8410005901107738  0.4873309196201916  0.10879785206220301  1.0000
  C   C6        1.0  0.3409931827845654  0.012669186058978698  0.3912037004859599  1.0000
  C   C7        1.0  0.1590062933609531  0.512663134816286  0.8912014347111281  1.0000
  C   C8        1.0  0.6590216318678515  0.9873363026609425  0.6087952665830086  1.0000
  C   C9        1.0  0.8664061446708189  0.4859341779191553  0.1563738328978275  1.0000
  C   C10       1.0  0.3663967545494415  0.0140685664408053  0.3436282272655973  1.0000
  C   C11       1.0  0.1336007388009008  0.5140633947583808  0.8436273903811227  1.0000
  C   C12       1.0  0.6336160773078063  0.985937801839384  0.6563704509410897  1.0000
  C   C13       1.0  0.6961633510607682  0.4165878874955311  0.1784522793349552  1.0000
  C   C14       1.0  0.1961539609393839  0.0834148568644295  0.3215501243789944  1.0000
  C   C15       1.0  0.3038375840254375  0.583409685182005  0.8215489439439949  1.0000
  C   C16       1.0  0.8038568881226879  0.9165888727349625  0.6784477026618988  1.0000
  C   C17       1.0  0.5002493083373948  0.3496691834036696  0.1527666734758171  1.0000
  C   C18       1.0  0.0002319870353205  0.1503326813960228  0.3472353319993573  1.0000
  C   C19       1.0  0.49975955792950083  0.6503275097135983  0.8472331209127759  1.0000
  C   C20       1.0  0.9997729136412303  0.8496692890828399  0.652763759867142  1.0000
  C   C21       1.0  0.4768662048544741  0.34973778910435266  0.10506516957154591  1.0000
  C   C22       1.0  0.9768498186386054  0.15026319613507869  0.3949364376648604  1.0000
  C   C23       1.0  0.5231505925931188  0.650257144892386  0.8949352025416103  1.0000
  C   C24       1.0  0.0231669788089874  0.8497422925848426  0.6050625294041083  1.0000
  C   C25       1.0  0.4543594968383146  0.3535023070391219  0.0075312830357745  1.0000
  C   C26       1.0  0.9543530245983121  0.1465030760016361  0.4924716282934511  1.0000
  C   C27       1.0  0.5456652317899753  0.6465040612410675  0.9924687693730192  1.0000
  C   C28       1.0  0.045663772849287895  0.8534980149169655  0.5075274088848047  1.0000
  C   C29       1.0  0.4880452040435443  0.2201706460078583  0.0024131483748135014  1.0000
  C   C30       1.0  0.9880367490083657  0.2798312187918413  0.49758816999931105  1.0000
  C   C31       1.0  0.5119418514764433  0.7798348427120629  0.9975871928962549  1.0000
  C   C32       1.0  0.011956254897143  0.7201672334459629  0.5024113902152507  1.0000
  C   C33       1.0  0.4044981466064002  0.9681803596466096  0.17666439443376453  1.0000
  C   C34       1.0  0.9044956399567424  0.5318155595895604  0.3233362107136912  1.0000
  C   C35       1.0  0.5955067540701505  0.031814574350129  0.8233359776793918  1.0000
  C   C36       1.0  0.0955052951294633  0.4681864108893024  0.67666322470334  1.0000
  C   C37       1.0  0.6054980589501966  0.9917596112343005  0.21055305784704362  1.0000
  C   C38       1.0  0.1055045311902063  0.5082319102005499  0.2894486480612812  1.0000
  C   C39       1.0  0.3945088245215231  0.0082335636419089  0.7894468613390941  1.0000
  C   C40       1.0  0.8945023522815205  0.4917718193988421  0.7105519273838183  1.0000
  C   C41       1.0  0.7460306496782038  0.9000804061186755  0.2253795381789701  1.0000
  C   C42       1.0  0.24605100148442458  0.5999093561956386  0.2746220583528682  1.0000
  C   C43       1.0  0.2539742509983469  0.09990925051646829  0.7746184445015488  1.0000
  C   C44       1.0  0.753947950806605  0.400097891644819  0.7253797664968005  1.0000
  C   C45       1.0  0.6918230124256368  0.7837207399634208  0.2059781675979622  1.0000
  C   C46       1.0  0.1918453470270336  0.7162681427906249  0.2940223435940439  1.0000
  C   C47       1.0  0.3081759398653929  0.21626627799093256  0.7940193074672879  1.0000
  C   C48       1.0  0.8081516224688272  0.2837408641703547  0.7059806212836933  1.0000
  C   C49       1.0  0.4977271928765034  0.7598714633743384  0.1716295347143628  1.0000
  C   C50       1.0  0.9977425313834088  0.7401209376207731  0.3283691339274739  1.0000
  C   C51       1.0  0.5022737422096952  0.2401181932608125  0.8283670737640492  1.0000
  C   C52       1.0  0.0022425413414027  0.2598845510991481  0.671632581545694  1.0000
  C   C53       1.0  0.35438101579708803  0.8512181947097374  0.1570190885374885  1.0000
  C   C54       1.0  0.8543904059184725  0.6487794836469618  0.3429802517843612  1.0000
  C   C55       1.0  0.6456278504698147  0.1487758597267401  0.842978824033736  1.0000
  C   C56       1.0  0.1456085463725572  0.3512216072716328  0.6570208466970514  1.0000
  C   C57       1.0  0.10728904684649618  0.04894049227253559  0.12593579628585871  1.0000
  C   C58       1.0  0.6072845574016625  0.45106401120795425  0.3740674039056344  1.0000
  C   C59       1.0  0.8926999914686675  0.9510597190857978  0.8740710878662412  1.0000
  C   C60       1.0  0.3927064637086701  0.5489423570722352  0.625929556548421  1.0000
  C   C61       1.0  0.2671162174093382  0.0306517956796242  0.0806507032264463  1.0000
  C   C62       1.0  0.7671137107596806  0.4693518282406046  0.4193514116252217  1.0000
  C   C63       1.0  0.7328609241347834  0.969352813480036  0.9193550801647845  1.0000
  C   C64       1.0  0.232867396374786  0.5306501422382581  0.5806452753875959  1.0000
  Cl  Cl1       1.0  0.0412480879975519  0.5785940927303983  0.081690369826859  1.0000
  Cl  Cl2       1.0  0.5412396329623732  0.9214071038673595  0.4183112505511347  1.0000
  Cl  Cl3       1.0  0.958776640630731  0.421392045663687  0.918309798954354  1.0000
  Cl  Cl4       1.0  0.45878113007556454  0.0786036622141495  0.581687701096783  1.0000
  Cl  Cl5       1.0  0.6813518711135629  0.1361576881631379  0.23284556953009883  1.0000
  Cl  Cl6       1.0  0.1813424809921784  0.3638327423531109  0.2671564120989203  1.0000
  Cl  Cl7       1.0  0.31865699515334  0.8638302093514837  0.7671547086276079  1.0000
  Cl  Cl8       1.0  0.8186644024795483  0.6361753850476077  0.732844436787417  1.0000
  O   O1        1.0  0.648463247568138  0.4200463184580343  0.035525612672032  1.0000
  O   O2        1.0  0.1484498918564086  0.0799546667813971  0.4644759945643742  1.0000
  O   O3        1.0  0.35156346385532083  0.5799538929002992  0.9644750875706052  1.0000
  O   O4        1.0  0.8515649227960083  0.9200437854564071  0.5355225349986129  1.0000
  O   O5        1.0  0.6868680072866694  0.1800134425429434  0.0214053871717397  1.0000
  O   O6        1.0  0.1868546515749401  0.3199849040156977  0.47859468179782283  1.0000
  O   O7        1.0  0.31311706543814205  0.81998676881539  0.9785949695203726  1.0000
  O   O8        1.0  0.8131284383547025  0.6800126686618384  0.5214017317737571  1.0000
  O   O9        1.0  0.6972479400207588  0.8370651904834786  0.020547952565728198  1.0000
  O   O10       1.0  0.1972702746221486  0.662935126554018  0.47945395667453994  1.0000
  O   O11       1.0  0.3027272187281866  0.1629429369172399  0.9794553011742908  1.0000
  O   O12       1.0  0.802726694873705  0.3370580483221914  0.5205480238147473  1.0000
  O   O13       1.0  0.2697672145565164  0.0636353056221139  0.1660527104478575  1.0000
  O   O14       1.0  0.7697587595213377  0.4363683182981077  0.3339494044038176  1.0000
  O   O15       1.0  0.7302257893489923  0.9363631466156831  0.8339540643277559  1.0000
  O   O16       1.0  0.230232261589002  0.5636310134999576  0.6660464314432063  1.0000
  O   O17       1.0  0.5165280567131063  0.031283319949992  0.0830556583096325  1.0000
  O   O18       1.0  0.0165226321820739  0.4687229426510342  0.4169462770562546  1.0000
  O   O19       1.0  0.4834530504213603  0.9687265665712558  0.9169501096605616  1.0000
  O   O20       1.0  0.9834584749523997  0.531281666508626  0.583050574021307  1.0000
  O   O21       1.0  0.8688152408068106  0.9825180715285455  0.9569198181035503  1.0000
  O   O22       1.0  0.36882171304682027  0.5174796068281537  0.543081239970931  1.0000
  O   O23       1.0  0.131159917942135  0.0174795011489906  0.043085527781713  1.0000
  O   O24       1.0  0.6311593940876463  0.4825170862891142  0.4569158060134627  1.0000
