data_image0
_chemical_formula_structural       Zn8H104C192O40
_chemical_formula_sum              "Zn8 H104 C192 O40"
_cell_length_a       12.73575566922765
_cell_length_b       26.698162882263993
_cell_length_c       26.69811214881237
_cell_angle_alpha    111.10118061948398
_cell_angle_beta     103.80290932303004
_cell_angle_gamma    103.80285808458245

_space_group_name_H-M_alt    "P 1"
_space_group_IT_number       1

loop_
  _space_group_symop_operation_xyz
  'x, y, z'

loop_
  _atom_site_type_symbol
  _atom_site_label
  _atom_site_symmetry_multiplicity
  _atom_site_fract_x
  _atom_site_fract_y
  _atom_site_fract_z
  _atom_site_occupancy
  Zn  Zn1       1.0  0.12432188647603934  0.464593750451108  0.6135031359021994  1.0000
  Zn  Zn2       1.0  0.05692003312695685  0.5506628805054063  0.6934564371225418  1.0000
  Zn  Zn3       1.0  0.3756770446998842  0.8864939886745161  0.03540667596021754  1.0000
  Zn  Zn4       1.0  0.443081395604196  0.806542606269943  0.9493402717728043  1.0000
  Zn  Zn5       1.0  0.4538359600148283  0.6136145999175469  0.4645861460263774  1.0000
  Zn  Zn6       1.0  0.6873403619870969  0.6935480772992546  0.5506770949003152  1.0000
  Zn  Zn7       1.0  0.04616714558079592  0.03541825772001061  0.8863917998886635  1.0000
  Zn  Zn8       1.0  0.8126537160051369  0.9493214428845819  0.8064510670062647  1.0000
  H   H1        1.0  0.17969350909890383  0.0289681900400112  0.638373223370138  1.0000
  H   H2        1.0  0.3798314214187429  0.002489665217027  0.5142691154436037  1.0000
  H   H3        1.0  0.7792622827255331  0.44494798321591844  0.7227171616131685  1.0000
  H   H4        1.0  0.642368676501782  0.3609732676512108  0.7215734242256246  1.0000
  H   H5        1.0  0.7703957531369241  0.2480614715771594  0.6122690743702108  1.0000
  H   H6        1.0  0.9057184752147053  0.3323346305030768  0.612173457275098  1.0000
  H   H7        1.0  0.47320089904104634  0.28232697170447096  0.6510812923512574  1.0000
  H   H8        1.0  0.11725598701697489  0.1450900661299102  0.6243617701588348  1.0000
  H   H9        1.0  0.5771685098693666  0.11956835889364469  0.6677136836347229  1.0000
  H   H10       1.0  0.72617033594166  0.2036255676451688  0.6765248237881281  1.0000
  H   H11       1.0  0.15106457983463173  0.187661361701025  0.5401451772617634  1.0000
  H   H12       1.0  0.09998598672772369  0.266168066130561  0.5222213805364575  1.0000
  H   H13       1.0  0.2991685992520559  0.38518422557545057  0.6987889561439289  1.0000
  H   H14       1.0  0.3487805732071365  0.30686800801023395  0.7175162363370688  1.0000
  H   H15       1.0  0.4320395052561777  0.9425798517804435  0.5470472603097247  1.0000
  H   H16       1.0  0.423095520376833  0.9216269512651393  0.7170657505325053  1.0000
  H   H17       1.0  0.35300164923372535  0.0683479691209214  0.8170062665472599  1.0000
  H   H18       1.0  0.3427725862088096  0.100254974856874  0.7407173769718298  1.0000
  H   H19       1.0  0.6085128151232339  0.938493465534634  0.6970164727931375  1.0000
  H   H20       1.0  0.6717038935675104  0.8542648487859875  0.6758017967323934  1.0000
  H   H21       1.0  0.37870100599635514  0.7571209159184564  0.5174115129483  1.0000
  H   H22       1.0  0.31276426305223026  0.8404067749414992  0.5394222379050362  1.0000
  H   H23       1.0  0.5405556595586916  0.9442472810553397  0.8040611470827199  1.0000
  H   H24       1.0  0.5560552126294168  0.9076807874851693  0.8776524361163567  1.0000
  H   H25       1.0  0.2951327124111031  0.9704438625772196  0.9240404953986001  1.0000
  H   H26       1.0  0.2745648105255967  0.004846454921661802  0.8485797750616584  1.0000
  H   H27       1.0  0.3203058567797611  0.8616270924878362  0.4710338060354075  1.0000
  H   H28       1.0  0.12017098994485313  0.9857314978789445  0.49751295695954667  1.0000
  H   H29       1.0  0.720731648427609  0.7772803760511732  0.0550490716501883  1.0000
  H   H30       1.0  0.8576280975044172  0.7784238874784817  0.13902284605900647  1.0000
  H   H31       1.0  0.7296087916336308  0.8877319480678881  0.25193661020326635  1.0000
  H   H32       1.0  0.5942790252556235  0.8878286615420874  0.16766564403299344  1.0000
  H   H33       1.0  0.026797223664054553  0.8489152841919533  0.21767128082527157  1.0000
  H   H34       1.0  0.3827396667290229  0.8756371763669291  0.35490726414386115  1.0000
  H   H35       1.0  0.9228319758873981  0.8322826906472114  0.3804297241028464  1.0000
  H   H36       1.0  0.7738280199042223  0.8234732671297635  0.2963741780195761  1.0000
  H   H37       1.0  0.3489223009445509  0.9598531337282592  0.31233325688355507  1.0000
  H   H38       1.0  0.40000367342606324  0.9777786239127194  0.23382869968423137  1.0000
  H   H39       1.0  0.20083109490622772  0.80120766572567  0.11481257443604422  1.0000
  H   H40       1.0  0.15122036043108986  0.7824827832353024  0.1931287750795718  1.0000
  H   H41       1.0  0.06796757271158756  0.9529549330638714  0.5574218708767447  1.0000
  H   H42       1.0  0.07690193400734556  0.782934529883974  0.578375248119535  1.0000
  H   H43       1.0  0.1469854656952873  0.682991219689839  0.43165030730384046  1.0000
  H   H44       1.0  0.15721866351685765  0.759280429910717  0.39974702727410955  1.0000
  H   H45       1.0  0.891492909907555  0.8029837506528066  0.5615060549982615  1.0000
  H   H46       1.0  0.8282947895982244  0.8241963608986465  0.6457342977006276  1.0000
  H   H47       1.0  0.12129141105804539  0.9825867825315979  0.7428811205134805  1.0000
  H   H48       1.0  0.1872376942801707  0.9605781592264719  0.6595997487036199  1.0000
  H   H49       1.0  0.9594551008680056  0.695942991021738  0.5557634717136606  1.0000
  H   H50       1.0  0.9439625492846917  0.6223530387680613  0.592330942358707  1.0000
  H   H51       1.0  0.20486035535547836  0.575953533218616  0.5295534465606194  1.0000
  H   H52       1.0  0.22542504963477952  0.6514136663854161  0.49514680628532654  1.0000
  H   H53       1.0  0.9878742965186619  0.6384134355374725  0.02908845995638384  1.0000
  H   H54       1.0  0.6374484839804567  0.5143227907581007  0.0025789104803735107  1.0000
  H   H55       1.0  0.8884076295021616  0.722823780153533  0.4450148564539945  1.0000
  H   H56       1.0  0.9403016052720048  0.7216262040424652  0.36103377354211824  1.0000
  H   H57       1.0  0.590124613072945  0.6121660307935813  0.2480157657408242  1.0000
  H   H58       1.0  0.5388773428308795  0.6121589903329365  0.3322837830017917  1.0000
  H   H59       1.0  0.960644681682986  0.6512584588964642  0.2824679778675332  1.0000
  H   H60       1.0  0.15268668122594414  0.6245609779927221  0.14530166443289966  1.0000
  H   H61       1.0  0.710529516942529  0.6678007325495087  0.11966402114979496  1.0000
  H   H62       1.0  0.6541535967253651  0.6764023355204357  0.20360375550404797  1.0000
  H   H63       1.0  0.07637491856484488  0.5402731514862464  0.18797040235449455  1.0000
  H   H64       1.0  0.18747447433761982  0.5222398813378816  0.266523699652673  1.0000
  H   H65       1.0  0.28521885629684357  0.6989859398811902  0.3853943079689373  1.0000
  H   H66       1.0  0.17638514477953024  0.7178101283497254  0.30702470845199753  1.0000
  H   H67       1.0  0.5580108794454118  0.5470438911985908  0.9425972762048359  1.0000
  H   H68       1.0  0.7154799098410153  0.7171351535135669  0.9217265229280257  1.0000
  H   H69       1.0  0.03235888960194441  0.8171862116921532  0.06836397542325306  1.0000
  H   H70       1.0  0.9984231304259268  0.7409689093372903  0.10036106975617541  1.0000
  H   H71       1.0  0.5270689749967659  0.6969750685195208  0.9384345269231529  1.0000
  H   H72       1.0  0.3583995026004628  0.6756677630921573  0.8542611326809038  1.0000
  H   H73       1.0  0.39596614959955906  0.5172548129639694  0.7572194217621655  1.0000
  H   H74       1.0  0.5672620394823937  0.5393917061614457  0.8405134263917444  1.0000
  H   H75       1.0  0.7075899473875394  0.8041846776186431  0.9443059076564779  1.0000
  H   H76       1.0  0.7289536372845333  0.8776718818043392  0.9075873407917996  1.0000
  H   H77       1.0  0.09905031926434998  0.9240922183212132  0.9702665679942226  1.0000
  H   H78       1.0  0.07870508918647082  0.8487063616832273  0.004783386234549924  1.0000
  H   H79       1.0  0.5121191725448638  0.470908235877097  0.8615857730798239  1.0000
  H   H80       1.0  0.8625608427155385  0.4974200980005106  0.9856798322144582  1.0000
  H   H81       1.0  0.6115972156291322  0.05498644357754759  0.777178688081797  1.0000
  H   H82       1.0  0.5596952621104522  0.13896593364394497  0.7783731942003982  1.0000
  H   H83       1.0  0.9098728067694426  0.25198350847524853  0.8878316177728608  1.0000
  H   H84       1.0  0.9611296630237973  0.16771752463014875  0.8878436166040089  1.0000
  H   H85       1.0  0.5393622947532962  0.21753197826686937  0.8487451209999932  1.0000
  H   H86       1.0  0.34730688274927246  0.35469584036089685  0.8754380454616353  1.0000
  H   H87       1.0  0.789471734406419  0.38033530514755387  0.8322000423667929  1.0000
  H   H88       1.0  0.845855564910295  0.2963972035190139  0.8235982204443602  1.0000
  H   H89       1.0  0.4236248333383372  0.3120295371682005  0.9597300835266721  1.0000
  H   H90       1.0  0.31252973095885744  0.23347723378356014  0.9777656703532783  1.0000
  H   H91       1.0  0.2147824377646614  0.11460574513514388  0.8010178169935073  1.0000
  H   H92       1.0  0.32361790346721625  0.19297677977757394  0.7821945857310978  1.0000
  H   H93       1.0  0.941996083130583  0.5574006845193223  0.952953872073607  1.0000
  H   H94       1.0  0.7845259351072543  0.5782735286699462  0.7828642547783177  1.0000
  H   H95       1.0  0.4676417333102663  0.4316355203728434  0.6828137361546069  1.0000
  H   H96       1.0  0.5015758454407475  0.3996401688631293  0.7590301699816491  1.0000
  H   H97       1.0  0.9729325928332102  0.5615657164918628  0.8030251305442277  1.0000
  H   H98       1.0  0.14159882985752142  0.6457403292248642  0.8243326974872005  1.0000
  H   H99       1.0  0.10403340606914212  0.7427786168453565  0.9827452895739057  1.0000
  H   H100      1.0  0.9327384344532775  0.6594834451769387  0.9606078460495056  1.0000
  H   H101      1.0  0.7924142957582346  0.5556914417773482  0.6958115327746838  1.0000
  H   H102      1.0  0.771048204944549  0.5924125764258718  0.622326903385712  1.0000
  H   H103      1.0  0.4009489896664391  0.5297376223691259  0.5759108408027913  1.0000
  H   H104      1.0  0.42130135814286246  0.49522065431552403  0.65129710873083  1.0000
  C   C1        1.0  0.9314115026542497  0.4437407954579413  0.6666241030282407  1.0000
  C   C2        1.0  0.8513415581202538  0.3939851519831379  0.6675156175201664  1.0000
  C   C3        1.0  0.7769677218496368  0.40179105076398247  0.6985057407837658  1.0000
  C   C4        1.0  0.7000518510516615  0.35456956621058566  0.6976259809200938  1.0000
  C   C5        1.0  0.6958980289385438  0.2985130494522607  0.6667127550162988  1.0000
  C   C6        1.0  0.773099040027418  0.29126138478445546  0.6370647542073371  1.0000
  C   C7        1.0  0.8487337632758526  0.3382103831866131  0.6367229838274113  1.0000
  C   C8        1.0  0.6089336077457332  0.24888798678674814  0.6640011607588432  1.0000
  C   C9        1.0  0.49599831164354663  0.24702450984857185  0.6557635085146173  1.0000
  C   C10       1.0  0.40810273546334497  0.19945328872800863  0.6504536098399214  1.0000
  C   C11       1.0  0.28995147692209855  0.19608966184938478  0.6386315866960217  1.0000
  C   C12       1.0  0.20720584785334487  0.14814768143769896  0.6327394406074376  1.0000
  C   C13       1.0  0.2366521624036082  0.10162498864746539  0.636732391409133  1.0000
  C   C14       1.0  0.3487965062405678  0.10176443619609188  0.6454209177866659  1.0000
  C   C15       1.0  0.43689318885115114  0.151591236584423  0.6535998973899524  1.0000
  C   C16       1.0  0.5536636586548341  0.1549580649903177  0.6635944745840732  1.0000
  C   C17       1.0  0.6369181853413296  0.2018587594812828  0.6683263510642234  1.0000
  C   C18       1.0  0.25521409071696877  0.242363157264883  0.6296749701145785  1.0000
  C   C19       1.0  0.1831024544469457  0.23100875902077425  0.5750105763706514  1.0000
  C   C20       1.0  0.15512981277954907  0.27464442107321924  0.5646800980174831  1.0000
  C   C21       1.0  0.1998248814848935  0.33065970308676634  0.6090201537762779  1.0000
  C   C22       1.0  0.2685800864849953  0.34182885669446966  0.664226939494263  1.0000
  C   C23       1.0  0.2958235486888796  0.2981477313142733  0.6744840364822124  1.0000
  C   C24       1.0  0.37335959138192015  0.04894551511770829  0.6407540275566318  1.0000
  C   C25       1.0  0.38820533959621883  0.015370714713526499  0.591055901057011  1.0000
  C   C26       1.0  0.4145796258990728  0.965598076166259  0.5853063549688713  1.0000
  C   C27       1.0  0.42431656154226255  0.94714373506455  0.6278499055583068  1.0000
  C   C28       1.0  0.40570120558182066  0.9791966105649977  0.6788827506245667  1.0000
  C   C29       1.0  0.408630764383332  0.9616214184491126  0.723020693623411  1.0000
  C   C30       1.0  0.3916134694655752  0.9929410215708641  0.7727799556593522  1.0000
  C   C31       1.0  0.36629663557129544  0.04322698427804278  0.7782075412535008  1.0000
  C   C32       1.0  0.17307465355851556  0.37837087884893356  0.5992625037960906  1.0000
  C   C33       1.0  0.3608170430750519  0.061128326567022384  0.7356330985880175  1.0000
  C   C34       1.0  0.380531775604716  0.030408591376158294  0.6849420185952511  1.0000
  C   C35       1.0  0.45696923571596665  0.8956822194027579  0.6190412925627128  1.0000
  C   C36       1.0  0.5565370691984128  0.8984208262239689  0.6582596715869116  1.0000
  C   C37       1.0  0.5922381630492877  0.851408777600639  0.6464747314900022  1.0000
  C   C38       1.0  0.5291572081223991  0.8006143086481002  0.5954704189951272  1.0000
  C   C39       1.0  0.42782052187380526  0.796767621265474  0.5568759212584028  1.0000
  C   C40       1.0  0.39272395589267006  0.8439133059464012  0.5688914154271956  1.0000
  C   C41       1.0  0.5748163301779811  0.7534513339762012  0.579591374206636  1.0000
  C   C42       1.0  0.4840670572564533  0.9484017940271554  0.8290469536268785  1.0000
  C   C43       1.0  0.4032561153197847  0.97496175436261  0.8193218843981567  1.0000
  C   C44       1.0  0.49429853278365965  0.9287199809489693  0.8707084555564393  1.0000
  C   C45       1.0  0.42513487947434186  0.9358509571019692  0.9047701700183023  1.0000
  C   C46       1.0  0.3480177499847981  0.9645881296509556  0.8972570334791923  1.0000
  C   C47       1.0  0.3368440382505895  0.9837535183828693  0.854800537669604  1.0000
  C   C48       1.0  0.4304032482954412  0.9088974002791942  0.9445915520175632  1.0000
  C   C49       1.0  0.5685895465656116  0.8333759473976979  0.05625894880825641  1.0000
  C   C50       1.0  0.6486533214324763  0.8324844972684387  0.10601372093989156  1.0000
  C   C51       1.0  0.723022910992178  0.8014895417862531  0.09820641805337252  1.0000
  C   C52       1.0  0.7999379751748776  0.8023690526289184  0.1454259118906548  1.0000
  C   C53       1.0  0.8040946709206552  0.8332841062243898  0.2014842254785519  1.0000
  C   C54       1.0  0.7269009203759964  0.8629356343078525  0.20873632313383428  1.0000
  C   C55       1.0  0.6512637496301396  0.8632785737902039  0.1617865637509367  1.0000
  C   C56       1.0  0.8910618135749785  0.8359976122307555  0.2511100281020545  1.0000
  C   C57       1.0  0.003999631368514957  0.8442366143147167  0.25297464908005907  1.0000
  C   C58       1.0  0.09189796447828488  0.8495507537807467  0.30054740301516597  1.0000
  C   C59       1.0  0.2100480198932288  0.8613704518432143  0.3039098779104207  1.0000
  C   C60       1.0  0.2927903078525417  0.8672602846272709  0.35185115183423926  1.0000
  C   C61       1.0  0.26334521218340967  0.863266035135588  0.398374539266058  1.0000
  C   C62       1.0  0.15120022556268967  0.8545779710105706  0.398233790632922  1.0000
  C   C63       1.0  0.06310517466199161  0.8464032035147823  0.3484100419978589  1.0000
  C   C64       1.0  0.9463354245929877  0.8364075279027501  0.34504215539811867  1.0000
  C   C65       1.0  0.863078322473669  0.8316730565532282  0.29813950179279664  1.0000
  C   C66       1.0  0.24478181122069037  0.8703239306770457  0.25763506144546966  1.0000
  C   C67       1.0  0.31688802684237055  0.9249884147072505  0.2689849344878893  1.0000
  C   C68       1.0  0.34486382175128927  0.9353179019106077  0.22534921116822892  1.0000
  C   C69       1.0  0.3001752684987765  0.8909770718642278  0.1693380859422788  1.0000
  C   C70       1.0  0.2314237105920539  0.8357698297016468  0.15816742648549098  1.0000
  C   C71       1.0  0.20417796671526384  0.8255159005993278  0.20185024450045563  1.0000
  C   C72       1.0  0.12663684951078813  0.859244532297836  0.45105377720584255  1.0000
  C   C73       1.0  0.1117911249420657  0.9089426124721525  0.48462914378509225  1.0000
  C   C74       1.0  0.08541624941680226  0.914691382619793  0.5344007371075961  1.0000
  C   C75       1.0  0.07568173586861317  0.8721505043553887  0.5528576237048739  1.0000
  C   C76       1.0  0.09429772995881067  0.8211175014756903  0.5208068197571265  1.0000
  C   C77       1.0  0.09137015760219908  0.776979086165383  0.5383807500581596  1.0000
  C   C78       1.0  0.10839551231271821  0.7272217779843898  0.507063763679291  1.0000
  C   C79       1.0  0.13370612997446332  0.7217947710935846  0.4567781137357869  1.0000
  C   C80       1.0  0.32692398945263773  0.9007368525359991  0.12162678752873288  1.0000
  C   C81       1.0  0.13918606693605529  0.7643680123712497  0.4388748424905059  1.0000
  C   C82       1.0  0.11946611889629109  0.8150571344998312  0.4695939500601938  1.0000
  C   C83       1.0  0.04303516905817139  0.8809584209974373  0.6043203688651245  1.0000
  C   C84       1.0  0.9434693851243455  0.8417373970082667  0.6015809097673781  1.0000
  C   C85       1.0  0.9077640728467885  0.8535216111805539  0.6485906358650482  1.0000
  C   C86       1.0  0.9708370864465365  0.9045296194064958  0.6993845507660623  1.0000
  C   C87       1.0  0.07217322332963509  0.9431252390338614  0.7032336417223062  1.0000
  C   C88       1.0  0.10727274129393288  0.9311078607232092  0.6560880782019113  1.0000
  C   C89       1.0  0.9251768912337468  0.9204090672274959  0.7465473986763698  1.0000
  C   C90       1.0  0.015937338724867744  0.6709563686371354  0.5516047011536144  1.0000
  C   C91       1.0  0.09674479257319737  0.6806769550211839  0.52504027486318  1.0000
  C   C92       1.0  0.005710232738770939  0.6292945121192801  0.5712846380945037  1.0000
  C   C93       1.0  0.07486407690466722  0.5952301867675515  0.5641484659963041  1.0000
  C   C94       1.0  0.15197733849429798  0.6027385992168277  0.5354090203387898  1.0000
  C   C95       1.0  0.16315025118389304  0.6451951135500806  0.5162440263584074  1.0000
  C   C96       1.0  0.069594545488435  0.5554102875141422  0.5911015640306728  1.0000
  C   C97       1.0  0.6790196770103593  0.6666934288810465  0.4437364218094045  1.0000
  C   C98       1.0  0.7102092894317878  0.6676026347117484  0.39398038636759475  1.0000
  C   C99       1.0  0.8233821402924589  0.6986068793172675  0.40183163540194755  1.0000
  C   C100      1.0  0.8522629635507005  0.6976498645712044  0.3546142453361298  1.0000
  C   C101      1.0  0.7695161385570374  0.6666715968255019  0.2985403994663826  1.0000
  C   C102      1.0  0.655364991792311  0.6370185679141968  0.2912322400093927  1.0000
  C   C103      1.0  0.6262797967277863  0.6367681671200883  0.3381911242519137  1.0000
  C   C104      1.0  0.8042471774589758  0.6640033954409218  0.24895327990390817  1.0000
  C   C105      1.0  0.9071862393438295  0.655890893907852  0.24714387493060017  1.0000
  C   C106      1.0  0.9422504397795423  0.6506058278778468  0.19959610778224865  1.0000
  C   C107      1.0  0.045255369630360975  0.6388343271282722  0.19627344265924754  1.0000
  C   C108      1.0  0.07417486997609757  0.6329366733097856  0.14834003063914028  1.0000
  C   C109      1.0  0.0021609994690904057  0.6369046786798833  0.10179206708071571  1.0000
  C   C110      1.0  0.8988165025994235  0.6455576454532732  0.10189664634805234  1.0000
  C   C111      1.0  0.8687299904532323  0.6537278652440291  0.15171875693074807  1.0000
  C   C112      1.0  0.7652723995600041  0.663671001717958  0.15505150959433678  1.0000
  C   C113      1.0  0.733514189314448  0.6682785859388786  0.20188769543092622  1.0000
  C   C114      1.0  0.11714639031303162  0.629888082949229  0.2425877760304758  1.0000
  C   C115      1.0  0.12274799637760477  0.5751532449195338  0.23129684479517454  1.0000
  C   C116      1.0  0.18366468427413454  0.564761763524814  0.2749699010279087  1.0000
  C   C117      1.0  0.239542820133394  0.6091522084185852  0.33093994617063055  1.0000
  C   C118      1.0  0.23770154495112186  0.6644299716981905  0.34205684144091464  1.0000
  C   C119      1.0  0.17729888230047652  0.6747418952417802  0.2983506501359228  1.0000
  C   C120      1.0  0.8167768525177692  0.640854841337635  0.04904281789159626  1.0000
  C   C121      1.0  0.7186741576434912  0.5911155306465545  0.01543698683278896  1.0000
  C   C122      1.0  0.6367035335058732  0.5853308166188355  0.9656532342303235  1.0000
  C   C123      1.0  0.6509464175703455  0.6278838406161923  0.9472049952002236  1.0000
  C   C124      1.0  0.7525732580702921  0.6789647715168953  0.9792873595642532  1.0000
  C   C125      1.0  0.7759761863497018  0.723135619824532  0.9617301992353972  1.0000
  C   C126      1.0  0.8739761965831646  0.7729443572556745  0.9930192435525452  1.0000
  C   C127      1.0  0.9551212346308022  0.7783671974316206  0.04326482922980553  1.0000
  C   C128      1.0  0.304233523466273  0.5994768510927031  0.3787006059770164  1.0000
  C   C129      1.0  0.9360795869440749  0.7358197679018232  0.06121931307232832  1.0000
  C   C130      1.0  0.8350683041514557  0.6850550437564422  0.03050945750602103  1.0000
  C   C131      1.0  0.5579641769658537  0.6190234427227848  0.8957166363883289  1.0000
  C   C132      1.0  0.5002173342044146  0.6581841747334279  0.8984010638094019  1.0000
  C   C133      1.0  0.40562476819851406  0.6463245905406295  0.8513913378131122  1.0000
  C   C134      1.0  0.36691748381850425  0.5952996388674591  0.8005966991880553  1.0000
  C   C135      1.0  0.4258949163786596  0.556750828269614  0.7968196641669676  1.0000
  C   C136      1.0  0.5202322668396491  0.5688372816706319  0.843985597163865  1.0000
  C   C137      1.0  0.2582484432842236  0.5794602120901402  0.7534010901134777  1.0000
  C   C138      1.0  0.7931530333672185  0.8291321300543261  0.948363070271661  1.0000
  C   C139      1.0  0.8908176998756262  0.8194251851599926  0.974942086642393  1.0000
  C   C140      1.0  0.8048279155497441  0.8707484846135002  0.928619678647756  1.0000
  C   C141      1.0  0.9151723557437492  0.904812937872549  0.935744409434015  1.0000
  C   C142      1.0  0.013571243613867443  0.8973110295914069  0.9644510166070575  1.0000
  C   C143      1.0  0.0015388566520042933  0.8548949543687951  0.9836698547620273  1.0000
  C   C144      1.0  0.9228063175602513  0.9446828259043156  0.9088504107421755  1.0000
  C   C145      1.0  0.8209854901375024  0.0562697716877665  0.8333110457668054  1.0000
  C   C146      1.0  0.7897915837320612  0.1060221546037567  0.832398712197211  1.0000
  C   C147      1.0  0.676617230641547  0.09816905109640568  0.8013949869616467  1.0000
  C   C148      1.0  0.6477329681494481  0.1453855316362009  0.8023515556021152  1.0000
  C   C149      1.0  0.730483145223488  0.20145937755459192  0.8333285712203633  1.0000
  C   C150      1.0  0.8446403557505562  0.20876752644828395  0.8629820895038023  1.0000
  C   C151      1.0  0.8737248142469912  0.1618093949418977  0.863232682407336  1.0000
  C   C152      1.0  0.695756873258276  0.2510460966229289  0.8359970321333208  1.0000
  C   C153      1.0  0.5928173397551078  0.25285576373696717  0.8441100259237898  1.0000
  C   C154      1.0  0.5577477015751527  0.30040312301492367  0.8493924286648066  1.0000
  C   C155      1.0  0.4547396356798289  0.30372578667291356  0.8611654183331225  1.0000
  C   C156      1.0  0.4258197093419724  0.35165817776238123  0.8670615962217524  1.0000
  C   C157      1.0  0.4978339801744412  0.39820711675787374  0.8630930326047589  1.0000
  C   C158      1.0  0.6011801757598648  0.3981021241577807  0.8544395884372378  1.0000
  C   C159      1.0  0.6312658006606713  0.34827979832662953  0.8462690473177901  1.0000
  C   C160      1.0  0.7347276637661864  0.34494694450047086  0.8363278441435753  1.0000
  C   C161      1.0  0.7664908731617358  0.2981120176853692  0.8317211356062941  1.0000
  C   C162      1.0  0.38285259276453604  0.2574144737780202  0.870114012402162  1.0000
  C   C163      1.0  0.37725060448602227  0.2687034621599195  0.9248490273205902  1.0000
  C   C164      1.0  0.3163397726317356  0.22503106649799778  0.9352428519033182  1.0000
  C   C165      1.0  0.2604613151715114  0.16906135218074067  0.890851494677328  1.0000
  C   C166      1.0  0.26229838239495973  0.1579431228039638  0.8355745279193058  1.0000
  C   C167      1.0  0.322700415854861  0.20165004519530777  0.8252630450718996  1.0000
  C   C168      1.0  0.6832226714418964  0.4509563640951981  0.8591458909321401  1.0000
  C   C169      1.0  0.7813308389824484  0.4845610547600855  0.9088844222557525  1.0000
  C   C170      1.0  0.8633057637984366  0.53434689329422  0.9146686893842427  1.0000
  C   C171      1.0  0.8490585705830114  0.5527942832520906  0.8721155647481993  1.0000
  C   C172      1.0  0.7474263199274562  0.5207113707671523  0.8210347217277771  1.0000
  C   C173      1.0  0.7240281269529519  0.5382711465105671  0.7768645617941914  1.0000
  C   C174      1.0  0.6260270206321651  0.5069830290957426  0.7270566621877207  1.0000
  C   C175      1.0  0.5448779064835847  0.45673492833732593  0.7216326261073573  1.0000
  C   C176      1.0  0.19576606725374998  0.12129854259587347  0.9005239585796616  1.0000
  C   C177      1.0  0.5639182613057443  0.4387820232948272  0.764179986315952  1.0000
  C   C178      1.0  0.6649342583294314  0.4694922218425219  0.8149443068962157  1.0000
  C   C179      1.0  0.9420356619175225  0.6042829331526959  0.8809765352714648  1.0000
  C   C180      1.0  0.9997847562016776  0.6016017720981779  0.8418161554259883  1.0000
  C   C181      1.0  0.09437461996240153  0.6486095391410415  0.8536761061309832  1.0000
  C   C182      1.0  0.13308549815387483  0.6994038758825383  0.9047020827097539  1.0000
  C   C183      1.0  0.07411146824772867  0.7031786518841441  0.9432491749817729  1.0000
  C   C184      1.0  0.9797695149954607  0.6560117487528031  0.9311619590002208  1.0000
  C   C185      1.0  0.24175664146524403  0.7465993508080044  0.9205395502456567  1.0000
  C   C186      1.0  0.7068489567111201  0.5516374604703386  0.670866739910302  1.0000
  C   C187      1.0  0.609187401464105  0.5250599939450565  0.6805750051369727  1.0000
  C   C188      1.0  0.6951714728503618  0.5713805310664172  0.6292499687410782  1.0000
  C   C189      1.0  0.584828236720618  0.56425647948096  0.5951866991986776  1.0000
  C   C190      1.0  0.48643119173598154  0.5355532186558776  0.6026913472891238  1.0000
  C   C191      1.0  0.49846802861883077  0.5163368612762013  0.6451088962929886  1.0000
  C   C192      1.0  0.5771929657345183  0.5911499877577668  0.5553175924197616  1.0000
  O   O1        1.0  0.1472271759792392  0.0557760842587172  0.6293572270919014  1.0000
  O   O2        1.0  0.3779062556271385  0.03229940001905619  0.5480749462565626  1.0000
  O   O3        1.0  0.9446008459243628  0.4949866879490726  0.7025526531243499  1.0000
  O   O4        1.0  0.9830740519888224  0.43436625645107085  0.6308551403205911  1.0000
  O   O5        1.0  0.08910668407620646  0.3698970476683456  0.5568868816707065  1.0000
  O   O6        1.0  0.2369502345805188  0.4304200298736233  0.6384244355804611  1.0000
  O   O7        1.0  0.5214718989677608  0.7089119435044539  0.5311270546688576  1.0000
  O   O8        1.0  0.6736293905968155  0.758814643850542  0.6125070627045301  1.0000
  O   O9        1.0  0.4883123258896517  0.875060818830313  0.9396265099218508  1.0000
  O   O10       1.0  0.37658583933074385  0.9187057442786112  0.979950823075164  1.0000
  O   O11       1.0  0.35276805635579217  0.8706410945411277  0.44422416103449075  1.0000
  O   O12       1.0  0.12209640029873711  0.9519254525772137  0.46770278181386243  1.0000
  O   O13       1.0  0.555401160978448  0.7974479558506002  0.005013086142284317  1.0000
  O   O14       1.0  0.5169312534203597  0.8691484211534188  0.06563331421157412  1.0000
  O   O15       1.0  0.4108939815471331  0.9431121605089531  0.1300975033913119  1.0000
  O   O16       1.0  0.26304350156809153  0.8615742172429178  0.06957564018811976  1.0000
  O   O17       1.0  0.9785328777950254  0.9688731926711681  0.791082849285658  1.0000
  O   O18       1.0  0.8263684170993529  0.8874955553036941  0.7411882454682157  1.0000
  O   O19       1.0  0.011682952081933625  0.5603746788534919  0.6249384498707754  1.0000
  O   O20       1.0  0.12341296745647405  0.5200512561208299  0.5812951133293466  1.0000
  O   O21       1.0  0.038265953170188945  0.6294763099373454  0.05592172859073932  1.0000
  O   O22       1.0  0.7030506781467596  0.5481278790600186  0.032353339567357906  1.0000
  O   O23       1.0  0.7530673479387249  0.7025840122679271  0.4949820058352827  1.0000
  O   O24       1.0  0.5822021731718934  0.6309111095960203  0.4343630672451652  1.0000
  O   O25       1.0  0.3374153259906478  0.5571102461183628  0.3702840458546817  1.0000
  O   O26       1.0  0.3317391620145571  0.6387097208738551  0.43070376060669696  1.0000
  O   O27       1.0  0.21874685542287856  0.5311003847080612  0.70876947659918  1.0000
  O   O28       1.0  0.19764810272108235  0.6123469664351474  0.7588556436174726  1.0000
  O   O29       1.0  0.8260981915536975  0.939792946825385  0.8750670414137643  1.0000
  O   O30       1.0  0.021817458689951993  0.9800200706850359  0.9186575588407349  1.0000
  O   O31       1.0  0.4617259981932733  0.44407443870615987  0.8705193125406366  1.0000
  O   O32       1.0  0.7969631455085492  0.46764671911507344  0.9518723692297826  1.0000
  O   O33       1.0  0.7469404803658578  0.005020698175442801  0.7974206959504783  1.0000
  O   O34       1.0  0.9178058935518721  0.0656462246986962  0.8690933780460809  1.0000
  O   O35       1.0  0.1625710159535743  0.12971267046096807  0.9428871860464624  1.0000
  O   O36       1.0  0.1682607982352167  0.06929624743884229  0.8612892622101357  1.0000
  O   O37       1.0  0.2812535881830198  0.7912305981024088  0.968899169617792  1.0000
  O   O38       1.0  0.30235752173265257  0.7411465280165787  0.8876533333134448  1.0000
  O   O39       1.0  0.6739046116571289  0.6249334401227314  0.5602093805775822  1.0000
  O   O40       1.0  0.47818217043455763  0.5813418288289826  0.5199781476471727  1.0000
