data_image0
_chemical_formula_structural       Zn3TeMo6H60C32N8O40
_chemical_formula_sum              "Zn3 Te1 Mo6 H60 C32 N8 O40"
_cell_length_a       9.555704136258097
_cell_length_b       13.658516816716784
_cell_length_c       13.925
_cell_angle_alpha    115.97980346993747
_cell_angle_beta     95.5216456648968
_cell_angle_gamma    97.14410255499546

_space_group_name_H-M_alt    "P 1"
_space_group_IT_number       1

loop_
  _space_group_symop_operation_xyz
  'x, y, z'

loop_
  _atom_site_type_symbol
  _atom_site_label
  _atom_site_symmetry_multiplicity
  _atom_site_fract_x
  _atom_site_fract_y
  _atom_site_fract_z
  _atom_site_occupancy
  Zn  Zn1       1.0  0.36280906065111657  0.2601838067189135  0.41669482411373343  1.0000
  Zn  Zn2       1.0  0.6399341748061076  0.7370055033335987  0.5877320680285792  1.0000
  Zn  Zn3       1.0  0.4991360506977502  0.5006939075790271  0.9975480714918705  1.0000
  Te  Te1       1.0  0.0013120103852912993  0.4983629704898291  0.4987797286265377  1.0000
  Mo  Mo1       1.0  0.7654516023840969  0.2783198567098424  0.438430381486512  1.0000
  Mo  Mo2       1.0  0.2345722586210712  0.7206922594092191  0.5614461183505598  1.0000
  Mo  Mo3       1.0  0.9952647338493891  0.38292853337492966  0.6684840472479863  1.0000
  Mo  Mo4       1.0  0.006023158610304305  0.6161722777187251  0.331787634815143  1.0000
  Mo  Mo5       1.0  0.22562658470643274  0.6155282029967069  0.7379847259131439  1.0000
  Mo  Mo6       1.0  0.7692707533559117  0.38711626245551395  0.2662299643837969  1.0000
  H   H1        1.0  0.08313262718125002  0.2717531128902806  0.4044907233949361  1.0000
  H   H2        1.0  0.9204726027162451  0.7282628313991282  0.5975544677967407  1.0000
  H   H3        1.0  0.14048010991319873  0.2349090546610739  0.2920767040298885  1.0000
  H   H4        1.0  0.8639329481326996  0.7645001165311456  0.7096117434288446  1.0000
  H   H5        1.0  0.16031205613522562  0.09878796534206909  0.4596206128179646  1.0000
  H   H6        1.0  0.8398456857861306  0.8980067764122737  0.5408739241373723  1.0000
  H   H7        1.0  0.3095015587314621  0.4737687658538333  0.47268700064871894  1.0000
  H   H8        1.0  0.6994411063610784  0.5356811738168403  0.5384995056266108  1.0000
  H   H9        1.0  0.4107306566903759  0.4413685745290294  0.3792350004680145  1.0000
  H   H10       1.0  0.5360896468470814  0.529713742769502  0.5419350214054717  1.0000
  H   H11       1.0  0.13653355461155312  0.90392447195984  0.43937046237723365  1.0000
  H   H12       1.0  0.8625655569931611  0.0917984697744672  0.558440689334958  1.0000
  H   H13       1.0  0.4476754460547738  0.2670133197622562  0.24108721133114844  1.0000
  H   H14       1.0  0.5599292876585196  0.731838813832546  0.7607737164647475  1.0000
  H   H15       1.0  0.3772173531837879  0.1403403175494518  0.2030096349380841  1.0000
  H   H16       1.0  0.6196018694130815  0.8610698785834927  0.8007312502440059  1.0000
  H   H17       1.0  0.185352563874396  0.7778458089692819  0.9991856969759638  1.0000
  H   H18       1.0  0.8148462447491129  0.2251725016562105  0.0010965916840319906  1.0000
  H   H19       1.0  0.32992024916977414  0.7972973629291148  0.3712084767895689  1.0000
  H   H20       1.0  0.6696320449617233  0.19898593210259458  0.6268906014244139  1.0000
  H   H21       1.0  0.30116247382255784  0.3770904146269913  0.6221584033452674  1.0000
  H   H22       1.0  0.6968708309548434  0.6227738363881201  0.3805624928212268  1.0000
  H   H23       1.0  0.3890194295801166  0.2848434964296018  0.6215057924651647  1.0000
  H   H24       1.0  0.6063916935410418  0.7129592181200621  0.38065887125910075  1.0000
  H   H25       1.0  0.7130842238056659  0.0047240435531037  0.33756424970366794  1.0000
  H   H26       1.0  0.28731097813977163  0.9936937333437186  0.662682476485088  1.0000
  H   H27       1.0  0.4392481793001296  0.5240530139707431  0.19334100720875105  1.0000
  H   H28       1.0  0.5725365972820528  0.4750345343229725  0.8018644044730578  1.0000
  H   H29       1.0  0.46030623758317557  0.6433378076927951  0.20221954419251634  1.0000
  H   H30       1.0  0.5414054697405817  0.3567875546961048  0.795713879371789  1.0000
  H   H31       1.0  0.5403112168359527  0.0783765162366876  0.3401234119221074  1.0000
  H   H32       1.0  0.4619377072728668  0.9204839066080835  0.6632445252683041  1.0000
  H   H33       1.0  0.2674602805215542  0.4538472114211842  0.8281139554329329  1.0000
  H   H34       1.0  0.7316449002796689  0.5486538500067084  0.17063150409894234  1.0000
  H   H35       1.0  0.18937143164856002  0.4709321845169825  0.9248085488290486  1.0000
  H   H36       1.0  0.8121243185505165  0.5305393520656736  0.07530913515132201  1.0000
  H   H37       1.0  0.7590633118611408  0.778297573092189  0.19694376396122953  1.0000
  H   H38       1.0  0.2418790768858585  0.2208048958514581  0.8026336444889284  1.0000
  H   H39       1.0  0.8695814207421578  0.8500004141848053  0.3237012637935024  1.0000
  H   H40       1.0  0.1313096668572484  0.1481313835883356  0.6760050593941287  1.0000
  H   H41       1.0  0.9600175652856466  0.0052943439504602  0.28396922378335904  1.0000
  H   H42       1.0  0.040580639393184036  0.9941653916665274  0.7176901323913184  1.0000
  H   H43       1.0  0.8361005374574334  0.9473593128334983  0.1630628773686879  1.0000
  H   H44       1.0  0.1640989465599247  0.053464833327161905  0.8389143884986937  1.0000
  H   H45       1.0  0.07906532711104575  0.8392575462346059  0.21208475479658523  1.0000
  H   H46       1.0  0.9213758498952631  0.1602925422069603  0.7870702002813063  1.0000
  H   H47       1.0  0.9518177004339066  0.7760337789276832  0.09242646626206144  1.0000
  H   H48       1.0  0.04827871855711411  0.22488652253253602  0.9068441962879421  1.0000
  H   H49       1.0  0.033775615676930215  0.9258818661830617  0.04375626722254111  1.0000
  H   H50       1.0  0.9658604059518723  0.0766581547196523  0.9578452922635281  1.0000
  H   H51       1.0  0.15203117335020983  0.0006888366718059  0.16929688151914493  1.0000
  H   H52       1.0  0.8470328330782309  0.001124022294789  0.8327349340505209  1.0000
  H   H53       1.0  0.600323589728788  0.9496173045230307  0.022373529422971206  1.0000
  H   H54       1.0  0.4008960924339462  0.05532659886853251  0.9821241856105872  1.0000
  H   H55       1.0  0.7770378109637405  0.8219578815647992  0.9562697312094246  1.0000
  H   H56       1.0  0.2232994462746944  0.1827439757278881  0.04553286252865973  1.0000
  H   H57       1.0  0.7264844161865157  0.6353585756797813  0.9503560564929927  1.0000
  H   H58       1.0  0.2728201762117735  0.3677318514203733  0.047572141176836176  1.0000
  H   H59       1.0  0.3385756535414118  0.6888292114819166  0.05483036203629864  1.0000
  H   H60       1.0  0.6607134502968395  0.3129100678744976  0.9436875382857368  1.0000
  C   C1        1.0  0.24057621471388302  0.0478687606781065  0.42855862972913883  1.0000
  C   C2        1.0  0.7596330377613684  0.9490047289508752  0.5718180274655467  1.0000
  C   C3        1.0  0.2283301086884748  0.9409144209883777  0.41801973559061884  1.0000
  C   C4        1.0  0.7713754244292376  0.0554509376179553  0.5809290301402612  1.0000
  C   C5        1.0  0.3360219569912958  0.8810693519657846  0.3797005800695672  1.0000
  C   C6        1.0  0.6639575509340717  0.1155786700642309  0.6193209421910454  1.0000
  C   C7        1.0  0.4531807372721133  0.9300198597638739  0.35254100663127724  1.0000
  C   C8        1.0  0.5475933829862214  0.0674587451122903  0.6479649062826027  1.0000
  C   C9        1.0  0.45514509253448676  0.0369858044035496  0.36319808417250954  1.0000
  C   C10       1.0  0.5463382273730418  0.9610291149451342  0.6387750421998178  1.0000
  C   C11       1.0  0.5695180971771096  0.8665863744329272  0.3127833700068763  1.0000
  C   C12       1.0  0.43157828510369006  0.1314152821158245  0.6876640737807521  1.0000
  C   C13       1.0  0.8065788739493841  0.8621143240786537  0.2606076080516999  1.0000
  C   C14       1.0  0.19425440654267592  0.1367046525163005  0.7396012901706187  1.0000
  C   C15       1.0  0.9025948231058367  0.9257840530335102  0.21735808821352254  1.0000
  C   C16       1.0  0.09786628775437121  0.0741291045563699  0.7837207902886478  1.0000
  C   C17       1.0  0.009071146860165427  0.8572709153261044  0.1567468550939779  1.0000
  C   C18       1.0  0.9910929837106226  0.1432266343860675  0.843289542618777  1.0000
  C   C19       1.0  0.1011946897193283  0.9169352786995333  0.10738432050982982  1.0000
  C   C20       1.0  0.8985697346105469  0.0850626252556879  0.893804634531385  1.0000
  C   C21       1.0  0.352198643769988  0.9052283709787972  0.08354700705474012  1.0000
  C   C22       1.0  0.6478615927491803  0.09793085689604199  0.9186437713476965  1.0000
  C   C23       1.0  0.45531409747102464  0.8284649427846347  0.04176118749802525  1.0000
  C   C24       1.0  0.5448839601115978  0.174922239464145  0.9598292757982849  1.0000
  C   C25       1.0  0.5816283929067724  0.8664968505333378  0.015836108275770693  1.0000
  C   C26       1.0  0.4191095188297354  0.1377764525363361  0.9869721784577765  1.0000
  C   C27       1.0  0.679909313102108  0.796642512182153  0.9807133464479706  1.0000
  C   C28       1.0  0.3204507723574395  0.207581055387756  0.020743056993438803  1.0000
  C   C29       1.0  0.6517037263044188  0.6923239592657211  0.9759542835275925  1.0000
  C   C30       1.0  0.34796598980130267  0.3109165032587384  0.023202165987811413  1.0000
  C   C31       1.0  0.4341082372555434  0.7219480807783967  0.033892117842128845  1.0000
  C   C32       1.0  0.5655337652307609  0.2805380599995644  0.9655660395001179  1.0000
  N   N1        1.0  0.3520832889539848  0.0948431112853498  0.4009372792301634  1.0000
  N   N2        1.0  0.6490785671469227  0.9027614901902369  0.6009230587923399  1.0000
  N   N3        1.0  0.531171024659308  0.6559598486092852  0.0028577973324032968  1.0000
  N   N4        1.0  0.46835643377240643  0.3465221475436877  0.995513098431218  1.0000
  N   N5        1.0  0.2137086074220775  0.8575560655247827  0.06178624429576736  1.0000
  N   N6        1.0  0.786451831985282  0.1453287881763288  0.9391262939181717  1.0000
  N   N7        1.0  0.6903199496028949  0.919068931639643  0.3031356489018151  1.0000
  N   N8        1.0  0.3105226684278719  0.0793994096819404  0.6975666550231169  1.0000
  O   O1        1.0  0.5809018107787125  0.2718600442147903  0.42455263552717787  1.0000
  O   O2        1.0  0.41869004555103123  0.7254851037370003  0.5768627532645567  1.0000
  O   O3        1.0  0.14382518537716046  0.2209640494507141  0.35503471636648953  1.0000
  O   O4        1.0  0.8619977950987875  0.7798982272597712  0.647511221749113  1.0000
  O   O5        1.0  0.7944169106418999  0.4552025037898986  0.4579443453201293  1.0000
  O   O6        1.0  0.20832412579758142  0.5424634381353997  0.5405471607217365  1.0000
  O   O7        1.0  0.3886630645568445  0.4306406272287546  0.4412775443358329  1.0000
  O   O8        1.0  0.6293253236935784  0.5796921175628285  0.5796812577251842  1.0000
  O   O9        1.0  0.7946207504756091  0.2678944670331731  0.2973842895285728  1.0000
  O   O10       1.0  0.2002238203434246  0.7311342275858123  0.7010521388978644  1.0000
  O   O11       1.0  0.3641776574550094  0.2180943111140223  0.24447720745305906  1.0000
  O   O12       1.0  0.6390411506506625  0.7854379330090921  0.7595330339808372  1.0000
  O   O13       1.0  0.20055472685739772  0.4562660145599721  0.7003606101189348  1.0000
  O   O14       1.0  0.8005223553835066  0.5458479388947097  0.3035846314391364  1.0000
  O   O15       1.0  0.3689761062768754  0.3289058335253543  0.5830916716190729  1.0000
  O   O16       1.0  0.6251833928029669  0.6676344282551695  0.41790499935387265  1.0000
  O   O17       1.0  0.9992341058484443  0.34885971603285526  0.4816596388149251  1.0000
  O   O18       1.0  0.002627597417074427  0.6481306520205763  0.5163736559156576  1.0000
  O   O19       1.0  0.42024670574543427  0.5635504611126549  0.15113984325370916  1.0000
  O   O20       1.0  0.5814615285045193  0.4365516913763586  0.8462778128276583  1.0000
  O   O21       1.0  0.7907543439561168  0.1450411512026619  0.4074620236335918  1.0000
  O   O22       1.0  0.21128731940561352  0.8540331342911145  0.590942826131041  1.0000
  O   O23       1.0  0.2801278513820904  0.4552721334895793  0.9004717986787656  1.0000
  O   O24       1.0  0.7207428392985662  0.5465997738662267  0.09826138013817598  1.0000
  O   O25       1.0  0.8013850912366396  0.3467484440676429  0.5935980414558842  1.0000
  O   O26       1.0  0.20061741329299562  0.6510774803819217  0.4055116439210025  1.0000
  O   O27       1.0  0.1766812658783152  0.6658456081134644  0.865055755280487  1.0000
  O   O28       1.0  0.8116099952547415  0.3362418197413461  0.137165619289938  1.0000
  O   O29       1.0  0.99874940859992  0.5394801370742286  0.6522369531903678  1.0000
  O   O30       1.0  0.0018350729450134287  0.457401641804708  0.3450326739687953  1.0000
  O   O31       1.0  0.0339187907943526  0.2514154381095608  0.6224006476466927  1.0000
  O   O32       1.0  0.9693370354047276  0.7482664494064011  0.37763879960935043  1.0000
  O   O33       1.0  0.41122700543482443  0.6352980641550658  0.7590116517136778  1.0000
  O   O34       1.0  0.5827676386162396  0.373479617343726  0.2518799570152411  1.0000
  O   O35       1.0  0.40058704187919153  0.0071552805668347  0.13732049120108775  1.0000
  O   O36       1.0  0.5991674929241313  0.9960793794826586  0.8662491195917071  1.0000
  O   O37       1.0  0.5516578950587175  0.7644686173812901  0.2890440543045186  1.0000
  O   O38       1.0  0.44998330475866777  0.2334551202178119  0.7109793133084636  1.0000
  O   O39       1.0  0.9685939132944771  0.4241783279587139  0.8000382071471821  1.0000
  O   O40       1.0  0.030307094251099936  0.5731270315932591  0.19941788013656495  1.0000
