data_image0
_chemical_formula_structural       Hg4H24C40N48
_chemical_formula_sum              "Hg4 H24 C40 N48"
_cell_length_a       8.948824844389025
_cell_length_b       9.968333225
_cell_length_c       15.579
_cell_angle_alpha    90.0
_cell_angle_beta     91.86755401874778
_cell_angle_gamma    90.0

_space_group_name_H-M_alt    "P 1"
_space_group_IT_number       1

loop_
  _space_group_symop_operation_xyz
  'x, y, z'

loop_
  _atom_site_type_symbol
  _atom_site_label
  _atom_site_symmetry_multiplicity
  _atom_site_fract_x
  _atom_site_fract_y
  _atom_site_fract_z
  _atom_site_occupancy
  Hg  Hg1       1.0  0.5303636041245239  0.8801872692212314  0.119828139783607  1.0000
  Hg  Hg2       1.0  0.46963510932494046  0.3801869293951086  0.38017215707734664  1.0000
  Hg  Hg3       1.0  0.46963734544301877  0.1198124072542726  0.8801715570471984  1.0000
  Hg  Hg4       1.0  0.5303613680064458  0.6198117439036537  0.6198280979240351  1.0000
  H   H1        1.0  0.1081833926800257  0.7722113442892039  0.0375595393622348  1.0000
  H   H2        1.0  0.8918164388284779  0.27221200763982273  0.4624414203182354  1.0000
  H   H3        1.0  0.8918175568875171  0.2277893353630347  0.9624414412480178  1.0000
  H   H4        1.0  0.1081800385029084  0.7277896751891505  0.5375581927934265  1.0000
  H   H5        1.0  0.0415336572062586  0.646467152987853  0.2882927445997367  1.0000
  H   H6        1.0  0.9584639381841669  0.1464708258686827  0.2117075313314274  1.0000
  H   H7        1.0  0.9584650562432059  0.3535305171341747  0.7117069103714897  1.0000
  H   H8        1.0  0.04153253914721938  0.8535308569602904  0.7882933655596744  1.0000
  H   H9        1.0  0.7833613578018088  0.7496669534740619  0.2815229212133374  1.0000
  H   H10       1.0  0.21663735564765568  0.24966862000141532  0.21847865942707054  1.0000
  H   H11       1.0  0.2166362375886166  0.2503297134712312  0.7184767128281138  1.0000
  H   H12       1.0  0.783362475860848  0.7503310564740886  0.7815210164739528  1.0000
  H   H13       1.0  0.2142816052510312  0.4006075950576005  0.03782861646751461  1.0000
  H   H14       1.0  0.785722698493629  0.9006069317069817  0.4621724269320994  1.0000
  H   H15       1.0  0.7857249346117072  0.5993920814179035  0.962171185012224  1.0000
  H   H16       1.0  0.21428272331007747  0.0993917415917878  0.5378286373972969  1.0000
  H   H17       1.0  0.21416197293378758  0.6045775019724999  0.8049442921225065  1.0000
  H   H18       1.0  0.785838976633755  0.1045781653231188  0.6950560465980189  1.0000
  H   H19       1.0  0.785838976633755  0.39542217450299694  0.1950560465980189  1.0000
  H   H20       1.0  0.21415973681570924  0.8954215111523851  0.3049429664834875  1.0000
  H   H21       1.0  0.3773628148386834  0.7850209080465405  0.8729727328137572  1.0000
  H   H22       1.0  0.6226370166698203  0.2850195650436831  0.6270263011975388  1.0000
  H   H23       1.0  0.6226370166698203  0.2149807747824326  0.1270263011975388  1.0000
  H   H24       1.0  0.3773616967796442  0.7149771019016101  0.3729733537736878  1.0000
  C   C1        1.0  0.8270573411908231  0.8815836912394134  0.010369013909631502  1.0000
  C   C2        1.0  0.1729413722586415  0.3815863609435084  0.4896319248410421  1.0000
  C   C3        1.0  0.1729413722586415  0.11841698841282522  0.9896299991718749  1.0000
  C   C4        1.0  0.827056223131784  0.6184153218854718  0.5103696348695692  1.0000
  C   C5        1.0  0.8913267289690976  0.8182461215826748  0.087556458733097  1.0000
  C   C6        1.0  0.108674220598445  0.3182507976402462  0.4124445218771555  1.0000
  C   C7        1.0  0.1086731025394059  0.1817515485393528  0.912443859057646  1.0000
  C   C8        1.0  0.8913244928510196  0.6817508851887341  0.5875551330940783  1.0000
  C   C9        1.0  0.0360339247900399  0.7647426934807342  0.09245964141832992  1.0000
  C   C10       1.0  0.9639647886594175  0.2647463663615639  0.4075412973323509  1.0000
  C   C11       1.0  0.9639659067184567  0.2352579861715043  0.9075413182621405  1.0000
  C   C12       1.0  0.0360316886719616  0.7352573228208854  0.592459599558758  1.0000
  C   C13       1.0  5.7021011024e-05  0.6974054581727743  0.2302270126017447  1.0000
  C   C14       1.0  0.9999394563203623  0.19740812787686224  0.2697745261790843  1.0000
  C   C15       1.0  0.9999416924384406  0.3025922119492535  0.769773284259216  1.0000
  C   C16       1.0  5.5902951984899996e-05  0.8025925517753763  0.730225066002788  1.0000
  C   C17       1.0  0.8565886346060481  0.7532683579606144  0.22710002095470122  1.0000
  C   C18       1.0  0.1434089607843774  0.2532710276647094  0.27289961308674293  1.0000
  C   C19       1.0  0.1434100788434165  0.24672931216141342  0.7728996340165253  1.0000
  C   C20       1.0  0.8565875165470089  0.7467286488107945  0.7271006419146389  1.0000
  C   C21       1.0  0.3968080976569084  0.5756960437084473  0.1267143673894466  1.0000
  C   C22       1.0  0.6031928519106344  0.0756957038823316  0.3732853294413587  1.0000
  C   C23       1.0  0.6031928519106344  0.4243046359437912  0.8732859713310861  1.0000
  C   C24       1.0  0.3968092157159474  0.9243029694164379  0.6267137464295089  1.0000
  C   C25       1.0  0.34366786955966677  0.5845049386378207  0.0374822247345179  1.0000
  C   C26       1.0  0.6563319619488366  0.0845025924582288  0.4625174511665051  1.0000
  C   C27       1.0  0.6563319619488366  0.4154977473678941  0.962516809276778  1.0000
  C   C28       1.0  0.3436701056777451  0.9154970840172751  0.5374822665940899  1.0000
  C   C29       1.0  0.2506543019301049  0.4859729195098197  0.9998382160179347  1.0000
  C   C30       1.0  0.7493455295783986  0.9859742625126771  0.5001614598830884  1.0000
  C   C31       1.0  0.7493477656964771  0.514024750612208  0.00016085985293300077  1.0000
  C   C32       1.0  0.2506543019301049  0.0140244107860852  0.49983629034876037  1.0000
  C   C33       1.0  0.24933052002711517  0.5996468883091524  0.8726666349706704  1.0000
  C   C34       1.0  0.7506704295404274  0.09964755165977121  0.6273343456395821  1.0000
  C   C35       1.0  0.7506704295404274  0.4003517849896099  0.1273330618601349  1.0000
  C   C36       1.0  0.24933052002711517  0.9003521248157327  0.372663425522056  1.0000
  C   C37       1.0  0.3397423642713306  0.6995743262786007  0.9103010953465756  1.0000
  C   C38       1.0  0.6602585852962122  0.199573986452485  0.5896998852636772  1.0000
  C   C39       1.0  0.6602585852962122  0.3004263533736378  0.08969924337395702  1.0000
  C   C40       1.0  0.33974124621229146  0.8004246868462772  0.4103004325270661  1.0000
  N   N1        1.0  0.6873648086543653  0.9315509213427191  0.007088364848314699  1.0000
  N   N2        1.0  0.3126339047950992  0.4315505815166034  0.4929132157920861  1.0000
  N   N3        1.0  0.3126372589722166  0.068450761486254  0.9929126366917203  1.0000
  N   N4        1.0  0.6873625725362871  0.5684470886054243  0.5070876810990157  1.0000
  N   N5        1.0  0.6683779300424177  0.9810075344867926  0.9277394182956515  1.0000
  N   N6        1.0  0.3316219014660859  0.4810061914839352  0.5722615413848189  1.0000
  N   N7        1.0  0.3316230195251251  0.0189921419887114  0.07226092042488123  1.0000
  N   N8        1.0  0.6683745758652933  0.5189924818148342  0.42773871361656296  1.0000
  N   N9        1.0  0.7914762303118508  0.9627366765721279  0.8841287740180377  1.0000
  N   N10       1.0  0.2085236011966529  0.4627363367460049  0.6158728275521526  1.0000
  N   N11       1.0  0.208524719255692  0.037262999903376205  0.11587156470249481  1.0000
  N   N12       1.0  0.7914728761347332  0.537263339729499  0.3841280693389564  1.0000
  N   N13       1.0  0.8930563663034903  0.8995706501374486  0.934639995724176  1.0000
  N   N14       1.0  0.10694234714597427  0.399572316664802  0.565360943026505  1.0000
  N   N15       1.0  0.1069434652050134  0.10042902633804832  0.0653596801768472  1.0000
  N   N16       1.0  0.8930552482444511  0.6004283629874365  0.43463997479438643  1.0000
  N   N17       1.0  0.0903548232331914  0.7044166603890787  0.1633917856649063  1.0000
  N   N18       1.0  0.909643890216273  0.204421336446643  0.3366110787549417  1.0000
  N   N19       1.0  0.9096450082753123  0.2955820129096836  0.836609174015557  1.0000
  N   N20       1.0  0.0903525871151132  0.7955823527358065  0.6633911019156145  1.0000
  N   N21       1.0  0.80344393427265  0.8132543141383622  0.1558740850999172  1.0000
  N   N22       1.0  0.1965558972358536  0.3132559806657156  0.344126874580546  1.0000
  N   N23       1.0  0.1965558972358536  0.1867453623371418  0.844125590801106  1.0000
  N   N24       1.0  0.8034416981545718  0.6867436958097883  0.6558727594608982  1.0000
  N   N25       1.0  0.4693455320336568  0.67597760306613  0.16880657193880214  1.0000
  N   N26       1.0  0.5306576536519643  0.1759772632400143  0.3311938086412952  1.0000
  N   N27       1.0  0.5306565355929251  0.3240240797628431  0.8311931458217855  1.0000
  N   N28       1.0  0.4693444139746177  0.8240224132354896  0.66880655100902  1.0000
  N   N29       1.0  0.5002799895436922  0.6333887378649479  0.24842603214266756  1.0000
  N   N30       1.0  0.4997209600238506  0.1333873948620905  0.2515749484675851  1.0000
  N   N31       1.0  0.49971872390577227  0.3666129449640252  0.7515742647182933  1.0000
  N   N32       1.0  0.5002799895436922  0.8666122816134063  0.7484260321426675  1.0000
  N   N33       1.0  0.4471062196752627  0.5099578721195854  0.2530799038689935  1.0000
  N   N34       1.0  0.5528947298922802  0.0099565291167352  0.24692043485153903  1.0000
  N   N35       1.0  0.5528936118332409  0.49004381070938763  0.7469204139217498  1.0000
  N   N36       1.0  0.4471051016162235  0.9900421441820342  0.7530798829392042  1.0000
  N   N37       1.0  0.3817042380897888  0.4699301171284844  0.17873344344793202  1.0000
  N   N38       1.0  0.6183000656548785  0.9699294537778655  0.3212656742825147  1.0000
  N   N39       1.0  0.6182989475958323  0.5300705625237541  0.8212656533527253  1.0000
  N   N40       1.0  0.3817053561488279  0.0300692195208967  0.6787334643777143  1.0000
  N   N41       1.0  0.20350463416750128  0.4933552971188889  0.9176660295259893  1.0000
  N   N42       1.0  0.7964963154000413  0.9933566401217462  0.5823336673048162  1.0000
  N   N43       1.0  0.7964974334590806  0.5066433761798734  0.08233240445515123  1.0000
  N   N44       1.0  0.20350463416750128  0.0066440395304923  0.4176666714157165  1.0000
  N   N45       1.0  0.3867164967646985  0.6925059429882765  0.9925489482979658  1.0000
  N   N46       1.0  0.6132844528028442  0.1925056031621608  0.5074507485328397  1.0000
  N   N47       1.0  0.6132844528028442  0.3074937334872274  0.007450748532839699  1.0000
  N   N48       1.0  0.3867153787056594  0.807492066959867  0.49254828547845625  1.0000
