data_image0
_chemical_formula_structural       Ga4H32C68O20F24
_chemical_formula_sum              "Ga4 H32 C68 O20 F24"
_cell_length_a       12.312172608271053
_cell_length_b       12.8712200765125
_cell_length_c       14.120564960537475
_cell_angle_alpha    117.07822525460638
_cell_angle_beta     105.67799068546827
_cell_angle_gamma    90.0571597692787

_space_group_name_H-M_alt    "P 1"
_space_group_IT_number       1

loop_
  _space_group_symop_operation_xyz
  'x, y, z'

loop_
  _atom_site_type_symbol
  _atom_site_label
  _atom_site_symmetry_multiplicity
  _atom_site_fract_x
  _atom_site_fract_y
  _atom_site_fract_z
  _atom_site_occupancy
  Ga  Ga1       1.0  0.7499504150996187  0.9000040373389879  0.00011420048132041316  1.0000
  Ga  Ga2       1.0  0.2500363738417093  0.10000098047346026  0.9998783333749586  1.0000
  Ga  Ga3       1.0  0.999975616523791  0.9999969775691329  7.838363771781134e-07  1.0000
  Ga  Ga4       1.0  0.49997250404293675  6.718724975500134e-06  7.001113296244327e-06  1.0000
  H   H1        1.0  0.6713033128887104  0.3547282381665298  0.23268512193990898  1.0000
  H   H2        1.0  0.8288373151481351  0.1217410950880691  0.7670094838181427  1.0000
  H   H3        1.0  0.32869107569149497  0.6452662257654396  0.7673254343175061  1.0000
  H   H4        1.0  0.17115217946282263  0.8782357202885438  0.23298338433558313  1.0000
  H   H5        1.0  0.3803071877661921  0.4349316242287741  0.04187629187297398  1.0000
  H   H6        1.0  0.11971688836843698  0.39321586844300777  0.9581334062231123  1.0000
  H   H7        1.0  0.6197125871582969  0.5650725118774672  0.9581033493850483  1.0000
  H   H8        1.0  0.8802687808386906  0.606765376894245  0.04188231822467262  1.0000
  H   H9        1.0  0.7471599229160049  0.5674926709557724  0.34689585734651024  1.0000
  H   H10       1.0  0.7529355564620274  0.22050495866584902  0.6530334276698753  1.0000
  H   H11       1.0  0.2528463210247338  0.43250797026944804  0.6531172975278495  1.0000
  H   H12       1.0  0.2470351961072481  0.7794947699786475  0.3469643578616796  1.0000
  H   H13       1.0  0.4593466029363213  0.6463172042732027  0.14798348398323927  1.0000
  H   H14       1.0  0.040673922556180714  0.4986106131156732  0.8521813883766073  1.0000
  H   H15       1.0  0.5406914294843901  0.35369046585162056  0.8519970935888991  1.0000
  H   H16       1.0  0.9593084713429432  0.501395315624947  0.14784019962138467  1.0000
  H   H17       1.0  0.5450771956631825  0.6922452692998319  0.4408043066516428  1.0000
  H   H18       1.0  0.9549736497895793  0.251961708378083  0.5593497563798594  1.0000
  H   H19       1.0  0.45492087523252417  0.3077800344334917  0.5591972249220731  1.0000
  H   H20       1.0  0.04502978749567891  0.7480309965942311  0.44066085387711246  1.0000
  H   H21       1.0  0.8713772802882713  0.8733812847192011  0.4999507983415725  1.0000
  H   H22       1.0  0.6286731247208905  0.3733690353765057  0.5001934335682635  1.0000
  H   H23       1.0  0.1286332302762574  0.1266184592595678  0.5000460247007652  1.0000
  H   H24       1.0  0.3713412087494348  0.6266342428317343  0.49981002751862746  1.0000
  H   H25       1.0  0.9327679217949412  0.8979793318036189  0.6919069711896313  1.0000
  H   H26       1.0  0.5671662003542153  0.20601692855053239  0.3083147299063427  1.0000
  H   H27       1.0  0.0672420674474949  0.10201071393201741  0.3080871340698579  1.0000
  H   H28       1.0  0.43283771718936487  0.7939969322354797  0.6916983652956148  1.0000
  H   H29       1.0  0.6058375678183127  0.7267601150552992  0.6367110294592139  1.0000
  H   H30       1.0  0.8940932714401626  0.09049142663125308  0.36354668624675673  1.0000
  H   H31       1.0  0.3941564328490088  0.27324843774180607  0.3632875492291348  1.0000
  H   H32       1.0  0.1059090268046674  0.9095047985161243  0.6364594363587629  1.0000
  C   C1        1.0  0.4669091495595268  0.25620669194004364  0.07471575329419274  1.0000
  C   C2        1.0  0.0332277064534523  0.18142048553595194  0.9251120923744622  1.0000
  C   C3        1.0  0.5330716926166302  0.7437992212210671  0.9252919954103689  1.0000
  C   C4        1.0  0.9667582592663706  0.8185536592172794  0.07485756887940923  1.0000
  C   C5        1.0  0.5202704710534789  0.382345700409708  0.1316046689482918  1.0000
  C   C6        1.0  0.9798688696328809  0.2506387227183993  0.8682107901703658  1.0000
  C   C7        1.0  0.4797219507413431  0.6176584554982866  0.868403749038947  1.0000
  C   C8        1.0  0.020122556091678186  0.7493284044826678  0.1317877502284474  1.0000
  C   C9        1.0  0.625228914325895  0.41960308942021374  0.21568141827140144  1.0000
  C   C10       1.0  0.8749303036530803  0.20372764219611378  0.7841064479049819  1.0000
  C   C11       1.0  0.3747600046171867  0.5804063570141124  0.7843304599746617  1.0000
  C   C12       1.0  0.12506250304252123  0.7962606353067301  0.2158891281733162  1.0000
  C   C13       1.0  0.4618669314396726  0.4647973299044282  0.10747805417395995  1.0000
  C   C14       1.0  0.03822251780264448  0.3573550143110395  0.8924561060352048  1.0000
  C   C15       1.0  0.5381516860534177  0.5352121181971653  0.8925240392955657  1.0000
  C   C16       1.0  0.9617584334142675  0.642621806778564  0.10754531309953556  1.0000
  C   C17       1.0  0.66745993315439  0.5391157280569842  0.2790677077496965  1.0000
  C   C18       1.0  0.8326667049630315  0.25995014759421053  0.7208253383930127  1.0000
  C   C19       1.0  0.3325359431758841  0.4608893165353364  0.7209461656092273  1.0000
  C   C20       1.0  0.16732445337702723  0.7400504727504608  0.27917422965286676  1.0000
  C   C21       1.0  0.5064092628699797  0.5841842837639534  0.16867536659145094  1.0000
  C   C22       1.0  0.9936632226832387  0.41561598643632175  0.8313393408602396  1.0000
  C   C23       1.0  0.49361682619804265  0.4158304614988637  0.8313321465687622  1.0000
  C   C24       1.0  0.006319851637378796  0.5843758222752411  0.16866524611251069  1.0000
  C   C25       1.0  0.607836940837565  0.6229515577841978  0.25745209119566687  1.0000
  C   C26       1.0  0.8922361880018813  0.3655688977454758  0.7425503121686816  1.0000
  C   C27       1.0  0.3921744417840998  0.37704290460303724  0.7425505514344977  1.0000
  C   C28       1.0  0.1077487336805802  0.6344299640416792  0.25745551330780364  1.0000
  C   C29       1.0  0.6601678725908683  0.7536333018228516  0.3328277255137735  1.0000
  C   C30       1.0  0.8398371375737027  0.4209889935519298  0.6672895023846052  1.0000
  C   C31       1.0  0.3398375530009972  0.2463549880131452  0.6671744609550387  1.0000
  C   C32       1.0  0.16015819127693476  0.5789931125275486  0.33270342770617845  1.0000
  C   C33       1.0  0.756821028761415  0.7741038690287639  0.28843916959899474  1.0000
  C   C34       1.0  0.7431348880786784  0.48543697958157134  0.7117919417282225  1.0000
  C   C35       1.0  0.24318182647728287  0.22590205056126675  0.7115661368144542  1.0000
  C   C36       1.0  0.2568690707649849  0.514575981873861  0.2882045029648382  1.0000
  C   C37       1.0  0.5730170827411953  0.8408940545533381  0.3281616371502594  1.0000
  C   C38       1.0  0.9268649947080831  0.5132912232686876  0.672131240514318  1.0000
  C   C39       1.0  0.4269781091687719  0.1590924503179423  0.6718238706328208  1.0000
  C   C40       1.0  0.0731557534242739  0.48669795713470165  0.3278736182875335  1.0000
  C   C41       1.0  0.7041739761867376  0.778570397594379  0.4552303467165687  1.0000
  C   C42       1.0  0.7959157451689192  0.3236851231686869  0.544904709397933  1.0000
  C   C43       1.0  0.2958187538914602  0.2214346203995063  0.5447600888254058  1.0000
  C   C44       1.0  0.20408534431611966  0.6763208036446997  0.455107961571585  1.0000
  C   C45       1.0  0.6298494962056579  0.7383664171767419  0.4956563107911194  1.0000
  C   C46       1.0  0.8702076563165875  0.2431789970707996  0.504480437470356  1.0000
  C   C47       1.0  0.3701565221700206  0.2616368424214243  0.5043330838373308  1.0000
  C   C48       1.0  0.12979002132097864  0.756820757377689  0.49553097903096704  1.0000
  C   C49       1.0  0.8128045167213003  0.8383618961695659  0.5273541317678082  1.0000
  C   C50       1.0  0.6872579572996997  0.3111140220662135  0.4727908498666125  1.0000
  C   C51       1.0  0.18720614192233848  0.16162637883720518  0.4726323221876498  1.0000
  C   C52       1.0  0.3127567460470217  0.6888927964571678  0.5272262036321466  1.0000
  C   C53       1.0  0.8477946627896813  0.8535490174650066  0.6358337743794565  1.0000
  C   C54       1.0  0.6521954841749461  0.21781265205438413  0.3643464540040782  1.0000
  C   C55       1.0  0.15221870813859079  0.14644102978591889  0.36416044446254864  1.0000
  C   C56       1.0  0.3478070645227405  0.7822038584597377  0.6356723612468828  1.0000
  C   C57       1.0  0.6635252135320612  0.7564303839597384  0.6046805053489237  1.0000
  C   C58       1.0  0.836462321725989  0.15215857246566597  0.39549107802823613  1.0000
  C   C59       1.0  0.3364816484814881  0.24357287620726709  0.39530909437389994  1.0000
  C   C60       1.0  0.16354250029809245  0.8478376551483324  0.604516366655382  1.0000
  C   C61       1.0  0.7734453637190271  0.8127789151624183  0.6751925792402956  1.0000
  C   C62       1.0  0.7264986141155702  0.1378003507211076  0.32497174401059675  1.0000
  C   C63       1.0  0.2265619487924013  0.18720407540859443  0.3247986688311144  1.0000
  C   C64       1.0  0.2735003413636292  0.8622082168905009  0.6750386671687423  1.0000
  C   C65       1.0  0.8102415493005921  0.833544210274468  0.7927515320095254  1.0000
  C   C66       1.0  0.6896745793642935  0.04095238101849219  0.20744141039714492  1.0000
  C   C67       1.0  0.18974525553365137  0.1664669799077885  0.20724355632240332  1.0000
  C   C68       1.0  0.3103422564822225  0.9590509019366563  0.792565493152793  1.0000
  O   O1        1.0  0.3591879001617783  0.23709219717883193  0.033188315419152986  1.0000
  O   O2        1.0  0.14095472657491834  0.20385679673722024  0.9665674384869832  1.0000
  O   O3        1.0  0.6407964009083855  0.7629233726064938  0.9667824790373417  1.0000
  O   O4        1.0  0.8590248505222604  0.7961394069705744  0.03342749221059903  1.0000
  O   O5        1.0  0.5334481540246756  0.18082697331915645  0.07594143667171951  1.0000
  O   O6        1.0  0.9666283227297043  0.10482552681084911  0.9240112356742642  1.0000
  O   O7        1.0  0.46653569896894004  0.8191842600022099  0.9240947372810951  1.0000
  O   O8        1.0  0.0333667083437632  0.8951336141524349  0.07593601332397526  1.0000
  O   O9        1.0  0.7340000288047861  0.8186350704645375  0.8325902709301545  1.0000
  O   O10       1.0  0.7659151356381884  0.9863086135419152  0.16766703077536257  1.0000
  O   O11       1.0  0.2659746034620909  0.1814087200087329  0.16739975232340504  1.0000
  O   O12       1.0  0.2341050890285175  0.013694670168426603  0.8323392795620991  1.0000
  O   O13       1.0  0.9167154496551362  0.8637962318317561  0.8450217773980244  1.0000
  O   O14       1.0  0.5831943172981228  0.018803663941127997  0.15514423102668937  1.0000
  O   O15       1.0  0.0832630223310176  0.13619203524063286  0.1549696052809537  1.0000
  O   O16       1.0  0.4168203472465493  0.9811960897227221  0.8448599786423614  1.0000
  O   O17       1.0  0.866160838535471  0.022006632184734098  0.03827697134662599  1.0000
  O   O18       1.0  0.6340335421484795  0.9839864848363007  0.9619928509924734  1.0000
  O   O19       1.0  0.1338652014658805  0.9779939803186507  0.961702026974244  1.0000
  O   O20       1.0  0.36600466450362024  0.016062685756438103  0.0380580341787606  1.0000
  F   F1        1.0  0.718942829671235  0.7356088810112739  0.1769991859580672  1.0000
  F   F2        1.0  0.781066700362281  0.5582632371373606  0.8232660166412914  1.0000
  F   F3        1.0  0.2810587390854237  0.2643873314057217  0.8229954228333513  1.0000
  F   F4        1.0  0.2189325041818719  0.441770000190985  0.17673623577110228  1.0000
  F   F5        1.0  0.8441059669047348  0.713649421053553  0.3071647455994793  1.0000
  F   F6        1.0  0.655999737183592  0.406004491112391  0.6930603719488246  1.0000
  F   F7        1.0  0.15589054327312374  0.2863591357303719  0.6928365687569382  1.0000
  F   F8        1.0  0.3440014680753548  0.5940075974294672  0.3069449583665858  1.0000
  F   F9        1.0  0.8031428703676866  0.8895947971778496  0.33801036701056825  1.0000
  F   F10       1.0  0.6966604593809506  0.551379216335377  0.6623249029472973  1.0000
  F   F11       1.0  0.19685120703518066  0.11040229424821038  0.6619849105407312  1.0000
  F   F12       1.0  0.3033512655716634  0.4486099304472759  0.33765225519705677  1.0000
  F   F13       1.0  0.540303360825213  0.8417558741547991  0.22864219065906616  1.0000
  F   F14       1.0  0.9595086094799186  0.6135158008322107  0.771728081067721  1.0000
  F   F15       1.0  0.4596983829237756  0.15822269235982134  0.7713352537999114  1.0000
  F   F16       1.0  0.040506173850779696  0.3864919041001186  0.22829360742522203  1.0000
  F   F17       1.0  0.47631862142007014  0.8131804719229548  0.34653630047448314  1.0000
  F   F18       1.0  0.023624193906286495  0.46754396257939845  0.6537266876338422  1.0000
  F   F19       1.0  0.5236805360828214  0.18680955197588384  0.6534417094534817  1.0000
  F   F20       1.0  0.9763894311244742  0.5324434632582041  0.34628846427413873  1.0000
  F   F21       1.0  0.6177473466519243  0.9534402103606536  0.40844738015177023  1.0000
  F   F22       1.0  0.8821510738324178  0.5457362450292463  0.5919869059908933  1.0000
  F   F23       1.0  0.3822408539414326  0.0465621531631015  0.5915351928856083  1.0000
  F   F24       1.0  0.1178676202780693  0.4542564625813199  0.40802032801496324  1.0000
