data_image0
_chemical_formula_structural       Sr2V2H44C24O28
_chemical_formula_sum              "Sr2 V2 H44 C24 O28"
_cell_length_a       9.372295196845638
_cell_length_b       10.857429905015136
_cell_length_c       10.857428827999241
_cell_angle_alpha    96.74611442092313
_cell_angle_beta     112.92636489070553
_cell_angle_gamma    112.92660848369809

_space_group_name_H-M_alt    "P 1"
_space_group_IT_number       1

loop_
  _space_group_symop_operation_xyz
  'x, y, z'

loop_
  _atom_site_type_symbol
  _atom_site_label
  _atom_site_symmetry_multiplicity
  _atom_site_fract_x
  _atom_site_fract_y
  _atom_site_fract_z
  _atom_site_occupancy
  Sr  Sr1       1.0  0.25000043843379427  0.8255004422263853  0.17449759365571538  1.0000
  Sr  Sr2       1.0  0.7500003794438328  0.17449829484273496  0.8255024349056371  1.0000
  V   V1        1.0  0.24999856839752244  0.09354567009106772  0.9064534088986207  1.0000
  V   V2        1.0  0.7499998644092543  0.9064509448875244  0.09354925364349505  1.0000
  H   H1        1.0  0.992808265916416  0.7073490932379515  0.7631544119142647  1.0000
  H   H2        1.0  0.5071874519963373  0.2368433906992494  0.29265102091598294  1.0000
  H   H3        1.0  0.007191400960778189  0.2926496410509999  0.23684615751607652  1.0000
  H   H4        1.0  0.49281167737674986  0.7631564021690239  0.7073485813401135  1.0000
  H   H5        1.0  0.8932288184031448  0.7747488537091273  0.8422682631705883  1.0000
  H   H6        1.0  0.6067683600052334  0.15773217665719133  0.2252509957656628  1.0000
  H   H7        1.0  0.1067696974736165  0.22524987779966213  0.15773284712874164  1.0000
  H   H8        1.0  0.3932319345237973  0.8422676121740411  0.7747499115708508  1.0000
  H   H9        1.0  0.6939780980334833  0.515201712477364  0.5873915188077845  1.0000
  H   H10       1.0  0.8060187601866033  0.41260787401812854  0.48479931164505524  1.0000
  H   H11       1.0  0.30602102426185235  0.484798083799511  0.4126071604736197  1.0000
  H   H12       1.0  0.19398045933420593  0.5873940319717477  0.5151996613429687  1.0000
  H   H13       1.0  0.5971775630070297  0.5955035176883146  0.655549117803325  1.0000
  H   H14       1.0  0.9028201390270141  0.34445181741757125  0.40449710346590706  1.0000
  H   H15       1.0  0.4028220967924128  0.4044952200092383  0.3444505286523238  1.0000
  H   H16       1.0  0.09718141788342649  0.6555500770896147  0.5955054026576434  1.0000
  H   H17       1.0  0.5910693892091955  0.7297700425555292  0.4864528032130054  1.0000
  H   H18       1.0  0.9089254798570748  0.5135483839035543  0.27023115300126926  1.0000
  H   H19       1.0  0.408928582085707  0.27022975094119067  0.5135464169373805  1.0000
  H   H20       1.0  0.09107542816828137  0.4864524662871619  0.7297682462920108  1.0000
  H   H21       1.0  0.7147581448409283  0.6662391076253443  0.4366233892628273  1.0000
  H   H22       1.0  0.7852375641304762  0.5633774739078351  0.333763701968941  1.0000
  H   H23       1.0  0.285241612183988  0.33376173978521007  0.5633765508994415  1.0000
  H   H24       1.0  0.21476281346852485  0.43662443145360186  0.6662356531248008  1.0000
  H   H25       1.0  0.3393790144517297  0.3311906673548678  0.7962220499991162  1.0000
  H   H26       1.0  0.16062050118701882  0.2037780614628631  0.6688095089317443  1.0000
  H   H27       1.0  0.660622423999982  0.668809127665128  0.20377739349370938  1.0000
  H   H28       1.0  0.8393769396815288  0.7962227872045704  0.33118966701910324  1.0000
  H   H29       1.0  0.8407078776492724  0.6548538391809589  0.027073146611698528  1.0000
  H   H30       1.0  0.6592927445559411  0.9729275449858438  0.3451472349825551  1.0000
  H   H31       1.0  0.15929294022835447  0.34514489788816155  0.9729268819496539  1.0000
  H   H32       1.0  0.3407063918948978  0.0270722444738283  0.6548532902482478  1.0000
  H   H33       1.0  0.8834971639810121  0.5306621962190264  0.058683736309561  1.0000
  H   H34       1.0  0.6165015944275041  0.9413165030671281  0.46933674001045494  1.0000
  H   H35       1.0  0.11650124051476508  0.4693344323939714  0.9413152343337502  1.0000
  H   H36       1.0  0.38349870010152637  0.05868328576410422  0.5306641673260586  1.0000
  H   H37       1.0  0.13703325363996302  0.8027044669575647  0.4229178858482641  1.0000
  H   H38       1.0  0.362967168318022  0.577080482351562  0.19729172971940298  1.0000
  H   H39       1.0  0.862967026733557  0.19729532869087055  0.5770811755388509  1.0000
  H   H40       1.0  0.637034890707767  0.4229203706193163  0.8027071287048885  1.0000
  H   H41       1.0  0.3232981823573056  0.8206894794128844  0.4745995294725489  1.0000
  H   H42       1.0  0.17670408339799334  0.5254006785601036  0.17931093938886988  1.0000
  H   H43       1.0  0.6767027398235541  0.17931136396062192  0.5254017157701297  1.0000
  H   H44       1.0  0.8232985060541509  0.4745991192400611  0.8206879632349668  1.0000
  C   C1        1.0  0.03267097078222733  0.8837448297697461  0.6161621655193341  1.0000
  C   C2        1.0  0.46732655413122615  0.38383648616536453  0.11625518677588793  1.0000
  C   C3        1.0  0.9673340462072701  0.11625706966932373  0.3838396409719565  1.0000
  C   C4        1.0  0.5326714100859177  0.6161633107399567  0.8837431103997986  1.0000
  C   C5        1.0  0.8768593243874321  0.8308229259964507  0.6448436742807715  1.0000
  C   C6        1.0  0.6231395029731033  0.3551564534720769  0.16917870625681533  1.0000
  C   C7        1.0  0.12314161902668272  0.16917790715125144  0.3551603398860124  1.0000
  C   C8        1.0  0.3768601568263392  0.6448422842254758  0.8308209401988265  1.0000
  C   C9        1.0  0.8600882505371102  0.9523855891255835  0.7116175197388515  1.0000
  C   C10       1.0  0.6399100145851905  0.28838208530336834  0.04761666697790195  1.0000
  C   C11       1.0  0.1399098462942803  0.04761630044971812  0.2883856860169658  1.0000
  C   C12       1.0  0.3600913266410401  0.7116156000036326  0.9523824828082965  1.0000
  C   C13       1.0  0.8846180064228619  0.7323902794100265  0.7414845773069559  1.0000
  C   C14       1.0  0.6153784452319684  0.2585124046147413  0.26760932658092434  1.0000
  C   C15       1.0  0.1153811158724736  0.26760951686684825  0.2585141019744412  1.0000
  C   C16       1.0  0.38462131179295506  0.7414884427958129  0.7323906135813445  1.0000
  C   C17       1.0  0.7007424018055842  0.6162475897828729  0.6252130908852536  1.0000
  C   C18       1.0  0.7992525556568424  0.374785376789724  0.38375279032536  1.0000
  C   C19       1.0  0.2992549347597304  0.38375115258016734  0.37478486838426767  1.0000
  C   C20       1.0  0.20074783609766203  0.6252165217545099  0.6162484107177804  1.0000
  C   C21       1.0  0.70158514815639  0.7071547223537781  0.5260702899606713  1.0000
  C   C22       1.0  0.7984107615768395  0.4739286567925945  0.2928445658636676  1.0000
  C   C23       1.0  0.298412112416699  0.29284190007045663  0.4739301445263209  1.0000
  C   C24       1.0  0.20159005630078752  0.5260700802765187  0.7071554626976919  1.0000
  O   O1        1.0  0.25000011844296915  0.9932592736345287  0.006739301579827384  1.0000
  O   O2        1.0  0.7500020307305489  0.0067436924579525005  0.9932589275763916  1.0000
  O   O3        1.0  0.2500001743058675  0.2316540758796108  0.7683465643255616  1.0000
  O   O4        1.0  0.7500001273009147  0.768345709543013  0.2316552659856512  1.0000
  O   O5        1.0  0.18828345854500125  0.9638779204408507  0.7228216180541338  1.0000
  O   O6        1.0  0.3117130260238099  0.2771757519738998  0.03612052291288853  1.0000
  O   O7        1.0  0.811713892175824  0.036120815104986506  0.277178187164786  1.0000
  O   O8        1.0  0.6882884195056462  0.7228240396374945  0.9638798435546364  1.0000
  O   O9        1.0  0.20830934720539315  0.7750279627723274  0.3904715603268444  1.0000
  O   O10       1.0  0.2916904899731492  0.6095279950560197  0.22496892552339176  1.0000
  O   O11       1.0  0.7916904098195303  0.22497288463822684  0.6095283798354244  1.0000
  O   O12       1.0  0.7083109414008106  0.3904718033725772  0.7750295949947273  1.0000
  O   O13       1.0  0.9338780379844849  0.626067357269463  0.051358855214438406  1.0000
  O   O14       1.0  0.566121074905091  0.9486417694919144  0.3739340564930417  1.0000
  O   O15       1.0  0.06612162889270219  0.37393137701948836  0.9486417142159099  1.0000
  O   O16       1.0  0.43387868919758427  0.051359074510031626  0.6260668066439266  1.0000
  O   O17       1.0  0.012022204499388246  0.8471191081359069  0.49374058680698607  1.0000
  O   O18       1.0  0.48797542141917194  0.5062599799938426  0.1528812334733232  1.0000
  O   O19       1.0  0.987976415680606  0.15288172967727584  0.5062617401736702  1.0000
  O   O20       1.0  0.5120253964584548  0.4937387570752777  0.8471187950880363  1.0000
  O   O21       1.0  0.9959618373199532  0.053034790420916515  0.8224200216866961  1.0000
  O   O22       1.0  0.504037447370564  0.17758044009590188  0.946965325895384  1.0000
  O   O23       1.0  0.0040360296717167985  0.946962896771403  0.1775779817823633  1.0000
  O   O24       1.0  0.4959623096543525  0.8224204073146527  0.05303461426688471  1.0000
  O   O25       1.0  0.7134085879824282  0.9506592753893133  0.662412941910688  1.0000
  O   O26       1.0  0.7865912161638846  0.3375855071328004  0.049346654703924735  1.0000
  O   O27       1.0  0.28658937623472264  0.04934052151600811  0.3375853552649986  1.0000
  O   O28       1.0  0.21340969893922335  0.6624153396493144  0.9506536675640547  1.0000
