data_image0
_chemical_formula_structural       Br4C54Cl2H22N16Zn4
_chemical_formula_sum              "Br4 C54 Cl2 H22 N16 Zn4"
_cell_length_a       18.545205260020214
_cell_length_b       18.64528982447697
_cell_length_c       18.636207836439254
_cell_angle_alpha    102.47115016518313
_cell_angle_beta     109.93151826771502
_cell_angle_gamma    110.2991024147633

_space_group_name_H-M_alt    "P 1"
_space_group_IT_number       1

loop_
  _space_group_symop_operation_xyz
  'x, y, z'

loop_
  _atom_site_type_symbol
  _atom_site_label
  _atom_site_symmetry_multiplicity
  _atom_site_fract_x
  _atom_site_fract_y
  _atom_site_fract_z
  _atom_site_occupancy
  Br  Br1       1.0  0.8060472902692696  0.5218767292930977  0.1883013200118597  1.0000
  Br  Br2       1.0  0.8057701422499193  0.1876763287422988  0.5216713223322316  1.0000
  Br  Br3       1.0  0.8139378875754275  0.4566530821763308  0.6724777786675774  1.0000
  Br  Br4       1.0  0.814486149449543  0.6724615665013047  0.4569214004838856  1.0000
  C   C1        1.0  0.9221799612940772  0.5689620332839452  0.2647893726610135  1.0000
  C   C2        1.0  0.922083211550799  0.264456177029153  0.5688159022650225  1.0000
  C   C3        1.0  0.06539160753669648  0.7342032346238483  0.5903785621921714  1.0000
  C   C4        1.0  0.06530606389251399  0.5903293057680017  0.7339191873514538  1.0000
  C   C5        1.0  0.9250380558593817  0.512985782826199  0.6844129827073219  1.0000
  C   C6        1.0  0.9253120919616789  0.6844573769928955  0.5131339102856529  1.0000
  C   C7        1.0  0.6377857041480083  0.40716082490050803  0.4074560862000425  1.0000
  C   C8        1.0  0.2857362765499404  0.7427492027089855  0.7425869746180284  1.0000
  C   C9        1.0  0.999771933117465  0.7589491041999922  0.5709703774606539  1.0000
  C   C10       1.0  0.9994844930048004  0.5708367521831545  0.7587352491731066  1.0000
  C   C11       1.0  0.5591640263738925  0.0035859980190409133  0.09049292179178542  1.0000
  C   C12       1.0  0.559487518947698  0.0907813516560552  0.003563704411533295  1.0000
  C   C13       1.0  0.48728391711843233  0.013752772673406511  0.926620178391616  1.0000
  C   C14       1.0  0.48699518156821137  0.9265059809118553  0.013574590607618  1.0000
  C   C15       1.0  0.33233804999220956  0.8149815056240186  0.8148951133831234  1.0000
  C   C16       1.0  0.5532834526711383  0.0826596627469911  0.08254726206924093  1.0000
  C   C17       1.0  0.43012478692966727  0.9511731129397915  0.9513056583974518  1.0000
  C   C18       1.0  0.06367102818674644  0.3310609438485911  0.6304762414539339  1.0000
  C   C19       1.0  0.06376210227951157  0.6304487085071955  0.3309975437577393  1.0000
  C   C20       1.0  0.39051094055962216  0.9948161084856082  0.9950181672148023  1.0000
  C   C21       1.0  0.46352118451650887  0.07275007500126658  0.0728319843255676  1.0000
  C   C22       1.0  0.3686499552323922  0.8770677648145835  0.8772195536424761  1.0000
  C   C23       1.0  0.6265234021692977  0.15380008031068826  0.1536706585425875  1.0000
  C   C24       1.0  0.6956505932223038  0.2088044124832891  0.2089173616855291  1.0000
  C   C25       1.0  0.9991397221831093  0.17985636573119007  0.6100726799002913  1.0000
  C   C26       1.0  0.9995604319662164  0.6103043398100922  0.18010483126934682  1.0000
  C   C27       1.0  0.0031681945946502206  0.11598305558008092  0.6130441394602428  1.0000
  C   C28       1.0  0.0033118578087892665  0.6131620068435095  0.11605688755589232  1.0000
  C   C29       1.0  0.006370332157473492  0.04550177885799658  0.6137783808129456  1.0000
  C   C30       1.0  0.00637205684630968  0.6138309364911619  0.04547333474845067  1.0000
  C   C31       1.0  0.00793639848347991  0.9793294879500607  0.6117302201954404  1.0000
  C   C32       1.0  0.007898913454568005  0.6117637277539035  0.9792521037972722  1.0000
  C   C33       1.0  0.0074141161515299285  0.9061206414246284  0.6046581893119055  1.0000
  C   C34       1.0  0.007319192827800798  0.6046668050246495  0.9059973752662743  1.0000
  C   C35       1.0  0.13545183896943774  0.48334210051852716  0.4067617732675686  1.0000
  C   C36       1.0  0.13528952264700683  0.40689603710047356  0.4832907404220563  1.0000
  C   C37       1.0  0.005836558040030427  0.8379916588943528  0.5939300454685038  1.0000
  C   C38       1.0  0.005550820511970814  0.5938068581289428  0.8377700978535928  1.0000
  C   C39       1.0  0.5541209176235994  0.3931399724175079  0.39347405127900714  1.0000
  C   C40       1.0  0.48259667709486825  0.3850048161616044  0.38513641812316024  1.0000
  C   C41       1.0  0.40733789848876967  0.3805664655292134  0.380633400846861  1.0000
  C   C42       1.0  0.34071921191460314  0.3807489842889566  0.38078496282314944  1.0000
  C   C43       1.0  0.27326825253792464  0.3873783292620843  0.38736388218951845  1.0000
  C   C44       1.0  0.21640485182834363  0.3995024703478832  0.39935677715541823  1.0000
  C   C45       1.0  0.8148945578524475  0.28002692220790953  0.3561504486832803  1.0000
  C   C46       1.0  0.8151557049439048  0.35628936399151456  0.2803132801477517  1.0000
  C   C47       1.0  0.9954318859685782  0.60443637668898  0.2519137178259285  1.0000
  C   C48       1.0  0.9951176338655826  0.25168228736660586  0.6042674636745106  1.0000
  C   C49       1.0  0.16273588314913207  0.4244332192989688  0.42428721111501494  1.0000
  C   C50       1.0  0.7712374178956621  0.27558243535450083  0.27571461943633585  1.0000
  C   C51       1.0  0.6912357079183805  0.45646687591169405  0.38033867859557097  1.0000
  C   C52       1.0  0.6910080446629082  0.38016935183665623  0.45662366617734323  1.0000
  C   C53       1.0  0.253986154523254  0.6598394680537893  0.7356740169345246  1.0000
  C   C54       1.0  0.25396692383286995  0.7359196950736687  0.6598458336063757  1.0000
  Cl  Cl1       1.0  0.1715614193527983  0.36185614216906  0.6786167774956057  1.0000
  Cl  Cl2       1.0  0.1717433711372749  0.6786466223217502  0.36156599358425023  1.0000
  H   H1        1.0  0.62316837059619  0.010595045336039312  0.09904600287372031  1.0000
  H   H2        1.0  0.6234674701104411  0.09945140037672219  0.010360052675338207  1.0000
  H   H3        1.0  0.5551920173303984  0.1471542799840436  0.9991639783026188  1.0000
  H   H4        1.0  0.5546596493646944  0.9990476480378375  0.14680787696305234  1.0000
  H   H5        1.0  0.4456146750414194  0.030250873687556867  0.882490411974729  1.0000
  H   H6        1.0  0.44515907094051943  0.882124560747563  0.030094885230731585  1.0000
  H   H7        1.0  0.45809103662549683  0.06801620315819433  0.12873764804292162  1.0000
  H   H8        1.0  0.4584062115679757  0.1287431654696647  0.0681829148456146  1.0000
  H   H9        1.0  0.34866787745968253  0.9512172732049677  0.012154683554641145  1.0000
  H   H10       1.0  0.3490684461963698  0.012029068723045275  0.9515647205280474  1.0000
  H   H11       1.0  0.1435920220126832  0.5142128302547775  0.3648818130300101  1.0000
  H   H12       1.0  0.14334830369782028  0.36509993967239046  0.5142063500000091  1.0000
  H   H13       1.0  0.8028134324032479  0.231409861761648  0.3803512211755234  1.0000
  H   H14       1.0  0.8032091749124248  0.38059595738288715  0.23185694450036465  1.0000
  H   H15       1.0  0.6767512858909299  0.49015123111246334  0.34132828706707846  1.0000
  H   H16       1.0  0.6762794648911595  0.34106113686878103  0.4902826213383663  1.0000
  H   H17       1.0  0.26456961201757423  0.6358325051325978  0.7844409170675563  1.0000
  H   H18       1.0  0.2646818695070507  0.7848208170618776  0.6359264549298089  1.0000
  H   H19       1.0  0.13343069980922445  0.7714551005927959  0.6329358163899101  1.0000
  H   H20       1.0  0.13340096629198683  0.6329024788298341  0.7711328579529068  1.0000
  H   H21       1.0  0.5139514742972436  0.8939977436618988  0.9826197691797917  1.0000
  H   H22       1.0  0.5141625767175597  0.9828841212731305  0.89390946958428  1.0000
  N   N1        1.0  0.944892855002017  0.573213436904396  0.3424272481149232  1.0000
  N   N2        1.0  0.9450730179930532  0.342281898997051  0.5732230741958021  1.0000
  N   N3        1.0  0.03402501437940943  0.3842450069793131  0.6123021094619788  1.0000
  N   N4        1.0  0.03382632541344321  0.6121058163764488  0.3841640814050678  1.0000
  N   N5        1.0  0.0971935273618172  0.5002201346659092  0.4532538641034663  1.0000
  N   N6        1.0  0.09708063143520469  0.45327279700001105  0.5002140739817734  1.0000
  N   N7        1.0  0.8772256371949751  0.3581350710025148  0.40527649889972395  1.0000
  N   N8        1.0  0.8774034752687143  0.4054261793985461  0.35824422071524253  1.0000
  N   N9        1.0  0.7690227054330377  0.45878486873773733  0.4113513527111081  1.0000
  N   N10       1.0  0.7689234848330457  0.41138709707374926  0.45877408552745885  1.0000
  N   N11       1.0  0.20497058039678953  0.608467013519288  0.6558740143050414  1.0000
  N   N12       1.0  0.20491456939758015  0.655982126173157  0.608491010535552  1.0000
  N   N13       1.0  0.03249617674349274  0.6530150245362023  0.5466531565752958  1.0000
  N   N14       1.0  0.03253895740537863  0.5466373662842087  0.6528379984405106  1.0000
  N   N15       1.0  0.9454497632477583  0.4994893423156055  0.6219583546260452  1.0000
  N   N16       1.0  0.9455092290857934  0.6219864433074135  0.49959758402447113  1.0000
  Zn  Zn1       1.0  0.8785904374760064  0.5154150031000525  0.400302767441481  1.0000
  Zn  Zn2       1.0  0.8786412769765876  0.400316376230819  0.515336106908272  1.0000
  Zn  Zn3       1.0  0.09784389314311435  0.4971793024371183  0.6082481953744222  1.0000
  Zn  Zn4       1.0  0.09767995984312713  0.6081145574012937  0.49720374293245584  1.0000
