data_image0
_chemical_formula_structural       Sr2Co2P4H16C4O16
_chemical_formula_sum              "Sr2 Co2 P4 H16 C4 O16"
_cell_length_a       7.928378811670306
_cell_length_b       7.995880638095297
_cell_length_c       8.590629485479457
_cell_angle_alpha    84.72201967069279
_cell_angle_beta     62.52287148834539
_cell_angle_gamma    78.49631573030706

_space_group_name_H-M_alt    "P 1"
_space_group_IT_number       1

loop_
  _space_group_symop_operation_xyz
  'x, y, z'

loop_
  _atom_site_type_symbol
  _atom_site_label
  _atom_site_symmetry_multiplicity
  _atom_site_fract_x
  _atom_site_fract_y
  _atom_site_fract_z
  _atom_site_occupancy
  Sr  Sr1       1.0  0.03610256707342777  0.2499506244809382  0.9278740618230686  1.0000
  Sr  Sr2       1.0  0.9638980172942909  0.7500506232915926  0.0721263052558142  1.0000
  Co  Co1       1.0  0.4990181189062994  0.749865112626942  0.0018516995028078282  1.0000
  Co  Co2       1.0  0.500981650352415  0.2501361492951801  0.9981480581930027  1.0000
  P   P1        1.0  0.391080856064036  0.5612077318009341  0.7782060708067677  1.0000
  P   P2        1.0  0.8305803917010761  0.9389357415314237  0.7781785403296266  1.0000
  P   P3        1.0  0.608919154081967  0.43879225393924776  0.22179368686754927  1.0000
  P   P4        1.0  0.1694192653933726  0.061064237503309485  0.2218229886963812  1.0000
  H   H1        1.0  0.40112388255317194  0.6897703833571782  0.5133488132908538  1.0000
  H   H2        1.0  0.08511613500518672  0.8101142801625444  0.5133601190152889  1.0000
  H   H3        1.0  0.5988761275928312  0.31022960238301067  0.4866509443834629  1.0000
  H   H4        1.0  0.9148830403146776  0.18988825123606287  0.4866414100537139  1.0000
  H   H5        1.0  0.6363940335193236  0.6184186348098777  0.49323263404664175  1.0000
  H   H6        1.0  0.8701068553453695  0.8819198925965992  0.49313663975234306  1.0000
  H   H7        1.0  0.36360751439756456  0.3815775082348978  0.5067677329462582  1.0000
  H   H8        1.0  0.12989324724776452  0.11808390753980548  0.5068637273695344  1.0000
  H   H9        1.0  0.7896760520276019  0.42072623490225425  0.7319707187880907  1.0000
  H   H10       1.0  0.4783937429754416  0.07933491500666182  0.7320887426268713  1.0000
  H   H11       1.0  0.2103231430093898  0.5792737649875194  0.2680284295031541  1.0000
  H   H12       1.0  0.5216060460003927  0.9206638154066271  0.26790863429118866  1.0000
  H   H13       1.0  0.9042924103898285  0.5470300177620898  0.7478806714194589  1.0000
  H   H14       1.0  0.3479907343755071  0.9529663395175874  0.7478158567232639  1.0000
  H   H15       1.0  0.09570689681142142  0.4529712650150728  0.2521167055415887  1.0000
  H   H16       1.0  0.6520118529789087  0.047032355152381904  0.25218157699232774  1.0000
  C   C1        1.0  0.49334034246376046  0.5828938831435693  0.5427308537025012  1.0000
  C   C2        1.0  0.9637312515877879  0.9171764694112738  0.542685821900953  1.0000
  C   C3        1.0  0.5066587404089731  0.4171048338588079  0.4572700659189408  1.0000
  C   C4        1.0  0.03626792373207612  0.08282606198733329  0.45731570716804276  1.0000
  O   O1        1.0  0.3644584584493769  0.7384181114963864  0.8598540610741239  1.0000
  O   O2        1.0  0.7753627162396981  0.7617660216190811  0.8598484476336877  1.0000
  O   O3        1.0  0.6355435349661961  0.2615818526500675  0.14014514401465294  1.0000
  O   O4        1.0  0.2246342546404279  0.2382352760463604  0.14015125326459094  1.0000
  O   O5        1.0  0.5384311847213181  0.4290299756187181  0.8169928415827596  1.0000
  O   O6        1.0  0.6446458493740223  0.0713828100285809  0.816856004772049  1.0000
  O   O7        1.0  0.46156882542467764  0.5709700101214638  0.18300691609155706  1.0000
  O   O8        1.0  0.35535345466887946  0.9286171623006965  0.18314729560565718  1.0000
  O   O9        1.0  0.19311791327384503  0.5106677820099108  0.8475369634842808  1.0000
  O   O10       1.0  0.9593563482103489  0.9893095819275644  0.847480836081722  1.0000
  O   O11       1.0  0.8068817438206038  0.4893321970248152  0.15246456554173443  1.0000
  O   O12       1.0  0.040642381610837205  0.010689128369364202  0.15252185489141107  1.0000
  O   O13       1.0  0.9184650369188317  0.4263639864322925  0.7207892203895979  1.0000
  O   O14       1.0  0.3608432910052171  0.0736546230119188  0.7208173428341383  1.0000
  O   O15       1.0  0.0815347323398824  0.5736372754898227  0.2792105373062128  1.0000
  O   O16       1.0  0.6391573130796289  0.9263440932517782  0.2791806434669936  1.0000
