data_image0
_chemical_formula_structural       Al4H28C32N8O20
_chemical_formula_sum              "Al4 H28 C32 N8 O20"
_cell_length_a       6.675402044784044
_cell_length_b       10.870683446245472
_cell_length_c       18.047930321377137
_cell_angle_alpha    89.7815738681343
_cell_angle_beta     92.52120905274184
_cell_angle_gamma    90.53376204181183

_space_group_name_H-M_alt    "P 1"
_space_group_IT_number       1

loop_
  _space_group_symop_operation_xyz
  'x, y, z'

loop_
  _atom_site_type_symbol
  _atom_site_label
  _atom_site_symmetry_multiplicity
  _atom_site_fract_x
  _atom_site_fract_y
  _atom_site_fract_z
  _atom_site_occupancy
  Al  Al1       1.0  0.9962689479389154  0.9991164660528681  0.5023541457580194  1.0000
  Al  Al2       1.0  0.4957251876116118  0.0003311228960000996  0.49959549301161843  1.0000
  Al  Al3       1.0  0.004351209860523399  0.49909238519764176  0.00033600210650060007  1.0000
  Al  Al4       1.0  0.5036637879496624  0.5004950350257644  0.9977329154126764  1.0000
  H   H1        1.0  0.23617515156794158  0.845466920190333  0.47081008351386794  1.0000
  H   H2        1.0  0.7487782823142763  0.16439841572019986  0.49364265523487927  1.0000
  H   H3        1.0  0.2635977662764759  0.6537800585444488  0.0298447870294041  1.0000
  H   H4        1.0  0.7507815379297184  0.3347715849647059  0.003523595004359898  1.0000
  H   H5        1.0  0.44966757700576915  0.6445176511229959  0.7946517790190484  1.0000
  H   H6        1.0  0.049815901918535084  0.8590685500536848  0.7069629663818944  1.0000
  H   H7        1.0  0.9595577727222346  0.25082866687186817  0.15987336325884632  1.0000
  H   H8        1.0  0.5400243343158238  0.24695834795466698  0.3392272751965564  1.0000
  H   H9        1.0  0.5413448303897753  0.2562725955703442  0.8388649479179762  1.0000
  H   H10       1.0  0.9590383910887538  0.24515416691555458  0.6602930018460215  1.0000
  H   H11       1.0  0.4631192053024548  0.7458434146386493  0.1593917238622566  1.0000
  H   H12       1.0  0.037448722100528194  0.7525610797279327  0.3411520159316126  1.0000
  H   H13       1.0  0.37893332659162127  0.790704323534548  0.6148957642794812  1.0000
  H   H14       1.0  0.2713349086169714  0.7033701655633211  0.6834629874980322  1.0000
  H   H15       1.0  0.1202486269248411  0.7124474519693607  0.8865423635771847  1.0000
  H   H16       1.0  0.22778209276162187  0.8004256467614537  0.8183582045365156  1.0000
  H   H17       1.0  0.8710464581009347  0.0981393604600953  0.3345890880141624  1.0000
  H   H18       1.0  0.7756243961487  0.13084374789388417  0.245010184370507  1.0000
  H   H19       1.0  0.630622856329765  0.39806893443547153  0.1641019153113703  1.0000
  H   H20       1.0  0.7276140317589748  0.3618572549772878  0.25366432138093836  1.0000
  H   H21       1.0  0.6249927291323515  0.0974612899810268  0.6668282113919589  1.0000
  H   H22       1.0  0.7210312294905705  0.13298511393340817  0.7557391920224815  1.0000
  H   H23       1.0  0.8737484048644076  0.4036720988567311  0.8324140206516688  1.0000
  H   H24       1.0  0.7761197538562782  0.3641897783824533  0.7436731663544831  1.0000
  H   H25       1.0  0.37642097457569423  0.9093451771115822  0.3286623536110511  1.0000
  H   H26       1.0  0.2816286268676508  0.8681323302762252  0.2405526206815125  1.0000
  H   H27       1.0  0.123729143919185  0.5889496985922875  0.1718244205072992  1.0000
  H   H28       1.0  0.21878543666731082  0.6299971642134565  0.2598587700815287  1.0000
  C   C1        1.0  0.7291692002609337  0.865289051923284  0.39354971536743477  1.0000
  C   C2        1.0  0.7592521007145053  0.8645693342446635  0.6061699763232298  1.0000
  C   C3        1.0  0.2648139563350114  0.1324160441481084  0.6071129723866733  1.0000
  C   C4        1.0  0.23043065538174545  0.13630483542129923  0.3943809914012988  1.0000
  C   C5        1.0  0.7711149534106524  0.633088864262774  0.10699546287071368  1.0000
  C   C6        1.0  0.7408135338704652  0.6373051930554537  0.8949250573107435  1.0000
  C   C7        1.0  0.23534260122935538  0.36862225150112954  0.8921473608674404  1.0000
  C   C8        1.0  0.26931366245956667  0.3619840423869221  0.1049302571512811  1.0000
  C   C9        1.0  0.7476674202626583  0.8051655890308349  0.6796013164681297  1.0000
  C   C10       1.0  0.7518568964052789  0.6982463779329179  0.8219249840509306  1.0000
  C   C11       1.0  0.5693989621761375  0.7456924093930791  0.703322552394539  1.0000
  C   C12       1.0  0.9298732212847013  0.7581028104061857  0.7983250554223957  1.0000
  C   C13       1.0  0.5799506700032993  0.6934900641633632  0.7745633280126043  1.0000
  C   C14       1.0  0.9194114790499838  0.8102630960109348  0.7270900092992818  1.0000
  C   C15       1.0  0.23280476292276828  0.19526385277880107  0.3203415061312711  1.0000
  C   C16       1.0  0.26660628887630367  0.30284157226594727  0.1788093060448332  1.0000
  C   C17       1.0  0.0621758622753958  0.19438453262541344  0.2695041447419442  1.0000
  C   C18       1.0  0.4370720718854457  0.30401254543487966  0.22973937341827622  1.0000
  C   C19       1.0  0.08661203874326157  0.24863666530853112  0.1998453598547982  1.0000
  C   C20       1.0  0.41277620006597  0.24927248407881558  0.2993708240232849  1.0000
  C   C21       1.0  0.2649224236946779  0.19414423062609384  0.67987864597751  1.0000
  C   C22       1.0  0.23559202167437118  0.3075506639344567  0.8192554149027984  1.0000
  C   C23       1.0  0.4361795361457366  0.19557957923183975  0.7304156994273185  1.0000
  C   C24       1.0  0.06464504947253859  0.30672961401337057  0.7685512875114426  1.0000
  C   C25       1.0  0.4139304092050651  0.2525724715747444  0.799073945620087  1.0000
  C   C26       1.0  0.08664277988760458  0.2490327862227132  0.6999775141700296  1.0000
  C   C27       1.0  0.7328516475897331  0.8052826493507932  0.3201264333859299  1.0000
  C   C28       1.0  0.7677915563028533  0.6932953093913523  0.1803626696258078  1.0000
  C   C29       1.0  0.5644495850192897  0.8054030301839173  0.2683259661239248  1.0000
  C   C30       1.0  0.93626279009613  0.6932055966424427  0.23213927201279463  1.0000
  C   C31       1.0  0.5892105216979785  0.7486245931089784  0.19974941283327044  1.0000
  C   C32       1.0  0.9115139499313899  0.7499941877730832  0.3007164669075948  1.0000
  N   N1        1.0  0.39670492589111456  0.7339667627465899  0.6594833254837766  1.0000
  N   N2        1.0  0.10228069176042001  0.7701172989012403  0.842386487208401  1.0000
  N   N3        1.0  0.8784991106923955  0.1467360729913381  0.28674488740131204  1.0000
  N   N4        1.0  0.6188484512406874  0.35389131299247367  0.21322602007389693  1.0000
  N   N5        1.0  0.6184724896769536  0.1476531582205993  0.7138174556428112  1.0000
  N   N6        1.0  0.8844460873056051  0.3572068406969818  0.7842970058731993  1.0000
  N   N7        1.0  0.3820525773206996  0.8549856486889948  0.2833846810296166  1.0000
  N   N8        1.0  0.11866808979121403  0.6436509192384461  0.21698494621491443  1.0000
  O   O1        1.0  0.8935179004528847  0.8765783056929803  0.43217645844596564  1.0000
  O   O2        1.0  0.5966961145537865  0.8762386262232766  0.5661234249017822  1.0000
  O   O3        1.0  0.4320284527629497  0.09201343393662849  0.5848589251402814  1.0000
  O   O4        1.0  0.06129778471610339  0.0976242337389976  0.4169863631314428  1.0000
  O   O5        1.0  0.0991460605292929  0.12094689395343039  0.5694242556525992  1.0000
  O   O6        1.0  0.3968124638832577  0.12481109006473899  0.4317047107848921  1.0000
  O   O7        1.0  0.5597113268858463  0.9047461491479394  0.4144893873677731  1.0000
  O   O8        1.0  0.9302656060969382  0.9025869874965624  0.5860828138320002  1.0000
  O   O9        1.0  0.24504446300662147  0.9207247258326487  0.4994747275005267  1.0000
  O   O10       1.0  0.7471555410741002  0.07606313298405348  0.5002889772356695  1.0000
  O   O11       1.0  0.9403081145264239  0.5932759586670997  0.08603070537058952  1.0000
  O   O12       1.0  0.5699121250687043  0.5986230618952461  0.914716001958432  1.0000
  O   O13       1.0  0.4008983077668801  0.3796313044276971  0.9300129041371789  1.0000
  O   O14       1.0  0.10317245795094011  0.3734600366377094  0.0674028296578157  1.0000
  O   O15       1.0  0.0680051430496249  0.40896548626197665  0.914430968088361  1.0000
  O   O16       1.0  0.43860372955203525  0.40087961427673235  0.0825182721717468  1.0000
  O   O17       1.0  0.6066574311949965  0.62203914681821  0.0684242068263927  1.0000
  O   O18       1.0  0.9035530864306621  0.6247763684913678  0.9347387332315122  1.0000
  O   O19       1.0  0.25493879453851775  0.5787518976946089  0.0009682446378462993  1.0000
  O   O20       1.0  0.7527851435947495  0.4234878075329789  0.9992421578818523  1.0000
