data_image0
_chemical_formula_structural       Cd8H56C72N16O40
_chemical_formula_sum              "Cd8 H56 C72 N16 O40"
_cell_length_a       14.289392110115527
_cell_length_b       14.279415570054736
_cell_length_c       17.023481134230526
_cell_angle_alpha    105.02978887188897
_cell_angle_beta     109.92117989125634
_cell_angle_gamma    106.5258046311021

_space_group_name_H-M_alt    "P 1"
_space_group_IT_number       1

loop_
  _space_group_symop_operation_xyz
  'x, y, z'

loop_
  _atom_site_type_symbol
  _atom_site_label
  _atom_site_symmetry_multiplicity
  _atom_site_fract_x
  _atom_site_fract_y
  _atom_site_fract_z
  _atom_site_occupancy
  Cd  Cd1       1.0  0.8472935901741678  0.07738653181584007  0.22341531052308738  1.0000
  Cd  Cd2       1.0  0.6024230192164879  0.9049074123701856  0.2840205168493668  1.0000
  Cd  Cd3       1.0  0.3541777548637485  0.6238739829643123  0.276708772235537  1.0000
  Cd  Cd4       1.0  0.12075884646392859  0.3184428139165689  0.21585311468562912  1.0000
  Cd  Cd5       1.0  0.1527057339025929  0.9226153501920605  0.776577110302206  1.0000
  Cd  Cd6       1.0  0.39757459901493053  0.09509134435203481  0.715978103300074  1.0000
  Cd  Cd7       1.0  0.6458248636211152  0.3761355663754671  0.7232932346740312  1.0000
  Cd  Cd8       1.0  0.879249159334691  0.6815587362001452  0.7841439440306884  1.0000
  H   H1        1.0  0.9095975167171702  0.2549975604293807  0.37214835413227126  1.0000
  H   H2        1.0  0.8000232220176643  0.17321945969405322  0.36134709630814404  1.0000
  H   H3        1.0  0.665194079749952  0.7458547306312653  0.28624116435372565  1.0000
  H   H4        1.0  0.6225495927724154  0.7540620717999788  0.3611875180653216  1.0000
  H   H5        1.0  0.23815580732899383  0.07305801155209221  0.194439035019883  1.0000
  H   H6        1.0  0.9864574016873746  0.8206403033027527  0.19546294527762603  1.0000
  H   H7        1.0  0.026487450871499604  0.05126483280105281  0.14490819040617  1.0000
  H   H8        1.0  0.028027934511420875  0.9554795461317839  0.055084507062865364  1.0000
  H   H9        1.0  0.682319809319459  0.6809562101986443  0.9955739241711895  1.0000
  H   H10       1.0  0.2062270508315081  0.7433697514144341  0.9967747694542125  1.0000
  H   H11       1.0  0.5058094969412963  0.07834676735505754  0.07077010029526323  1.0000
  H   H12       1.0  0.5947749639282094  0.06852636841865943  0.16895029096715325  1.0000
  H   H13       1.0  0.37389846193643456  0.1594953067178011  0.08154932363675016  1.0000
  H   H14       1.0  0.6126433939465343  0.15991891405482053  0.3179911719418129  1.0000
  H   H15       1.0  0.38326449465881746  0.5376512591910441  0.12790565613452992  1.0000
  H   H16       1.0  0.31204998349471674  0.4388515519827223  0.13858412836847825  1.0000
  H   H17       1.0  0.959597639654504  0.3789446526659646  0.2138925030238284  1.0000
  H   H18       1.0  0.8928287298408576  0.26139308559818636  0.13889637403443097  1.0000
  H   H19       1.0  0.37815247583596096  0.04407750588341495  0.305314941008902  1.0000
  H   H20       1.0  0.12539491481884107  0.7911668029458739  0.30479420115079137  1.0000
  H   H21       1.0  0.40615711827869905  0.881708960524655  0.3547739739509835  1.0000
  H   H22       1.0  0.4004993442099404  0.9731126582133669  0.4447468505546154  1.0000
  H   H23       1.0  0.18564207748476483  0.6869518206901758  0.5045123613871211  1.0000
  H   H24       1.0  0.24645801394952127  0.20935583380664724  0.5032429956286535  1.0000
  H   H25       1.0  0.5072220231977552  0.43524738026331267  0.42926165447793346  1.0000
  H   H26       1.0  0.39929071217960643  0.42640319397493437  0.33126832559010916  1.0000
  H   H27       1.0  0.5779228008292635  0.29320032677840413  0.41832682546568384  1.0000
  H   H28       1.0  0.34101984354894194  0.2946537805350217  0.18188847179395398  1.0000
  H   H29       1.0  0.09040068019424295  0.7449990801460444  0.6278500449180413  1.0000
  H   H30       1.0  0.19997468893887332  0.8267771874316168  0.6386502307860198  1.0000
  H   H31       1.0  0.3348036150478747  0.2541424471686681  0.71375595002619  1.0000
  H   H32       1.0  0.37745111225962796  0.24593586890958352  0.6388125743480798  1.0000
  H   H33       1.0  0.7618443955894635  0.9269404663819716  0.8055597727231217  1.0000
  H   H34       1.0  0.013544274835233315  0.17935724250097  0.8045357393554723  1.0000
  H   H35       1.0  0.9735112413832496  0.9487333735961628  0.8550938583259508  1.0000
  H   H36       1.0  0.971971092517272  0.04452256226228006  0.9449163018180045  1.0000
  H   H37       1.0  0.31767860873994647  0.3190447076287199  0.004427858676599778  1.0000
  H   H38       1.0  0.7937712974317463  0.2566306422889184  0.003226154151690295  1.0000
  H   H39       1.0  0.4941916521677  0.9216528168858814  0.9292312236184584  1.0000
  H   H40       1.0  0.40522706834542516  0.9314716949588302  0.8310503248639803  1.0000
  H   H41       1.0  0.6261037797256677  0.8405043290317309  0.9184538699200573  1.0000
  H   H42       1.0  0.3873582455165304  0.8400774280817059  0.6820106305704882  1.0000
  H   H43       1.0  0.6167346274660516  0.46234987211433065  0.8720920880372133  1.0000
  H   H44       1.0  0.687952592941329  0.561151985763658  0.861417825337071  1.0000
  H   H45       1.0  0.0404033883919579  0.6210544851605491  0.7861055434665118  1.0000
  H   H46       1.0  0.10717532696959589  0.7386074169715541  0.8611030915497935  1.0000
  H   H47       1.0  0.6218484941738679  0.9559238126989839  0.6946830523113617  1.0000
  H   H48       1.0  0.8746085447818359  0.20883521393706425  0.6952070444721627  1.0000
  H   H49       1.0  0.5938445632331836  0.11829339320527062  0.6452278817653436  1.0000
  H   H50       1.0  0.5995024256278682  0.026890821474168554  0.5552543054639968  1.0000
  H   H51       1.0  0.814357616549856  0.3130492975147022  0.4954875266969055  1.0000
  H   H52       1.0  0.7535400248398076  0.7906391566871492  0.49675524387748027  1.0000
  H   H53       1.0  0.4927767456233951  0.5647492472116156  0.5707388884846621  1.0000
  H   H54       1.0  0.6007102090111545  0.5735942160603643  0.6687319795375473  1.0000
  H   H55       1.0  0.4220760587651283  0.7067934403974548  0.5816777477880848  1.0000
  H   H56       1.0  0.658983134915232  0.7053453891493362  0.8181146602078896  1.0000
  C   C1        1.0  0.2127689614387762  0.01097667992558368  0.21850327929455907  1.0000
  C   C2        1.0  0.07207980436065485  0.8702564226419368  0.21864905246700045  1.0000
  C   C3        1.0  0.10141122829914195  0.9488076942620722  0.18629851285071192  1.0000
  C   C4        1.0  0.01802249498027193  0.9691860474035748  0.11752046421000256  1.0000
  C   C5        1.0  0.8413442045301524  0.7999318924293064  0.022444957461750865  1.0000
  C   C6        1.0  0.7514987447976013  0.7570148674065467  0.0375351555736643  1.0000
  C   C7        1.0  0.7668356928458807  0.8359847838803844  0.11551991020156288  1.0000
  C   C8        1.0  0.35518542755153243  0.7437290815496027  0.17132375333392247  1.0000
  C   C9        1.0  0.6974482376361307  0.8390669561900167  0.16354692753620972  1.0000
  C   C10       1.0  0.2919649998759367  0.9298071502829756  0.9529117108251483  1.0000
  C   C11       1.0  0.334212786612241  0.9002253532037514  0.03126026687180425  1.0000
  C   C12       1.0  0.2854396586228277  0.8083284900894866  0.04229700014428065  1.0000
  C   C13       1.0  0.361402719934226  0.8171423366479047  0.12467779198467345  1.0000
  C   C14       1.0  0.8603746831381615  0.757489343763922  0.9429091592420918  1.0000
  C   C15       1.0  0.5140132433053709  0.06691063963067025  0.13348927579528444  1.0000
  C   C16       1.0  0.49387244439446926  0.14940657525648504  0.19350776852315485  1.0000
  C   C17       1.0  0.417644520240394  0.18812965683501662  0.15536917775585124  1.0000
  C   C18       1.0  0.5514710534311433  0.18806717448158145  0.28824458150491944  1.0000
  C   C19       1.0  0.29213358348961543  0.9945773503849155  0.28139559245436624  1.0000
  C   C20       1.0  0.1516469326370427  0.8536401845383138  0.2815270171526976  1.0000
  C   C21       1.0  0.2624195829964576  0.9153910958829741  0.3137012338053821  1.0000
  C   C22       1.0  0.35166851772798674  0.900693739533608  0.38232556374227034  1.0000
  C   C23       1.0  0.27768451847607867  0.8190994304790636  0.47753682723883617  1.0000
  C   C24       1.0  0.21967480750053167  0.7141392046505641  0.46249747694268706  1.0000
  C   C25       1.0  0.22064033345006354  0.6514326923186643  0.3845303877160191  1.0000
  C   C26       1.0  0.07241688154753936  0.18387865813402024  0.3286893700822446  1.0000
  C   C27       1.0  0.175690593089584  0.5339658568585293  0.3365448064061667  1.0000
  C   C28       1.0  0.47660103265582177  0.3388510499490209  0.5470094274895274  1.0000
  C   C29       1.0  0.368740102342379  0.3029127189393962  0.4687194239318728  1.0000
  C   C30       1.0  0.2658819424770016  0.243088507336104  0.4576999546124155  1.0000
  C   C31       1.0  0.19237632952326322  0.23681294886357307  0.375369815481406  1.0000
  C   C32       1.0  0.31493797217230934  0.9176770051177314  0.5571153615176314  1.0000
  C   C33       1.0  0.43307855805947065  0.3809002929160457  0.3665513779111151  1.0000
  C   C34       1.0  0.45544828364539564  0.30078205221535376  0.306387252254936  1.0000
  C   C35       1.0  0.5325399807385834  0.2629475082169462  0.34451037995128075  1.0000
  C   C36       1.0  0.39906514995848136  0.2633741671318504  0.21164408673799065  1.0000
  C   C37       1.0  0.7872303465555107  0.9890206139920324  0.7814954304592233  1.0000
  C   C38       1.0  0.9279220117542694  0.1297421714098163  0.7813513506498778  1.0000
  C   C39       1.0  0.8985906761417084  0.05119202574729089  0.8137011905684516  1.0000
  C   C40       1.0  0.981977345416901  0.030814016003027755  0.8824787773463925  1.0000
  C   C41       1.0  0.15865317901278098  0.20006679313357278  0.9775550089130364  1.0000
  C   C42       1.0  0.24849945710308663  0.24298658109507448  0.962466414559877  1.0000
  C   C43       1.0  0.23316453359161932  0.16401910381348023  0.8844805096850692  1.0000
  C   C44       1.0  0.6448116750257996  0.2562744184897311  0.8286783121679518  1.0000
  C   C45       1.0  0.3025524514081041  0.1609391768688296  0.8364531649111412  1.0000
  C   C46       1.0  0.7080361164964514  0.07019311350114782  0.047085635967476974  1.0000
  C   C47       1.0  0.6657859427020583  0.09977405686066033  0.9687386639811136  1.0000
  C   C48       1.0  0.7145583271191426  0.1916734890863908  0.9577043572750056  1.0000
  C   C49       1.0  0.6385943128469551  0.1828606392674105  0.8753234142753146  1.0000
  C   C50       1.0  0.1396233093740591  0.24251053236566375  0.057089833165782984  1.0000
  C   C51       1.0  0.4859888772941971  0.9330885497044363  0.8665106403381343  1.0000
  C   C52       1.0  0.5061308200245804  0.8505925878776283  0.8064964354348376  1.0000
  C   C53       1.0  0.5823578677842673  0.81186892411624  0.8446333692733105  1.0000
  C   C54       1.0  0.44852999559240186  0.8119285789218437  0.7117566360346997  1.0000
  C   C55       1.0  0.7078669937096437  0.005422246956513487  0.7186035875470651  1.0000
  C   C56       1.0  0.8483538724804517  0.14636158700875507  0.7184731816348061  1.0000
  C   C57       1.0  0.7375812221210367  0.08461067566410221  0.6862989649821217  1.0000
  C   C58       1.0  0.6483320527010221  0.0993079608541265  0.6176759812705797  1.0000
  C   C59       1.0  0.7223143689603048  0.18090162966696963  0.5224622631582533  1.0000
  C   C60       1.0  0.7803234894963396  0.2858612667623674  0.5375010284817209  1.0000
  C   C61       1.0  0.7793603438346468  0.34857073586027826  0.6154688986595148  1.0000
  C   C62       1.0  0.9275814920157329  0.8161202343566244  0.671307629572638  1.0000
  C   C63       1.0  0.8243108975636063  0.4660355263329593  0.6634529126448854  1.0000
  C   C64       1.0  0.5233970876891832  0.6611471695486911  0.4529904773303032  1.0000
  C   C65       1.0  0.6312580760392593  0.6970833198024311  0.5312805340580411  1.0000
  C   C66       1.0  0.7341165984259135  0.756905945933184  0.5422995695641147  1.0000
  C   C67       1.0  0.8076225158642956  0.7631820996890681  0.6246292217116647  1.0000
  C   C68       1.0  0.6850598739773518  0.08232392581012263  0.4428842774178747  1.0000
  C   C69       1.0  0.5669213916407188  0.6190975120250857  0.6334503349968443  1.0000
  C   C70       1.0  0.5445522262050133  0.699213034745384  0.6936157984934965  1.0000
  C   C71       1.0  0.4674575003478408  0.7370462140005641  0.6554912517032674  1.0000
  C   C72       1.0  0.6009370033776876  0.7366243426600719  0.7883598065165246  1.0000
  N   N1        1.0  0.8610220304699753  0.9214463000877159  0.1469869472140388  1.0000
  N   N2        1.0  0.9055870692120891  0.8995695282649193  0.09077002473520684  1.0000
  N   N3        1.0  0.4518451210305514  0.9089237627869408  0.16269740444705147  1.0000
  N   N4        1.0  0.43474031603930996  0.958534445776344  0.10583838525393222  1.0000
  N   N5        1.0  0.2746098803592217  0.7141318944748108  0.3530033969090026  1.0000
  N   N6        1.0  0.3089615655643243  0.8149667609437827  0.4091761446023908  1.0000
  N   N7        1.0  0.2460823537931915  0.2893558201893499  0.3373609736015126  1.0000
  N   N8        1.0  0.35246113681369445  0.3290593154301931  0.39418535417908623  1.0000
  N   N9        1.0  0.13897802608591556  0.07855323264462305  0.8530125070566044  1.0000
  N   N10       1.0  0.0944138637381898  0.10043058665027638  0.9092310864642599  1.0000
  N   N11       1.0  0.548152776385493  0.09107709043133402  0.8373046526699497  1.0000
  N   N12       1.0  0.5652588455924175  0.04146390293954746  0.8941609710274889  1.0000
  N   N13       1.0  0.7253891466694711  0.28587021391925305  0.6469974119718742  1.0000
  N   N14       1.0  0.6910389350685264  0.18503441531993306  0.5908245411685729  1.0000
  N   N15       1.0  0.7539182048762924  0.7106431753184879  0.6626397653395272  1.0000
  N   N16       1.0  0.6475397078106582  0.6709396735273926  0.6058164567180951  1.0000
  O   O1        1.0  0.6238088052069982  0.7558766786235154  0.15018600486538947  1.0000
  O   O2        1.0  0.7204941733805016  0.9329285656395427  0.22093966173678592  1.0000
  O   O3        1.0  0.4400484707577236  0.7711476872807949  0.24707710129913346  1.0000
  O   O4        1.0  0.27135269231584397  0.6594392886365839  0.13970992492026105  1.0000
  O   O5        1.0  0.19943647984566581  0.8586984952638163  0.8862736076187829  1.0000
  O   O6        1.0  0.3437152441339108  0.01600990915806467  0.9518835670850905  1.0000
  O   O7        1.0  0.9318459791292497  0.8170043280275365  0.9286772288517396  1.0000
  O   O8        1.0  0.7978206442639432  0.6609892046158309  0.886725056064975  1.0000
  O   O9        1.0  0.8336302519765512  0.21011047159790053  0.3285150312611549  1.0000
  O   O10       1.0  0.6746965207995714  0.7956808616019374  0.34292938171704174  1.0000
  O   O11       1.0  0.10578652430360336  0.4736598340236284  0.34980967961282516  1.0000
  O   O12       1.0  0.21224269393749046  0.49959232083572397  0.2792307899137398  1.0000
  O   O13       1.0  0.024131955433510766  0.19273019864508717  0.25276946887630913  1.0000
  O   O14       1.0  0.019773426544723825  0.1318243374932351  0.3604511972714946  1.0000
  O   O15       1.0  0.47219853501939457  0.3129647970837013  0.6136944795084673  1.0000
  O   O16       1.0  0.5637815381065535  0.39154931319974645  0.5479734153659734  1.0000
  O   O17       1.0  0.38863635380265293  0.00335910967483243  0.571296744189226  1.0000
  O   O18       1.0  0.27477269659041065  0.9112663082540209  0.613405043373298  1.0000
  O   O19       1.0  0.38180155535967236  0.5052099881018535  0.1714880292143448  1.0000
  O   O20       1.0  0.9526213532543223  0.33182503263008567  0.15711800597797784  1.0000
  O   O21       1.0  0.3761873814690945  0.24412902182244517  0.8498127915979836  1.0000
  O   O22       1.0  0.279508700769938  0.06707767043648268  0.7790641699967225  1.0000
  O   O23       1.0  0.5599490758965614  0.22885745628991574  0.7529261957030613  1.0000
  O   O24       1.0  0.7286454330184425  0.3405637387873312  0.8602931509828053  1.0000
  O   O25       1.0  0.8005639182544186  0.1413028364190723  0.11372224178919053  1.0000
  O   O26       1.0  0.6562888707131691  0.9839884126557905  0.04811595166921026  1.0000
  O   O27       1.0  0.06814849426492489  0.1829974254632276  0.07131986586366422  1.0000
  O   O28       1.0  0.20218108352504766  0.3390082634783127  0.11327604674961828  1.0000
  O   O29       1.0  0.16636862370030772  0.7898878836682429  0.6714832530641246  1.0000
  O   O30       1.0  0.3253031614755243  0.2043175517230367  0.6570697002951746  1.0000
  O   O31       1.0  0.8942153801372471  0.526339885985742  0.6501900238063386  1.0000
  O   O32       1.0  0.7877581482395472  0.500410654378541  0.7207662909945612  1.0000
  O   O33       1.0  0.9758718969777433  0.8072735394788069  0.7472305900654773  1.0000
  O   O34       1.0  0.9802220763766414  0.8681748403358116  0.6395445428336759  1.0000
  O   O35       1.0  0.5278040994532773  0.6870365599067938  0.38630752736715834  1.0000
  O   O36       1.0  0.43621690525286994  0.608450103414917  0.45202444353079574  1.0000
  O   O37       1.0  0.6113598025841397  0.9966432840576259  0.4287028051419312  1.0000
  O   O38       1.0  0.7252263186787573  0.088733095260146  0.3865949594357546  1.0000
  O   O39       1.0  0.6181988291999119  0.4947955496736399  0.828512550216459  1.0000
  O   O40       1.0  0.04738313587355952  0.6681744085911278  0.8428818850347497  1.0000
