data_image0
_chemical_formula_structural       K2H42C42O28
_chemical_formula_sum              "K2 H42 C42 O28"
_cell_length_a       10.005807475189163
_cell_length_b       10.017068150268853
_cell_length_c       12.25
_cell_angle_alpha    86.87993482212819
_cell_angle_beta     86.87641997646689
_cell_angle_gamma    73.87070258873666

_space_group_name_H-M_alt    "P 1"
_space_group_IT_number       1

loop_
  _space_group_symop_operation_xyz
  'x, y, z'

loop_
  _atom_site_type_symbol
  _atom_site_label
  _atom_site_symmetry_multiplicity
  _atom_site_fract_x
  _atom_site_fract_y
  _atom_site_fract_z
  _atom_site_occupancy
  K   K1        1.0  0.47229397720174393  0.5196047702298969  0.7849553401075723  1.0000
  K   K2        1.0  0.5197096440536555  0.4725143398379501  0.2847147422731879  1.0000
  H   H1        1.0  0.7933197299875943  0.7295470055401054  0.9387266722984505  1.0000
  H   H2        1.0  0.7296352267016316  0.7932307906116378  0.4387560920193109  1.0000
  H   H3        1.0  0.6443770671372845  0.6999797567729402  0.8793475786619281  1.0000
  H   H4        1.0  0.6998740305529338  0.6445947291909633  0.37927402527550663  1.0000
  H   H5        1.0  0.7073722253960284  0.8424107314430529  0.8285736028546892  1.0000
  H   H6        1.0  0.8426778663103534  0.7072727618508666  0.3286640994463426  1.0000
  H   H7        1.0  0.7542525342111617  0.0310992790694726  0.7024077711407343  1.0000
  H   H8        1.0  0.030739118127620202  0.7540969330728231  0.20254501201475958  1.0000
  H   H9        1.0  0.6239959453758175  0.18987191029754774  0.7345361510968899  1.0000
  H   H10       1.0  0.18973551680924317  0.624021007935049  0.23458518776474338  1.0000
  H   H11       1.0  0.7734175041264066  0.1329870947346308  0.8156159610642105  1.0000
  H   H12       1.0  0.13284372915329357  0.773286314659785  0.31566083381979837  1.0000
  H   H13       1.0  0.8229412348094486  0.9884206037847464  0.341824503390427  1.0000
  H   H14       1.0  0.9881326228915127  0.8227273142867731  0.8417374538948008  1.0000
  H   H15       1.0  0.6987933936365421  0.1488638378199951  0.3024510538945862  1.0000
  H   H16       1.0  0.14881381471676752  0.6988023920056534  0.8023867573443295  1.0000
  H   H17       1.0  0.6821905968960634  0.0688321557412053  0.43532260252600696  1.0000
  H   H18       1.0  0.06871076321317558  0.6822329590483633  0.935280405666198  1.0000
  H   H19       1.0  0.1328640880720542  0.4732330315819411  0.07626427469428168  1.0000
  H   H20       1.0  0.4732987720442523  0.1327364366878854  0.5762866220168448  1.0000
  H   H21       1.0  0.9450665917570331  0.516970260551858  0.09442016649838787  1.0000
  H   H22       1.0  0.5170129671873767  0.9451597291111327  0.5944582020865568  1.0000
  H   H23       1.0  0.04476362437637957  0.3392547454840411  0.08064308640774699  1.0000
  H   H24       1.0  0.3391230650827524  0.0447960252005686  0.5806956683355294  1.0000
  H   H25       1.0  0.31817230816755426  0.9995577256293658  0.3284885826410999  1.0000
  H   H26       1.0  0.9991100252692816  0.3184220455823095  0.8284173934304276  1.0000
  H   H27       1.0  0.4359566881193259  0.07928074801343851  0.38764288461194235  1.0000
  H   H28       1.0  0.07918023588779018  0.43581529759968873  0.8876299775677692  1.0000
  H   H29       1.0  0.37882535191362615  0.1332907966003987  0.2530805800982918  1.0000
  H   H30       1.0  0.13317810445555273  0.3787609498308768  0.7530525437107156  1.0000
  H   H31       1.0  0.4524670778695139  0.7211432004873828  0.4490188771996698  1.0000
  H   H32       1.0  0.72117014146243  0.4521964770031914  0.9490468646922351  1.0000
  H   H33       1.0  0.5124401833323446  0.5661418807842082  0.5347152619179383  1.0000
  H   H34       1.0  0.5659352558526294  0.5119612599164753  0.034703324820526404  1.0000
  H   H35       1.0  0.3881859451252581  0.7178097604881302  0.5884886250905907  1.0000
  H   H36       1.0  0.717910560602803  0.3881081028022635  0.088550460444921  1.0000
  H   H37       1.0  0.16713326895488478  0.9546722539888748  0.5387115039684716  1.0000
  H   H38       1.0  0.9550961930321619  0.16711923216223573  0.0387087705443321  1.0000
  H   H39       1.0  0.06982892550851008  0.9548761086658999  0.6660919566936838  1.0000
  H   H40       1.0  0.9553683424300345  0.06994087556623191  0.16609527020566622  1.0000
  H   H41       1.0  0.9798994210587962  0.007486459006123901  0.54126476692133  1.0000
  H   H42       1.0  0.008025521128850252  0.980106245171946  0.04126503895249559  1.0000
  C   C1        1.0  0.8878037752203553  0.5408857424060969  0.6141810998642327  1.0000
  C   C2        1.0  0.540908584804349  0.8879493701099149  0.11421033787505049  1.0000
  C   C3        1.0  0.8739884832775289  0.40603379340667095  0.5939464436277432  1.0000
  C   C4        1.0  0.4058904223308915  0.8741413359663568  0.09398193999442837  1.0000
  C   C5        1.0  0.8934274523437935  0.35577113462230164  0.4844228115596606  1.0000
  C   C6        1.0  0.3556407896151369  0.8935709748512437  0.9844287556774061  1.0000
  C   C7        1.0  0.9847544569248966  0.3897503810421484  0.4075061811651111  1.0000
  C   C8        1.0  0.3896276400177143  0.984859387386166  0.9075477901911028  1.0000
  C   C9        1.0  0.11402190059571642  0.41766599089548606  0.44250745452477946  1.0000
  C   C10       1.0  0.4175454158925689  0.11398492662656422  0.9425895686394908  1.0000
  C   C11       1.0  0.11305865858878406  0.5223536881450386  0.5085138198194201  1.0000
  C   C12       1.0  0.5223380373724709  0.1130103764614176  0.008621155093877095  1.0000
  C   C13       1.0  0.9835158114144775  0.6049751566819026  0.5634140804343133  1.0000
  C   C14       1.0  0.6050510363780789  0.9836071372273238  0.06349153653354017  1.0000
  C   C15       1.0  0.7794413220684859  0.6250631629675709  0.6944722034037198  1.0000
  C   C16       1.0  0.6252251555597397  0.779624530995342  0.19441439044853576  1.0000
  C   C17       1.0  0.7380545634084541  0.7354338293765394  0.8632745713809056  1.0000
  C   C18       1.0  0.7355431840989013  0.7380745795038735  0.3632794256844959  1.0000
  C   C19       1.0  0.8074804373508258  0.3373254065765181  0.6790135368660444  1.0000
  C   C20       1.0  0.33718855128365294  0.8075287000249673  0.17900605130979838  1.0000
  C   C21       1.0  0.7355823572835973  0.1355435987964597  0.7328889741209607  1.0000
  C   C22       1.0  0.13533357577372132  0.7354847930457922  0.23294184766223938  1.0000
  C   C23       1.0  0.788987834887827  0.2850179605726382  0.4490813881007226  1.0000
  C   C24       1.0  0.28496745956655195  0.7891360157981993  0.9490207141046908  1.0000
  C   C25       1.0  0.75586357587715  0.08705634783696331  0.37050189850711485  1.0000
  C   C26       1.0  0.0869022561494077  0.7558078562549682  0.8704312366347365  1.0000
  C   C27       1.0  0.9613652880253694  0.3891700192575627  0.2908007545285755  1.0000
  C   C28       1.0  0.38912015664146066  0.9614805841714401  0.7908313116488513  1.0000
  C   C29       1.0  0.04417770853837769  0.43986950949269504  0.11218617796476589  1.0000
  C   C30       1.0  0.4398622196463293  0.04418342109462261  0.6122278808187005  1.0000
  C   C31       1.0  0.24691530098003509  0.3162763710991712  0.40791755230195986  1.0000
  C   C32       1.0  0.3161394520794403  0.2467546457106948  0.9079683475401976  1.0000
  C   C33       1.0  0.3484586210008587  0.0955901622500335  0.3338104805460134  1.0000
  C   C34       1.0  0.09535797963460617  0.3484614883462527  0.8337676255170833  1.0000
  C   C35       1.0  0.24635160732073294  0.5438530760466165  0.5473681096949008  1.0000
  C   C36       1.0  0.5438992262500051  0.24614724197915902  0.047478824887420494  1.0000
  C   C37       1.0  0.4241281217609156  0.6561541214379858  0.5158706120046189  1.0000
  C   C38       1.0  0.6561704353221103  0.4238336349502632  0.015920543741266592  1.0000
  C   C39       1.0  0.9630227230808686  0.7536611416969451  0.581266116191756  1.0000
  C   C40       1.0  0.7539237539396169  0.9631519845080376  0.08130255251738559  1.0000
  C   C41       1.0  0.0720525411823729  0.9379291285261715  0.578164396239309  1.0000
  C   C42       1.0  0.9383721459433544  0.0721416740181553  0.0781749974010992  1.0000
  O   O1        1.0  0.8348769677079061  0.6470513860640494  0.7875177073082893  1.0000
  O   O2        1.0  0.6472365087253847  0.8349003507146264  0.28750679463814777  1.0000
  O   O3        1.0  0.6555122378028598  0.6663437350644088  0.6754020912334013  1.0000
  O   O4        1.0  0.6665867456274411  0.655863940545693  0.17522460176235194  1.0000
  O   O5        1.0  0.7537123651408423  0.3878782462531731  0.766732148277505  1.0000
  O   O6        1.0  0.38784970227361987  0.7538389945018977  0.2667081909286749  1.0000
  O   O7        1.0  0.8115580502477823  0.2048864313050984  0.6558432847701707  1.0000
  O   O8        1.0  0.20464771250379246  0.8114050591130209  0.1558345962592398  1.0000
  O   O9        1.0  0.6627102630118243  0.3393421117741937  0.4543156748190568  1.0000
  O   O10       1.0  0.3394573387748779  0.6630092549902713  0.954282545187503  1.0000
  O   O11       1.0  0.8489900724494319  0.1574028526074756  0.41295759083738653  1.0000
  O   O12       1.0  0.15721328162503306  0.8489413616319156  0.9128563593739825  1.0000
  O   O13       1.0  0.8609702156203767  0.3642103022210392  0.25028117788944115  1.0000
  O   O14       1.0  0.3641866401075831  0.8611788827024967  0.7503031479058463  1.0000
  O   O15       1.0  0.06359378210063225  0.42641926110881206  0.22835657376813148  1.0000
  O   O16       1.0  0.42641536357447046  0.0636005790809122  0.7283964447217243  1.0000
  O   O17       1.0  0.22627481438336616  0.1959573884365895  0.3777145381038166  1.0000
  O   O18       1.0  0.1956813828984778  0.22627349111934342  0.8776468812503849  1.0000
  O   O19       1.0  0.3631179971681178  0.3357184908826483  0.4067562908574586  1.0000
  O   O20       1.0  0.3356868527719926  0.36279788053024487  0.906861742417746  1.0000
  O   O21       1.0  0.31094142815816633  0.6110689554200093  0.47463077801860004  1.0000
  O   O22       1.0  0.6112461861304012  0.31061524351229514  0.9747451626529652  1.0000
  O   O23       1.0  0.28445671535683187  0.5077416761171065  0.6408508037706894  1.0000
  O   O24       1.0  0.5077015303075427  0.2842618261328695  0.14094452984340217  1.0000
  O   O25       1.0  0.08077034428542619  0.7940836520155018  0.5608797839396543  1.0000
  O   O26       1.0  0.7943660897958794  0.0807867764436736  0.060935053484577374  1.0000
  O   O27       1.0  0.8512448312569632  0.8355004739219751  0.6099822730760989  1.0000
  O   O28       1.0  0.8358711311984877  0.8514905851695644  0.1099548382997639  1.0000
