data_image0
_chemical_formula_structural       AlH9C24N6O12
_chemical_formula_sum              "Al1 H9 C24 N6 O12"
_cell_length_a       4.03004283558539
_cell_length_b       15.854431466256203
_cell_length_c       15.417129047944869
_cell_angle_alpha    60.89087552429774
_cell_angle_beta     77.78042803793528
_cell_angle_gamma    77.08458064990175

_space_group_name_H-M_alt    "P 1"
_space_group_IT_number       1

loop_
  _space_group_symop_operation_xyz
  'x, y, z'

loop_
  _atom_site_type_symbol
  _atom_site_label
  _atom_site_symmetry_multiplicity
  _atom_site_fract_x
  _atom_site_fract_y
  _atom_site_fract_z
  _atom_site_occupancy
  Al  Al1       1.0  0.9538701638121412  0.4938792934409405  0.5077317278509315  1.0000
  H   H1        1.0  0.40229469050244404  0.7520565593941554  0.5048323166578541  1.0000
  H   H2        1.0  0.4770868654771616  0.8496128639069979  0.5851619816676534  1.0000
  H   H3        1.0  0.32835894802872895  0.602732201187905  0.8756523274961054  1.0000
  H   H4        1.0  0.4386836334221158  0.044648336091199795  0.5850459872808572  1.0000
  H   H5        1.0  0.7204510532313151  0.22507610102057637  0.7423868196395704  1.0000
  H   H6        1.0  0.7269885793963127  0.04502773234595739  0.8386123040470893  1.0000
  H   H7        1.0  0.5713384098656319  0.8677050628211023  0.047090192318037696  1.0000
  H   H8        1.0  0.47627701053831106  0.5134988705396067  0.23449563948824462  1.0000
  H   H9        1.0  0.5014551457266162  0.5996996587772332  0.04832012899908011  1.0000
  C   C1        1.0  0.49493016450605154  0.5823668917901158  0.35646493579878324  1.0000
  C   C2        1.0  0.33359936436399107  0.5619828904158267  0.5947292417848901  1.0000
  C   C3        1.0  0.5343055520603315  0.345841446563341  0.5620749023961196  1.0000
  C   C4        1.0  0.5618407069568362  0.9273329756060776  0.7765969814196865  1.0000
  C   C5        1.0  0.4689168357875815  0.7875052209685266  0.7842424876142999  1.0000
  C   C6        1.0  0.5379899302123546  0.790059670314463  0.9256695703624377  1.0000
  C   C7        1.0  0.3808395934793578  0.7204999254308221  0.5860853971851654  1.0000
  C   C8        1.0  0.42541391020439057  0.774648789469161  0.6308342514203036  1.0000
  C   C9        1.0  0.4119670246203312  0.7326398209743488  0.7352539790834244  1.0000
  C   C10       1.0  0.34495076860400076  0.6363237985872345  0.7945894079325556  1.0000
  C   C11       1.0  0.298281135678458  0.5837915545116344  0.7490286010517836  1.0000
  C   C12       1.0  0.32041633492777055  0.6234979995121038  0.6449183552714857  1.0000
  C   C13       1.0  0.5047176579289996  0.08298931769699183  0.6199826375773584  1.0000
  C   C14       1.0  0.4999358858924764  0.1833201381010099  0.5674780830481724  1.0000
  C   C15       1.0  0.5756294555779389  0.23631299711432519  0.6099699888610035  1.0000
  C   C16       1.0  0.6624505924826422  0.18486670579142134  0.7080178893783471  1.0000
  C   C17       1.0  0.6659880279193189  0.08441430062591593  0.7618251781597041  1.0000
  C   C18       1.0  0.5843599048327164  0.03272761434612189  0.718383246875675  1.0000
  C   C19       1.0  0.556056698996038  0.7898844183914517  0.08699999544347756  1.0000
  C   C20       1.0  0.5374466509802642  0.7409912326618836  0.19069828439051406  1.0000
  C   C21       1.0  0.5082854917750196  0.6413346372860859  0.24540186015060064  1.0000
  C   C22       1.0  0.49776633437032547  0.5910621226176431  0.19239865877293738  1.0000
  C   C23       1.0  0.513403972527911  0.6389063750461403  0.08891527096579924  1.0000
  C   C24       1.0  0.5405545123300258  0.7389182256756468  0.0352965670099863  1.0000
  N   N1        1.0  0.505248950168571  0.8820876611352443  0.7275741252933802  1.0000
  N   N2        1.0  0.4783696786578985  0.7387999581801166  0.8836710830991167  1.0000
  N   N3        1.0  0.5874592329762361  0.8841943435427593  0.8751923925719542  1.0000
  N   N4        1.0  0.21522034804288373  0.4837183519279479  0.8137257492496773  1.0000
  N   N5        1.0  0.40156080699303937  0.2338749426427356  0.46503340995580106  1.0000
  N   N6        1.0  0.5237599081889854  0.8002749481541613  0.2418266663857055  1.0000
  O   O1        1.0  0.24666135848289633  0.38388258681205656  0.5898825089008639  1.0000
  O   O2        1.0  0.29008855612528345  0.5193196418970487  0.3959599118893848  1.0000
  O   O3        1.0  0.10728837619200256  0.5825648000361382  0.5390804047310882  1.0000
  O   O4        1.0  0.7851233892154282  0.38955404863391146  0.507234378168697  1.0000
  O   O5        1.0  0.5978147030691049  0.497532923401927  0.6066726964103069  1.0000
  O   O6        1.0  0.6944399900058542  0.5940373293255876  0.40209997345932885  1.0000
  O   O7        1.0  0.08899578911817944  0.4474965825758516  0.774814201356172  1.0000
  O   O8        1.0  0.2701804505303186  0.4434710691993544  0.9019816587327513  1.0000
  O   O9        1.0  0.4483124447938137  0.3201060090002912  0.4134020541510851  1.0000
  O   O10       1.0  0.27764272198384526  0.18708198563867737  0.43774753020446877  1.0000
  O   O11       1.0  0.3295617338533036  0.7804019919461778  0.32086945575870374  1.0000
  O   O12       1.0  0.7023660930957407  0.8670377759960315  0.20030770293609376  1.0000
