data_image0
_chemical_formula_structural       Rb4H28C28S4O28
_chemical_formula_sum              "Rb4 H28 C28 S4 O28"
_cell_length_a       7.247875049074167
_cell_length_b       11.935231926698956
_cell_length_c       12.04330948545861
_cell_angle_alpha    104.31350626002877
_cell_angle_beta     90.00003156432311
_cell_angle_gamma    90.00049351854622

_space_group_name_H-M_alt    "P 1"
_space_group_IT_number       1

loop_
  _space_group_symop_operation_xyz
  'x, y, z'

loop_
  _atom_site_type_symbol
  _atom_site_label
  _atom_site_symmetry_multiplicity
  _atom_site_fract_x
  _atom_site_fract_y
  _atom_site_fract_z
  _atom_site_occupancy
  Rb  Rb1       1.0  0.41729134500312876  0.09112885497136602  0.2509857817459249  1.0000
  Rb  Rb2       1.0  0.9172892043969085  0.9088688460540127  0.2490128311618065  1.0000
  Rb  Rb3       1.0  0.5827099933100326  0.9088697784960614  0.7490132648600891  1.0000
  Rb  Rb4       1.0  0.082707994778275  0.09113065205826132  0.7509864191670701  1.0000
  H   H1        1.0  0.6308655720425306  0.6675608706421345  0.16001635767068484  1.0000
  H   H2        1.0  0.1308629384033537  0.3324386677587725  0.3399825794099343  1.0000
  H   H3        1.0  0.3691343865941334  0.3324429676770819  0.8399855760308483  1.0000
  H   H4        1.0  0.8691370202008456  0.6675608219031446  0.6600158385521553  1.0000
  H   H5        1.0  0.16217601942119586  0.6028220757769774  0.16363062132232645  1.0000
  H   H6        1.0  0.6621749834208969  0.39718023382393847  0.3363689805829466  1.0000
  H   H7        1.0  0.8378239391883395  0.39717826162515024  0.8363663356278651  1.0000
  H   H8        1.0  0.3378277345998768  0.6028175180745025  0.6636281975595537  1.0000
  H   H9        1.0  0.3496620252005442  0.31886535660852644  0.08444564628180022  1.0000
  H   H10       1.0  0.8496650888093242  0.6811388873415114  0.4155553129416632  1.0000
  H   H11       1.0  0.6503365537031625  0.6811358961952791  0.9155565086085032  1.0000
  H   H12       1.0  0.1503390089235381  0.31885806756962864  0.5844483204287982  1.0000
  H   H13       1.0  0.1412645360867373  0.14753121977818756  0.037443599895482314  1.0000
  H   H14       1.0  0.6412686928522504  0.8524692929085304  0.4625605529487515  1.0000
  H   H15       1.0  0.8587340428063042  0.8524683375451829  0.9625614770186033  1.0000
  H   H16       1.0  0.3587354048810596  0.1475276704607751  0.5374439127908559  1.0000
  H   H17       1.0  0.66788396105251  0.37376351522510015  0.0868754680618906  1.0000
  H   H18       1.0  0.16788832033167717  0.626234494958652  0.41312229262625527  1.0000
  H   H19       1.0  0.3321118584221736  0.6262377460290623  0.913127519195193  1.0000
  H   H20       1.0  0.832115777420725  0.37376581708068096  0.5868721672200437  1.0000
  H   H21       1.0  0.9985341877321333  0.18881119495109996  0.39297185534638857  1.0000
  H   H22       1.0  0.49853260653558346  0.8111861097344998  0.10702752539764761  1.0000
  H   H23       1.0  0.0014671505810284  0.8111874385163277  0.6070271912596255  1.0000
  H   H24       1.0  0.5014618332043524  0.18881253217157482  0.8929723535716079  1.0000
  H   H25       1.0  0.9464056744275238  0.17889257801196828  0.26194647336898663  1.0000
  H   H26       1.0  0.4464029758889652  0.821100964524213  0.23805117078774177  1.0000
  H   H27       1.0  0.05359428415267329  0.8211034699400488  0.7380527944257907  1.0000
  H   H28       1.0  0.5535914638260662  0.17889421875563022  0.7619478932759095  1.0000
  C   C1        1.0  0.8570843254936663  0.5761098384470529  0.14742722831783084  1.0000
  C   C2        1.0  0.3570788610448474  0.42389270126167133  0.3525716714238314  1.0000
  C   C3        1.0  0.14291701284484046  0.42389226210477904  0.8525734655629407  1.0000
  C   C4        1.0  0.642919717843732  0.5761067714799992  0.6474250817987794  1.0000
  C   C5        1.0  0.9325193778481162  0.45823377819901623  0.11487667286969129  1.0000
  C   C6        1.0  0.4325156149157863  0.5417674761010575  0.38512361340153933  1.0000
  C   C7        1.0  0.06748334020556969  0.5417683308148895  0.8851248533814128  1.0000
  C   C8        1.0  0.5674815842513822  0.45823112352197626  0.6148721037243448  1.0000
  C   C9        1.0  0.1266816982085572  0.44244305869457173  0.11473988720329228  1.0000
  C   C10       1.0  0.6266760829749528  0.5575608131314738  0.3852633908151546  1.0000
  C   C11       1.0  0.8733223995589725  0.5575590334068963  0.8852599743106921  1.0000
  C   C12       1.0  0.37331973647971484  0.4424378287785018  0.6147364881552875  1.0000
  C   C13       1.0  0.20066670912090248  0.3298747557037913  0.08459248309461738  1.0000
  C   C14       1.0  0.700670996189892  0.6701260593833922  0.4154084420466759  1.0000
  C   C15       1.0  0.7993291103404444  0.6701247593209132  0.9154084319713648  1.0000
  C   C16       1.0  0.2993331015425227  0.3298708870695819  0.5845943589546394  1.0000
  C   C17       1.0  0.0847396334412593  0.23509600056088698  0.05802039517198662  1.0000
  C   C18       1.0  0.584745289000317  0.7649049976328186  0.44197803797197827  1.0000
  C   C19       1.0  0.9152548063115731  0.76490437911648  0.9419807236192171  1.0000
  C   C20       1.0  0.41525880872985965  0.23509190652930562  0.5580206011835998  1.0000
  C   C21       1.0  0.891941852402141  0.25102692092323753  0.059136013152823394  1.0000
  C   C22       1.0  0.39194797767876105  0.7489749937558443  0.4408669044393818  1.0000
  C   C23       1.0  0.10805258737737229  0.7489769512130381  0.940869250020576  1.0000
  C   C24       1.0  0.6080588795000139  0.25102451284193  0.5591331782669116  1.0000
  C   C25       1.0  0.816550893841267  0.36120706891889415  0.08626198675798243  1.0000
  C   C26       1.0  0.31654853319025017  0.638797004513947  0.4137405804699412  1.0000
  C   C27       1.0  0.1834490648016214  0.6387976340568785  0.913740150669959  1.0000
  C   C28       1.0  0.6834500457178905  0.3612050791137379  0.586258448670165  1.0000
  S   S1        1.0  0.7501104251683586  0.12682578544245626  0.035076254125797804  1.0000
  S   S2        1.0  0.2501155743071664  0.8731735548246821  0.4649218511677376  1.0000
  S   S3        1.0  0.2498881537469089  0.8731771797581234  0.9649246434790016  1.0000
  S   S4        1.0  0.7498899031497501  0.1268250701962899  0.535076363072676  1.0000
  O   O1        1.0  0.5579660970768074  0.1648761065196993  0.024255253450832  1.0000
  O   O2        1.0  0.05797071679232601  0.8351239008433778  0.475745427202284  1.0000
  O   O3        1.0  0.4420324818389004  0.8351268671390528  0.9757464765231205  1.0000
  O   O4        1.0  0.9420333809578665  0.164875622662926  0.5242563202399424  1.0000
  O   O5        1.0  0.8167670485996014  0.04632676369640621  0.9299510009589014  1.0000
  O   O6        1.0  0.3167757315360689  0.953675814081706  0.5700451259672124  1.0000
  O   O7        1.0  0.18322601147405487  0.9536787700837269  0.07004801071293809  1.0000
  O   O8        1.0  0.6832297459270791  0.046323675595822095  0.42995329199960247  1.0000
  O   O9        1.0  0.7738412563724922  0.0830140830382717  0.1391337264853476  1.0000
  O   O10       1.0  0.2738400313755704  0.9169818990749977  0.3608602750784869  1.0000
  O   O11       1.0  0.2261600819206606  0.9169819310849691  0.8608622118340251  1.0000
  O   O12       1.0  0.7261599272277407  0.0830175736705741  0.6391364781453034  1.0000
  O   O13       1.0  0.9597895398602888  0.6626418001430636  0.18142703842845984  1.0000
  O   O14       1.0  0.4597883357837631  0.3373579045823335  0.3185753842214751  1.0000
  O   O15       1.0  0.0402117984710983  0.3373594188358738  0.8185717869876116  1.0000
  O   O16       1.0  0.5402143822490117  0.6626415681710469  0.6814213690046812  1.0000
  O   O17       1.0  0.6762575850752768  0.5840830511717529  0.13859644291243714  1.0000
  O   O18       1.0  0.176256154913716  0.4159167695384482  0.3614050690466399  1.0000
  O   O19       1.0  0.3237423735560654  0.4159199394072458  0.8614069518009941  1.0000
  O   O20       1.0  0.8237451833936689  0.5840810077305961  0.638594606202119  1.0000
  O   O21       1.0  0.2436587000938815  0.5319996633351423  0.1419856090388691  1.0000
  O   O22       1.0  0.7436545492104684  0.46800395521174937  0.358012671455839  1.0000
  O   O23       1.0  0.7563440179575736  0.4680024033879135  0.8580117553664904  1.0000
  O   O24       1.0  0.25634402967322256  0.5319946782478696  0.6419863751478161  1.0000
  O   O25       1.0  0.045305889436349396  0.20146201010059883  0.3189723689417363  1.0000
  O   O26       1.0  0.5453035010225236  0.7985344500397886  0.1810258103707909  1.0000
  O   O27       1.0  0.9546940691620731  0.7985366233629277  0.6810266776631052  1.0000
  O   O28       1.0  0.45469231842591995  0.2014633272136308  0.818973864873243  1.0000
