data_image0
_chemical_formula_structural       Zn16H8C96S16Br16O52F8
_chemical_formula_sum              "Zn16 H8 C96 S16 Br16 O52 F8"
_cell_length_a       19.67457428291761
_cell_length_b       19.790022315154378
_cell_length_c       33.37031215340633
_cell_angle_alpha    78.78263575319365
_cell_angle_beta     79.12044914513957
_cell_angle_gamma    63.90584295587111

_space_group_name_H-M_alt    "P 1"
_space_group_IT_number       1

loop_
  _space_group_symop_operation_xyz
  'x, y, z'

loop_
  _atom_site_type_symbol
  _atom_site_label
  _atom_site_symmetry_multiplicity
  _atom_site_fract_x
  _atom_site_fract_y
  _atom_site_fract_z
  _atom_site_occupancy
  Zn  Zn1       1.0  0.055594533729283996  0.4008672629114327  0.47802262420149333  1.0000
  Zn  Zn2       1.0  0.9855131195796931  0.4838661853326939  0.5601252179551822  1.0000
  Zn  Zn3       1.0  0.058399063829654096  0.561666508802162  0.48226582033663595  1.0000
  Zn  Zn4       1.0  0.9000050818214761  0.554521106843637  0.4794636552633236  1.0000
  Zn  Zn5       1.0  0.6937842952815955  0.3491892891551273  0.2719635729676568  1.0000
  Zn  Zn6       1.0  0.6907969564819538  0.18851485587572375  0.2662448212192104  1.0000
  Zn  Zn7       1.0  0.7689655718004217  0.2660080863463533  0.18970209246055703  1.0000
  Zn  Zn8       1.0  0.8474883873478447  0.19590123901135564  0.27198063179451293  1.0000
  Zn  Zn9       1.0  0.2647076333005387  0.7658221488153245  0.690048701667763  1.0000
  Zn  Zn10      1.0  0.3493273909998678  0.6972693922774624  0.7714329476130218  1.0000
  Zn  Zn11      1.0  0.19223431719873932  0.8494786825882552  0.7712916850190012  1.0000
  Zn  Zn12      1.0  0.1914762417567886  0.6881160736284713  0.7677859868860539  1.0000
  Zn  Zn13      1.0  0.5585682883246434  0.06198233934884454  0.983821002907014  1.0000
  Zn  Zn14      1.0  0.4027509879034241  0.052324390411321385  0.9771313717246528  1.0000
  Zn  Zn15      1.0  0.5575727417255933  0.9002996690650843  0.9790394282636972  1.0000
  Zn  Zn16      1.0  0.4813086826578327  0.983953194264423  0.06029993932990863  1.0000
  H   H1        1.0  0.7484972959968132  0.4515728215801785  0.34973163871296725  1.0000
  H   H2        1.0  0.0008869576284666998  0.29952106670324946  0.4000971714411463  1.0000
  H   H3        1.0  0.2009484979008747  0.7003030238018438  0.5996542835426197  1.0000
  H   H4        1.0  0.04926718239650539  0.5499086569720006  0.6501619897921318  1.0000
  H   H5        1.0  0.6499427957060033  0.15088290129311596  0.04920019848741223  1.0000
  H   H6        1.0  0.6005394118980405  0.09904903026185238  0.20070242630342253  1.0000
  H   H7        1.0  0.30016193514885  0.9997943647475083  0.8998458369794022  1.0000
  H   H8        1.0  0.450684627253743  0.749471018393713  0.8497110680826693  1.0000
  C   C1        1.0  0.061732310863241886  0.31695862441331707  0.5618847419704027  1.0000
  C   C2        1.0  0.07012144439360668  0.5706360120061476  0.568075530914193  1.0000
  C   C3        1.0  0.1832651038583251  0.43980725939274384  0.4384135471030747  1.0000
  C   C4        1.0  0.9362351162673972  0.6839090506110495  0.43857106461945977  1.0000
  C   C5        1.0  0.9293900522606863  0.4317593561042938  0.43113172049164933  1.0000
  C   C6        1.0  0.8174000748355894  0.5608076129201933  0.5628555988972865  1.0000
  C   C7        1.0  0.5662665946280043  0.30955035119289676  0.3111952873494418  1.0000
  C   C8        1.0  0.6829196019248444  0.180585650949382  0.17995810875474663  1.0000
  C   C9        1.0  0.6897773901963546  0.4330399721845452  0.1884241020762475  1.0000
  C   C10       1.0  0.9351870620606842  0.18813143655025774  0.18948974227710388  1.0000
  C   C11       1.0  0.819569897539722  0.31880776945557415  0.31923633320509753  1.0000
  C   C12       1.0  0.8118749817394074  0.06607779483056932  0.3112124896787662  1.0000
  C   C13       1.0  0.4326726769477958  0.689624489972189  0.6880288270251002  1.0000
  C   C14       1.0  0.317389669961166  0.8214270802868383  0.8187609809621395  1.0000
  C   C15       1.0  0.1882257872614872  0.932780436843579  0.6876231666976623  1.0000
  C   C16       1.0  0.06559910057181638  0.809623711392895  0.8112479518991053  1.0000
  C   C17       1.0  0.18015004299149948  0.6794107653462973  0.6817912924290468  1.0000
  C   C18       1.0  0.3146562555471206  0.566468639059167  0.8115989988138069  1.0000
  C   C19       1.0  0.436944872034978  0.18353599221378397  0.9384724870976555  1.0000
  C   C20       1.0  0.4334734945662646  0.9279949442010246  0.9307207385004475  1.0000
  C   C21       1.0  0.6836693044676493  0.9413685867696483  0.9391451579675021  1.0000
  C   C22       1.0  0.5609592037550256  0.8168235889332819  0.06240337084695117  1.0000
  C   C23       1.0  0.5674486101049041  0.06944059232340288  0.06994766242103623  1.0000
  C   C24       1.0  0.31512904376576506  0.06130700244843713  0.05996952385376632  1.0000
  C   C25       1.0  0.8999381636641033  0.4045192605451431  0.4022287371488106  1.0000
  C   C26       1.0  0.8493682851488628  0.3465501560248683  0.3477065168978016  1.0000
  C   C27       1.0  0.8287237617131495  0.4461068029483782  0.38722220616932657  1.0000
  C   C28       1.0  0.9207441795425807  0.3050690445466415  0.36256743943813063  1.0000
  C   C29       1.0  0.8040044375750739  0.4179574533040905  0.3607096398266378  1.0000
  C   C30       1.0  0.9453944976883335  0.3331859166064105  0.3891213682204936  1.0000
  C   C31       1.0  0.09908383075187291  0.599425899571365  0.5964109199204799  1.0000
  C   C32       1.0  0.1510719854245721  0.6508311938964724  0.6534149230344042  1.0000
  C   C33       1.0  0.1422496760243988  0.6422359743557282  0.5831599723784109  1.0000
  C   C34       1.0  0.10788790056948018  0.6080622443772654  0.6666597037506536  1.0000
  C   C35       1.0  0.1676071940525432  0.6673056504703041  0.6108704318432248  1.0000
  C   C36       1.0  0.0825577459472839  0.5829616155027892  0.6389487981991238  1.0000
  C   C37       1.0  0.30497972794942996  0.45399753584749164  0.4004080935748889  1.0000
  C   C38       1.0  0.444675143976866  0.29518313441597843  0.34942990349618  1.0000
  C   C39       1.0  0.2582677313723423  0.4158238654055778  0.4136827751493968  1.0000
  C   C40       1.0  0.49138614891717947  0.33331780441915254  0.3361039074016716  1.0000
  C   C41       1.0  0.3767689180649612  0.3390938268550983  0.3728549160659115  1.0000
  C   C42       1.0  0.3729070352827719  0.4100455242371622  0.37699195722585443  1.0000
  C   C43       1.0  0.7254581725374436  0.57611931834969  0.6307832522874153  1.0000
  C   C44       1.0  0.5245755918265332  0.6737037530899098  0.6201275848077543  1.0000
  C   C45       1.0  0.7431105747725439  0.5850015726299417  0.5882713119318765  1.0000
  C   C46       1.0  0.5070164164376507  0.665020352418189  0.6626688123724023  1.0000
  C   C47       1.0  0.6041929908186034  0.6413646991233934  0.6084553339210644  1.0000
  C   C48       1.0  0.6458413969107681  0.6084914563621099  0.6424245020770131  1.0000
  C   C49       1.0  0.07688601435216208  0.22463222978812783  0.6298475108646642  1.0000
  C   C50       1.0  0.173863940513634  0.0248321203334285  0.6196175969660302  1.0000
  C   C51       1.0  0.08582119316216108  0.24264317954505535  0.5873058772458606  1.0000
  C   C52       1.0  0.16465237095143692  0.007010555389975059  0.6621569138908256  1.0000
  C   C53       1.0  0.14182348718747306  0.10416312122158189  0.607791554465706  1.0000
  C   C54       1.0  0.10894251870157488  0.14530025136807007  0.6416317604170845  1.0000
  C   C55       1.0  0.8420493972855496  0.8016441087203177  0.39674896819465033  1.0000
  C   C56       1.0  0.906057641800068  0.9483778649917338  0.35296933832047034  1.0000
  C   C57       1.0  0.9102703396559947  0.7585104717367342  0.41357236882894455  1.0000
  C   C58       1.0  0.8377963400771549  0.9913910631278854  0.33614178110898507  1.0000
  C   C59       1.0  0.9077581798468869  0.8790892924971772  0.3750140353592002  1.0000
  C   C60       1.0  0.840588511632113  0.8707407169308182  0.37458709931904377  1.0000
  C   C61       1.0  0.6542036909330732  0.15275474162169891  0.15097342136785843  1.0000
  C   C62       1.0  0.5963429453231156  0.09709067787327537  0.09892728394309105  1.0000
  C   C63       1.0  0.6670479948218926  0.16635978823237718  0.10782764261168148  1.0000
  C   C64       1.0  0.5834667213872606  0.08351384870778832  0.14207400714115442  1.0000
  C   C65       1.0  0.638946665605104  0.13930807634817902  0.08246223828074764  1.0000
  C   C66       1.0  0.6115977024568551  0.11055280576819365  0.1674301090994703  1.0000
  C   C67       1.0  0.6736465722212798  0.5249842821966337  0.12039615463840662  1.0000
  C   C68       1.0  0.5762816412640461  0.7248787420109292  0.13045420116655046  1.0000
  C   C69       1.0  0.6649731951307912  0.5072593444271973  0.16296098224864156  1.0000
  C   C70       1.0  0.5852084352947884  0.7426577019247204  0.08790649736031506  1.0000
  C   C71       1.0  0.608567530400542  0.6455710003031851  0.1423079338145642  1.0000
  C   C72       1.0  0.6413510238302605  0.6043003388452988  0.10852996475101409  1.0000
  C   C73       1.0  0.082824215254341  0.12345084179727905  0.1776743929422722  1.0000
  C   C74       1.0  0.1674970375341687  0.12654328942644358  0.07190741333236161  1.0000
  C   C75       1.0  0.0103727254078549  0.16272765877977244  0.16509323432899242  1.0000
  C   C76       1.0  0.23996183305792576  0.08721767999578128  0.08441640961974171  1.0000
  C   C77       1.0  0.1101790060530519  0.13975577977902276  0.10586277533496263  1.0000
  C   C78       1.0  0.14014854020243916  0.11023484167812819  0.14370854650805853  1.0000
  C   C79       1.0  0.34554271903525796  0.8503047694040472  0.847494662413169  1.0000
  C   C80       1.0  0.4053083446515302  0.8989212424980763  0.902095780276831  1.0000
  C   C81       1.0  0.3044170095664924  0.9210092471564623  0.862349394836926  1.0000
  C   C82       1.0  0.4464032745496169  0.8282445115834559  0.887241620773054  1.0000
  C   C83       1.0  0.3334283886219466  0.9447206275239353  0.8889242914456048  1.0000
  C   C84       1.0  0.41739817479053437  0.8045130277413932  0.8606664693157385  1.0000
  C   C85       1.0  0.40863036695866833  0.44788613225028234  0.8532798905057748  1.0000
  C   C86       1.0  0.3430510466316576  0.3021089565805752  0.8968082003618322  1.0000
  C   C87       1.0  0.3405698646021307  0.49156831375520205  0.8363966049267191  1.0000
  C   C88       1.0  0.41114055444903386  0.2584587592674976  0.913702473698784  1.0000
  C   C89       1.0  0.3420432425141086  0.3711986536249795  0.8747962429100584  1.0000
  C   C90       1.0  0.40952348820850654  0.37890119927391913  0.8753412608941392  1.0000
  C   C91       1.0  0.943968476976124  0.7957132099081362  0.8497440129481648  1.0000
  C   C92       1.0  0.805179657093575  0.9552817866673631  0.9004041280047801  1.0000
  C   C93       1.0  0.9907874258390946  0.8336682042330207  0.8361106171357382  1.0000
  C   C94       1.0  0.758313263995582  0.917425207476427  0.9140800325796121  1.0000
  C   C95       1.0  0.8728013912906506  0.9109825998693561  0.8769427621277758  1.0000
  C   C96       1.0  0.8762761841031335  0.8399985006923174  0.8731768260881481  1.0000
  S   S1        1.0  0.29763634299588665  0.32611692854295876  0.3975104364796067  1.0000
  S   S2        1.0  0.4520613242055873  0.42297706955815056  0.35232021830324106  1.0000
  S   S3        1.0  0.6621441953264409  0.6328000148812835  0.5624887070429951  1.0000
  S   S4        1.0  0.5879885614632485  0.6172518976911617  0.6884148059371784  1.0000
  S   S5        1.0  0.13344522222245564  0.16230845789187498  0.5617568745486637  1.0000
  S   S6        1.0  0.11709218775764187  0.08731674747498629  0.6876943447988353  1.0000
  S   S7        1.0  0.9725917210584993  0.8026379979891374  0.4023111357267907  1.0000
  S   S8        1.0  0.775708400295322  0.9470693281772424  0.347263390990861  1.0000
  S   S9        1.0  0.6171374301781255  0.5876764626750203  0.1884168891578639  1.0000
  S   S10       1.0  0.6329810243574626  0.6622348236922377  0.062429324954074245  1.0000
  S   S11       1.0  0.012361444244668  0.18347259808793837  0.11172639277892671  1.0000
  S   S12       1.0  0.23797979844246694  0.06662238291266218  0.13780731345278247  1.0000
  S   S13       1.0  0.2776960130762873  0.4480658915925844  0.8474592786810434  1.0000
  S   S14       1.0  0.4738522690987068  0.30212559389219945  0.9027459038937027  1.0000
  S   S15       1.0  0.9518837855350525  0.9236042454827782  0.8519271608523695  1.0000
  S   S16       1.0  0.7970860193642436  0.8275235583998961  0.8981989863399775  1.0000
  Br  Br1       1.0  0.28605647013016977  0.5511588039507984  0.41050526208650956  1.0000
  Br  Br2       1.0  0.4638446993781641  0.19779952674873863  0.3395400573073104  1.0000
  Br  Br3       1.0  0.7940200618615592  0.5280251683020368  0.6703629279192  1.0000
  Br  Br4       1.0  0.4559579734121613  0.7216147892809985  0.5805556581063558  1.0000
  Br  Br5       1.0  0.0289732298828156  0.2922802188224977  0.6693580489723489  1.0000
  Br  Br6       1.0  0.2217631004634413  0.9569013333299097  0.5802546666672228  1.0000
  Br  Br7       1.0  0.7591151392073741  0.7766804593198485  0.4009940376691219  1.0000
  Br  Br8       1.0  0.9888741837713013  0.9735301097406438  0.3488288615008344  1.0000
  Br  Br9       1.0  0.7207229673040203  0.45708366809530787  0.08101437119752573  1.0000
  Br  Br10      1.0  0.5288350593734207  0.7928640758094047  0.16977963051927256  1.0000
  Br  Br11      1.0  0.10751598224591422  0.08972779520854594  0.2318020458422865  1.0000
  Br  Br12      1.0  0.1424556163125601  0.1608276570876868  0.01782574138469781  1.0000
  Br  Br13      1.0  0.4920976144082942  0.4720553028462431  0.8490873285397172  1.0000
  Br  Br14      1.0  0.2594372115776409  0.27811414469137924  0.9010339507566061  1.0000
  Br  Br15      1.0  0.9627123879617938  0.6984895454259643  0.8398623398402381  1.0000
  Br  Br16      1.0  0.7866691522345589  0.052628215315202495  0.909984883415298  1.0000
  O   O1        1.0  0.00045484966886280006  0.49919566649587915  0.4997280223950114  1.0000
  O   O2        1.0  0.07671164973159252  0.3156091056089068  0.5228743196242294  1.0000
  O   O3        1.0  0.033387576501354495  0.5310966416269877  0.5854054316460734  1.0000
  O   O4        1.0  0.154678753149291  0.5054236897602066  0.4499470312494794  1.0000
  O   O5        1.0  0.028540556828275495  0.37548769341405824  0.5806504675645527  1.0000
  O   O6        1.0  0.15357676264142836  0.39181358718242615  0.44602077034659265  1.0000
  O   O7        1.0  0.08402905974183028  0.587520747733734  0.5296199373156227  1.0000
  O   O8        1.0  0.003335580227862101  0.6580643534826648  0.4492574881741618  1.0000
  O   O9        1.0  0.8861178513202077  0.495853079525311  0.44323290437346696  1.0000
  O   O10       1.0  0.890717669115432  0.6517812486334474  0.4474201952336119  1.0000
  O   O11       1.0  0.9958612657052723  0.3877121315308114  0.4412225824186678  1.0000
  O   O12       1.0  0.8769131698578292  0.5271426484164933  0.5813493769793254  1.0000
  O   O13       1.0  0.8149609984957492  0.5763100078982077  0.5238812098642214  1.0000
  O   O14       1.0  0.7487488004297163  0.25102249905867063  0.2501028892268451  1.0000
  O   O15       1.0  0.5961389960210823  0.3573338200663655  0.30409029506037655  1.0000
  O   O16       1.0  0.6656743295410977  0.16353720192365265  0.21826442858234435  1.0000
  O   O17       1.0  0.7257794364952871  0.37454354282607477  0.16978927153400042  1.0000
  O   O18       1.0  0.5944685780517958  0.2444805568457299  0.2989852660828021  1.0000
  O   O19       1.0  0.6726328803488072  0.4344898476880983  0.22738811248288482  1.0000
  O   O20       1.0  0.7216447630513586  0.21846978589562127  0.16432298723920982  1.0000
  O   O21       1.0  0.877854741458954  0.22315439111518007  0.16890854943725492  1.0000
  O   O22       1.0  0.8621868764181997  0.2537672906874702  0.30814817124024074  1.0000
  O   O23       1.0  0.9333294046630342  0.17343236235929263  0.22845167850751844  1.0000
  O   O24       1.0  0.753600087969417  0.36307404070611665  0.3085653687796538  1.0000
  O   O25       1.0  0.7457450856124409  0.09145302828189014  0.2993083321440651  1.0000
  O   O26       1.0  0.8568129679143581  0.09878086355564608  0.3036917158638276  1.0000
  O   O27       1.0  0.24951594912288033  0.7504740005209031  0.7504394852925316  1.0000
  O   O28       1.0  0.3734124048529566  0.7224302649596693  0.6693260904984727  1.0000
  O   O29       1.0  0.3629396650551016  0.7566181107922247  0.8076475899304968  1.0000
  O   O30       1.0  0.17204219202419319  0.9344341517211705  0.7265656660667974  1.0000
  O   O31       1.0  0.434762787704976  0.6753789539066518  0.7270554300625776  1.0000
  O   O32       1.0  0.22208143896806828  0.8740454966247669  0.6690394326003785  1.0000
  O   O33       1.0  0.25142083259034104  0.86296922773478  0.807921302553183  1.0000
  O   O34       1.0  0.0944404212135197  0.8583070385033763  0.8029692700328256  1.0000
  O   O35       1.0  0.16601509944751314  0.6626219959417198  0.7202384915177833  1.0000
  O   O36       1.0  0.0949671664556249  0.7435056384641711  0.800252038328786  1.0000
  O   O37       1.0  0.21720869145327268  0.7186474066657026  0.6645057602934586  1.0000
  O   O38       1.0  0.3594398461328296  0.599445621121049  0.8035414429957087  1.0000
  O   O39       1.0  0.24804917831917087  0.5917060396973  0.800367008546509  1.0000
  O   O40       1.0  0.5007302727625457  0.9993588028072863  0.9998912147710829  1.0000
  O   O41       1.0  0.502535887458066  0.15882718887845465  0.9509131354436278  1.0000
  O   O42       1.0  0.3886996004106535  0.9938008648833117  0.9407604587251158  1.0000
  O   O43       1.0  0.6544958958086226  0.8929981512820859  0.946861597443551  1.0000
  O   O44       1.0  0.3927735546565144  0.1500048371364571  0.9452907826036281  1.0000
  O   O45       1.0  0.6549541842416247  0.006880838834398226  0.9508620577081784  1.0000
  O   O46       1.0  0.49851289976770363  0.8857610565840729  0.9425947857090905  1.0000
  O   O47       1.0  0.5790254001682911  0.815112807860885  0.0235068283634519  1.0000
  O   O48       1.0  0.5287873388054933  0.03150183579976582  0.08555971147965385  1.0000
  O   O49       1.0  0.5245667265622842  0.8755504828356067  0.08083425598258741  1.0000
  O   O50       1.0  0.5844493842109983  0.08673265334742546  0.031628058044546534  1.0000
  O   O51       1.0  0.3170123661953567  0.0743275116410587  0.020958081283417616  1.0000
  O   O52       1.0  0.37236586048972947  0.027396947868304284  0.0806530560228254  1.0000
  F   F1        1.0  0.7811236197907049  0.5156195078027467  0.39805563768941715  1.0000
  F   F2        1.0  0.9685313988190245  0.23569771990135263  0.3515997303908521  1.0000
  F   F3        1.0  0.1609718469826404  0.6606760169301111  0.5426720933168597  1.0000
  F   F4        1.0  0.08913554528758989  0.5896312633926399  0.7071423680578734  1.0000
  F   F5        1.0  0.7074661077030129  0.20665718068450173  0.08920429532420834  1.0000
  F   F6        1.0  0.5429283032383836  0.04334929271119133  0.16070860891691302  1.0000
  F   F7        1.0  0.23466347298882073  0.9690619007680399  0.8512263303427758  1.0000
  F   F8        1.0  0.5162252046307428  0.7803327471706256  0.8983128856179334  1.0000
