data_image0
_chemical_formula_structural       Cd2H28C28N8O16
_chemical_formula_sum              "Cd2 H28 C28 N8 O16"
_cell_length_a       8.018405654644585
_cell_length_b       8.018388088490077
_cell_length_c       13.449639243473753
_cell_angle_alpha    90.9416722937482
_cell_angle_beta     90.94183118841984
_cell_angle_gamma    112.51213115309713

_space_group_name_H-M_alt    "P 1"
_space_group_IT_number       1

loop_
  _space_group_symop_operation_xyz
  'x, y, z'

loop_
  _atom_site_type_symbol
  _atom_site_label
  _atom_site_symmetry_multiplicity
  _atom_site_fract_x
  _atom_site_fract_y
  _atom_site_fract_z
  _atom_site_occupancy
  Cd  Cd1       1.0  0.7059674678463495  0.29403168603227675  0.7499983535548367  1.0000
  Cd  Cd2       1.0  0.2940339052521209  0.7059697246809479  0.250000618096216  1.0000
  H   H1        1.0  0.5861729885618061  0.335174695554656  0.11090189987210408  1.0000
  H   H2        1.0  0.6648234683005968  0.41382909273697527  0.3890975986129277  1.0000
  H   H3        1.0  0.41382732983677767  0.6648240096259598  0.8890985193316396  1.0000
  H   H4        1.0  0.3351766558549443  0.5861723212730823  0.6109028469911522  1.0000
  H   H5        1.0  0.5658503993692535  0.17457507318437138  0.012730447414448098  1.0000
  H   H6        1.0  0.8254224404883814  0.43415130917065176  0.48726990371620355  1.0000
  H   H7        1.0  0.4341516905695427  0.8254249767105436  0.9872692609921643  1.0000
  H   H8        1.0  0.17457820626442808  0.565851452850545  0.5127313050437721  1.0000
  H   H9        1.0  0.47700786838417747  0.0979763440270176  0.1329010449447168  1.0000
  H   H10       1.0  0.9020215826041849  0.5229943962383459  0.36709930589758244  1.0000
  H   H11       1.0  0.522993502337961  0.9020250643086243  0.8670986701724529  1.0000
  H   H12       1.0  0.09797729736108347  0.4770070258237098  0.6329011267272904  1.0000
  H   H13       1.0  0.2043621394614021  0.1862243363946661  0.18955909825240266  1.0000
  H   H14       1.0  0.8137711544094658  0.7956390494680576  0.3104401638125509  1.0000
  H   H15       1.0  0.7956389029065035  0.8137730151003878  0.8104398273085422  1.0000
  H   H16       1.0  0.186227202958527  0.20436102458285893  0.6895595056564261  1.0000
  H   H17       1.0  0.7976919550720468  0.1207975989057815  0.1022837195878381  1.0000
  H   H18       1.0  0.8792031048104008  0.20231185760408013  0.3977154441647954  1.0000
  H   H19       1.0  0.20230764173354743  0.8792024623379718  0.8977174497925874  1.0000
  H   H20       1.0  0.12079577515486754  0.7976895644579755  0.6022849884600774  1.0000
  H   H21       1.0  0.8801816165088283  0.3534775699678576  0.0690660264985539  1.0000
  H   H22       1.0  0.6465246427569157  0.119823593113729  0.43093155239169784  1.0000
  H   H23       1.0  0.11982099840357555  0.646523830315786  0.93093370159783  1.0000
  H   H24       1.0  0.35347423958469193  0.8801778313259094  0.5690681367670578  1.0000
  H   H25       1.0  0.9517974986577259  0.2894593490588094  0.18436853455208538  1.0000
  H   H26       1.0  0.7105435591462169  0.04820950402384481  0.31562992988428806  1.0000
  H   H27       1.0  0.04820458890473125  0.7105406984585231  0.8156319173206441  1.0000
  H   H28       1.0  0.28945584816899844  0.9517932708045151  0.6843697789642391  1.0000
  C   C1        1.0  0.11523014867177751  0.25662160109372684  0.9582002844216289  1.0000
  C   C2        1.0  0.743375609970137  0.8847722889759383  0.5417974509662145  1.0000
  C   C3        1.0  0.8847701721031457  0.7433771064644715  0.0417993913159975  1.0000
  C   C4        1.0  0.2566215055839223  0.11522779550455914  0.4582014620574384  1.0000
  C   C5        1.0  0.2824563070897881  0.2444358269862974  0.9526108776058351  1.0000
  C   C6        1.0  0.7555592042440225  0.7175466570118588  0.5473884807650862  1.0000
  C   C7        1.0  0.717544207928178  0.755560171742452  0.0473887717314483  1.0000
  C   C8        1.0  0.2444366647434322  0.2824534331430542  0.45261116274546953  1.0000
  C   C9        1.0  0.5008806521221416  0.20321508726006235  0.0780058947352984  1.0000
  C   C10       1.0  0.7967828633123516  0.4991208614826092  0.42199437894439734  1.0000
  C   C11       1.0  0.4991196662764423  0.7967836179205464  0.9219945244684453  1.0000
  C   C12       1.0  0.20321726084318933  0.5008805525274412  0.5780060666596825  1.0000
  C   C13       1.0  0.19932631116844857  0.20669714603788245  0.1099865067222083  1.0000
  C   C14       1.0  0.7933005350273133  0.8006768942582241  0.3900127777134159  1.0000
  C   C15       1.0  0.8006734846328528  0.7933002111315944  0.8900131493256397  1.0000
  C   C16       1.0  0.20669834731429404  0.19932453018141413  0.6099869114453327  1.0000
  C   C17       1.0  0.9133751786530694  0.250127800097971  0.106439146445652  1.0000
  C   C18       1.0  0.7498725481663868  0.08662950235837032  0.3935592675137229  1.0000
  C   C19       1.0  0.0866263839357798  0.7498708970306395  0.8935612857372989  1.0000
  C   C20       1.0  0.2501263365515527  0.9133719244588506  0.6064396781789085  1.0000
  C   C21       1.0  0.002153321840658849  0.2807910706218521  0.8753758986454159  1.0000
  C   C22       1.0  0.7192111929784843  0.9978524700424957  0.6246210642128317  1.0000
  C   C23       1.0  0.997844700044098  0.7192049394557359  0.12462521166568762  1.0000
  C   C24       1.0  0.2807899858769431  0.0021516495001705  0.375377933838557  1.0000
  C   C25       1.0  0.41587948166066013  0.27000525075011694  0.8709261508191516  1.0000
  C   C26       1.0  0.7299931509765828  0.5841243327364298  0.6290733440320153  1.0000
  C   C27       1.0  0.5841226106544752  0.7299948015223805  0.1290728141213364  1.0000
  C   C28       1.0  0.2700055371219747  0.41587980053265033  0.37092637152707647  1.0000
  N   N1        1.0  0.06900365690641051  0.23436409033330827  0.0585510214363083  1.0000
  N   N2        1.0  0.765633542765336  0.9310012108155875  0.4414474014262524  1.0000
  N   N3        1.0  0.9309956162976151  0.7656319188250224  0.9414478714556509  1.0000
  N   N4        1.0  0.23436586454987923  0.06900156401277259  0.5585523074222678  1.0000
  N   N5        1.0  0.3289348393380251  0.21052460689625016  0.04710985007579179  1.0000
  N   N6        1.0  0.789470586382201  0.6710674323861526  0.452889505918499  1.0000
  N   N7        1.0  0.6710662006535557  0.7894727422212213  0.9528898189512702  1.0000
  N   N8        1.0  0.21052829595939931  0.3289339920534858  0.5471101832402567  1.0000
  O   O1        1.0  0.8404514681641473  0.26494807073177645  0.8954988486965547  1.0000
  O   O2        1.0  0.735052201683132  0.15955365889838188  0.6044980726419381  1.0000
  O   O3        1.0  0.15954569801643712  0.7350425297389266  0.1045021958346695  1.0000
  O   O4        1.0  0.26494740225145813  0.8404464094781119  0.39550086634012865  1.0000
  O   O5        1.0  0.07168660011685553  0.3140458345738325  0.7912072934099257  1.0000
  O   O6        1.0  0.6859604043969867  0.9283237459521275  0.7087927640680077  1.0000
  O   O7        1.0  0.9283117572511372  0.685954239477084  0.2087923760590513  1.0000
  O   O8        1.0  0.31403971738221514  0.0716776656803475  0.2912084250021891  1.0000
  O   O9        1.0  0.4024373204474969  0.13284125499987448  0.817212563556211  1.0000
  O   O10       1.0  0.8671587844538137  0.5975706111396164  0.6827878409560952  1.0000
  O   O11       1.0  0.597567782845445  0.8671601291797657  0.1827871904985869  1.0000
  O   O12       1.0  0.1328416680559528  0.4024348597110219  0.3172133942042166  1.0000
  O   O13       1.0  0.5418359411180518  0.4231776462128636  0.867614999749172  1.0000
  O   O14       1.0  0.5768237411619594  0.4581658659786568  0.6323852256355593  1.0000
  O   O15       1.0  0.4581622172542268  0.5768251319123294  0.1323861830523825  1.0000
  O   O16       1.0  0.42317638299357446  0.5418355480314005  0.3676152199685204  1.0000
