data_image0
_chemical_formula_structural       Cd2H32C38Br2N4O10
_chemical_formula_sum              "Cd2 H32 C38 Br2 N4 O10"
_cell_length_a       8.672359819898704
_cell_length_b       11.652059758300025
_cell_length_c       12.0094946078814
_cell_angle_alpha    66.2292399287093
_cell_angle_beta     76.75046472952184
_cell_angle_gamma    71.4651723871254

_space_group_name_H-M_alt    "P 1"
_space_group_IT_number       1

loop_
  _space_group_symop_operation_xyz
  'x, y, z'

loop_
  _atom_site_type_symbol
  _atom_site_label
  _atom_site_symmetry_multiplicity
  _atom_site_fract_x
  _atom_site_fract_y
  _atom_site_fract_z
  _atom_site_occupancy
  Cd  Cd1       1.0  0.6343327712621305  0.7121113924833152  0.35660438643832043  1.0000
  Cd  Cd2       1.0  0.36567641190110584  0.2879013507863064  0.6433857065927383  1.0000
  H   H1        1.0  0.9495964927132121  0.9282198925642717  0.34587056615361406  1.0000
  H   H2        1.0  0.050408436013803716  0.07178383641073792  0.6541060099161484  1.0000
  H   H3        1.0  0.2757133288081448  0.9271811493230543  0.5679974422999762  1.0000
  H   H4        1.0  0.7243008257122128  0.07281421963460841  0.431996343092841  1.0000
  H   H5        1.0  0.6961385951396224  0.5533193545923468  0.041144883791524374  1.0000
  H   H6        1.0  0.30384492270085417  0.4466888774442949  0.9588505235571816  1.0000
  H   H7        1.0  0.15765257754010514  0.5430625131352899  0.1213042141908645  1.0000
  H   H8        1.0  0.842333474053035  0.45695229211718674  0.8786950545641758  1.0000
  H   H9        1.0  0.5126487455580887  0.8232905160327064  0.5554932404117351  1.0000
  H   H10       1.0  0.48735964106528945  0.176714960553177  0.44450793645341946  1.0000
  H   H11       1.0  0.9832141360697899  0.6089735850489434  0.49079847012783523  1.0000
  H   H12       1.0  0.016794726175419248  0.3910172524931995  0.5092078775035773  1.0000
  H   H13       1.0  0.5882377259629478  0.8714821106841057  0.7149836199348697  1.0000
  H   H14       1.0  0.4117703526773012  0.12851078348147382  0.28501962726033264  1.0000
  H   H15       1.0  0.0799662883101463  0.6397489419501737  0.6510335478460263  1.0000
  H   H16       1.0  0.9200357025509331  0.3602316278851418  0.34898436572673563  1.0000
  H   H17       1.0  0.6430877157132643  0.8684535224540681  0.8657154358579291  1.0000
  H   H18       1.0  0.356913050015379  0.13153694772402252  0.13429580618818449  1.0000
  H   H19       1.0  0.15536803041052852  0.7256023433807074  0.7468879217524317  1.0000
  H   H20       1.0  0.8446316915206183  0.27437442628735914  0.25312842226605164  1.0000
  H   H21       1.0  0.7340162864422624  0.9345898861597634  0.006388398522503264  1.0000
  H   H22       1.0  0.2659812795109033  0.06541564600291852  0.9936079997099084  1.0000
  H   H23       1.0  0.22456331319003206  0.8067487018480508  0.8868639796186739  1.0000
  H   H24       1.0  0.7754342886546438  0.19324380606329336  0.11314375526745113  1.0000
  H   H25       1.0  0.15773733093428188  0.8894498049827604  0.03097993173774675  1.0000
  H   H26       1.0  0.8422669518935211  0.11055996679209565  0.9690104255659193  1.0000
  H   H27       1.0  0.9613896804496349  0.8887223493357513  0.11949637668249827  1.0000
  H   H28       1.0  0.03861679405336102  0.11128820855902427  0.8804983126817305  1.0000
  H   H29       1.0  0.6861540218729233  0.46320574967618455  0.5843018069030278  1.0000
  H   H30       1.0  0.3138634345116316  0.5367967441895659  0.4156846709517125  1.0000
  H   H31       1.0  0.654061277514458  0.40460854774380556  0.4993758914547115  1.0000
  H   H32       1.0  0.345948393169671  0.5953994060202631  0.5006141677674306  1.0000
  C   C1        1.0  0.26345260339149945  0.8308787721674307  0.3942836750040399  1.0000
  C   C2        1.0  0.7365769514909671  0.16910278344565197  0.6057031829810883  1.0000
  C   C3        1.0  0.12828061643018876  0.9171732449652482  0.45066478735127896  1.0000
  C   C4        1.0  0.8717268623042499  0.08282874621396272  0.5493486361784647  1.0000
  C   C5        1.0  0.971551419317045  0.959994326773867  0.4134036559378415  1.0000
  C   C6        1.0  0.0284255958479278  0.040022368570276995  0.5865931948303924  1.0000
  C   C7        1.0  0.15482518025862646  0.9583886805247206  0.5380379320674534  1.0000
  C   C8        1.0  0.8451689208218339  0.041623964109028605  0.46196902686738633  1.0000
  C   C9        1.0  0.8329394979603395  0.6105704877799027  0.18682622241932725  1.0000
  C   C10       1.0  0.16704649007430566  0.3894449240364891  0.8131803412447383  1.0000
  C   C11       1.0  0.9189090323907154  0.5536244166903331  0.09000718360219635  1.0000
  C   C12       1.0  0.08108471395185994  0.44637829400526413  0.9099867338890135  1.0000
  C   C13       1.0  0.8292581868483565  0.5293533583873896  0.022111830563588227  1.0000
  C   C14       1.0  0.17073457358920047  0.4706485555501487  0.9778783794254763  1.0000
  C   C15       1.0  0.09026476794035439  0.523866941988544  0.06717335665427267  1.0000
  C   C16       1.0  0.9097437633651068  0.4761336606918078  0.9328095403831751  1.0000
  C   C17       1.0  0.636834669014597  0.7849090493404062  0.5808005369278533  1.0000
  C   C18       1.0  0.36315874611374716  0.2150982500284613  0.4191976263375636  1.0000
  C   C19       1.0  0.8985265000486677  0.6642239404700803  0.5444667578372061  1.0000
  C   C20       1.0  0.10146435186285171  0.3357705969224796  0.45553643860672105  1.0000
  C   C21       1.0  0.6806662178947817  0.8086511874801586  0.671763103342158  1.0000
  C   C22       1.0  0.3193300678664742  0.19134458611539173  0.32823619012088295  1.0000
  C   C23       1.0  0.9523709661345451  0.6832857718504498  0.6348958471994165  1.0000
  C   C24       1.0  0.047611289840453694  0.31670333814543744  0.36511748204328137  1.0000
  C   C25       1.0  0.84252060423659  0.7579643988707758  0.7005070829252276  1.0000
  C   C26       1.0  0.15747599697098744  0.24202421790226233  0.29950139175115703  1.0000
  C   C27       1.0  0.8919655263629167  0.7907011143094922  0.7914580599694574  1.0000
  C   C28       1.0  0.10802487391923421  0.20928518833729023  0.20855650693708574  1.0000
  C   C29       1.0  0.7739944880426464  0.8495815480611882  0.867343507548675  1.0000
  C   C30       1.0  0.22599872941581362  0.15040991384130822  0.13266454291144913  1.0000
  C   C31       1.0  0.057162294971952646  0.7708371224459611  0.8021273259659695  1.0000
  C   C32       1.0  0.9428246590384146  0.22915210566319638  0.19788513193818594  1.0000
  C   C33       1.0  0.8207460736133853  0.889962701817062  0.9446377461582783  1.0000
  C   C34       1.0  0.17924515163694107  0.11003758250495109  0.05536582202446278  1.0000
  C   C35       1.0  0.09878421325698386  0.8140221944877551  0.8798619677255458  1.0000
  C   C36       1.0  0.9012076245595609  0.18597313966287032  0.12014493622051962  1.0000
  C   C37       1.0  0.025333931901883475  0.9255529239225099  0.027145679568171446  1.0000
  C   C38       1.0  0.9746636800446851  0.07445566245394991  0.9728471137648853  1.0000
  Br  Br1       1.0  0.6458307381931478  0.964837588030619  0.22196659372279723  1.0000
  Br  Br2       1.0  0.3541854204344119  0.035158808045707694  0.7780264693722286  1.0000
  N   N1        1.0  0.7434015595360749  0.714262241128381  0.5173753408828503  1.0000
  N   N2        1.0  0.2565982321866187  0.28573728182982444  0.4826269890859435  1.0000
  N   N3        1.0  0.9814264861283136  0.8737333776445766  0.9487663292035009  1.0000
  N   N4        1.0  0.01856349925750321  0.1262737126399713  0.0512350147450107  1.0000
  O   O1        1.0  0.2579707515015741  0.8357911629230017  0.2897679698171912  1.0000
  O   O2        1.0  0.7420228385343464  0.1642117486048846  0.7102217357087142  1.0000
  O   O3        1.0  0.380192120828518  0.7535576585607586  0.46336013353585065  1.0000
  O   O4        1.0  0.6198320694467867  0.24643506120960273  0.5366720061168236  1.0000
  O   O5        1.0  0.6777778011205059  0.6208880500973066  0.2136574003897209  1.0000
  O   O6        1.0  0.32220269544642116  0.37911839822906757  0.7863341793615674  1.0000
  O   O7        1.0  0.9145709091641835  0.6449872140997429  0.23729189089553407  1.0000
  O   O8        1.0  0.08545049187627282  0.35501794056726504  0.7627004372726489  1.0000
  O   O9        1.0  0.6933654425658703  0.47654605330371425  0.4980790398674628  1.0000
  O   O10       1.0  0.3066493676811106  0.5234541748542797  0.5019137191065752  1.0000
