data_image0
_chemical_formula_structural       Zn2H26C40N8Cl2O6
_chemical_formula_sum              "Zn2 H26 C40 N8 Cl2 O6"
_cell_length_a       6.857904847029897
_cell_length_b       9.271848544496718
_cell_length_c       13.21605449784516
_cell_angle_alpha    90.94612208907293
_cell_angle_beta     89.99998099894498
_cell_angle_gamma    89.99966609465844

_space_group_name_H-M_alt    "P 1"
_space_group_IT_number       1

loop_
  _space_group_symop_operation_xyz
  'x, y, z'

loop_
  _atom_site_type_symbol
  _atom_site_label
  _atom_site_symmetry_multiplicity
  _atom_site_fract_x
  _atom_site_fract_y
  _atom_site_fract_z
  _atom_site_occupancy
  Zn  Zn1       1.0  0.6111554748621303  0.503957787810492  0.20654724362422178  1.0000
  Zn  Zn2       1.0  0.11115713730058728  0.4960421654732343  0.7934533806714867  1.0000
  H   H1        1.0  0.0878943899363733  0.6764556710970169  0.2632152954177087  1.0000
  H   H2        1.0  0.5878967251968135  0.3235433427676213  0.7367822890294138  1.0000
  H   H3        1.0  0.14252694573134758  0.8203959336963251  0.8732270003576446  1.0000
  H   H4        1.0  0.6425205701127367  0.1796028041484945  0.1267735976178272  1.0000
  H   H5        1.0  0.2147779473068638  0.059961584630592306  0.7946659661463472  1.0000
  H   H6        1.0  0.7147758021642475  0.9400368664358824  0.20533234569213488  1.0000
  H   H7        1.0  0.2313398637735489  0.07311710761914013  0.6049849746558706  1.0000
  H   H8        1.0  0.7313391630337305  0.9268812712144274  0.3950133333806393  1.0000
  H   H9        1.0  0.0959896258429609  0.432566521320311  0.3404037147678737  1.0000
  H   H10       1.0  0.5959857325147765  0.5674302716427491  0.6595960991333031  1.0000
  H   H11       1.0  0.0847231703992719  0.21013084290301984  0.4477593012490361  1.0000
  H   H12       1.0  0.5847205250803141  0.7898681281394889  0.5522428230290687  1.0000
  H   H13       1.0  0.05365518885142249  0.242462948739842  0.6364941199843487  1.0000
  H   H14       1.0  0.5536587440391327  0.7575361672265828  0.3635072549076455  1.0000
  H   H15       1.0  0.08984743536381501  0.1585908198530674  0.2843174509325692  1.0000
  H   H16       1.0  0.589850120658923  0.8414114025233275  0.7156817034597724  1.0000
  H   H17       1.0  0.1361088566306066  0.3044185008421962  0.1304676900662969  1.0000
  H   H18       1.0  0.636109668136342  0.6955834820076348  0.8695344797752115  1.0000
  H   H19       1.0  0.2802361526972987  0.18998053179082325  0.9754460429286169  1.0000
  H   H20       1.0  0.7802365902400723  0.8100229797710629  0.024556132068013912  1.0000
  H   H21       1.0  0.3637339965877544  0.9280509323547291  0.9758423980005375  1.0000
  H   H22       1.0  0.8637372722205896  0.0719522339382763  0.024158244794605807  1.0000
  H   H23       1.0  0.6021721649465519  0.3944652369250292  0.021895090893210106  1.0000
  H   H24       1.0  0.10216848598167158  0.6055369033830331  0.9781063302219337  1.0000
  H   H25       1.0  0.4322320352828656  0.5139860579839989  0.042708359963207  1.0000
  H   H26       1.0  0.9322300522998288  0.48601466175239244  0.9572914723520614  1.0000
  C   C1        1.0  0.14851709414379138  0.8317767416001018  0.7914033806180143  1.0000
  C   C2        1.0  0.6485136734128075  0.16822197955795565  0.20859645946499947  1.0000
  C   C3        1.0  0.18852589190033336  0.9651503860876788  0.7469265011312559  1.0000
  C   C4        1.0  0.6885249418789811  0.034848170022669905  0.2530725732503427  1.0000
  C   C5        1.0  0.19409902250854566  0.9733829011096876  0.6425561425355684  1.0000
  C   C6        1.0  0.6940966144917696  0.026614542615135402  0.357443667964148  1.0000
  C   C7        1.0  0.1541456291423344  0.8497772486631305  0.5828177611754058  1.0000
  C   C8        1.0  0.6541422208252781  0.1502203693084496  0.4171820584957615  1.0000
  C   C9        1.0  0.1506591953633674  0.8445036545042728  0.4744442472703199  1.0000
  C   C10       1.0  0.6506542212990355  0.15549291892421024  0.5255540410473856  1.0000
  C   C11       1.0  0.11635624316796368  0.7132573323948536  0.4224876177056913  1.0000
  C   C12       1.0  0.6163545885168914  0.28674045982370433  0.5775114541227852  1.0000
  C   C13       1.0  0.09636960177498112  0.577950506692197  0.47100951437785454  1.0000
  C   C14       1.0  0.596368380158637  0.4220495488574443  0.5289880872439953  1.0000
  C   C15       1.0  0.09173608317244941  0.44069971189914997  0.422891800965161  1.0000
  C   C16       1.0  0.5917381365199218  0.5592992568800739  0.5771080521513596  1.0000
  C   C17       1.0  0.0825077758368948  0.3183977841692922  0.48142890679419287  1.0000
  C   C18       1.0  0.5825074534124538  0.6816023035008739  0.5185709675607697  1.0000
  C   C19       1.0  0.07151307016268048  0.3342279079453334  0.5870626898247553  1.0000
  C   C20       1.0  0.5715129359356935  0.6657733157576687  0.412936449656769  1.0000
  C   C21       1.0  0.12018531500771697  0.7186723171675667  0.6340481597656904  1.0000
  C   C22       1.0  0.6201838323202652  0.28132651810280873  0.3659524433377612  1.0000
  C   C23       1.0  0.09579502811097029  0.5833786977012635  0.578666918701977  1.0000
  C   C24       1.0  0.5957953730037104  0.4166234987416217  0.4213322343253552  1.0000
  C   C25       1.0  0.1738629508942466  0.8889502486548442  0.31480818054375  1.0000
  C   C26       1.0  0.6738640581099061  0.1110505381214537  0.6851901789260495  1.0000
  C   C27       1.0  0.20352772964998414  0.9627078641280137  0.21886120985712415  1.0000
  C   C28       1.0  0.7035264367158901  0.0372916957525433  0.7811386367177209  1.0000
  C   C29       1.0  0.15202552962541915  0.109555233793337  0.21625012662289583  1.0000
  C   C30       1.0  0.6520277908723174  0.890448846360087  0.7837513212873051  1.0000
  C   C31       1.0  0.1776642643136555  0.191053728228276  0.12990270936222  1.0000
  C   C32       1.0  0.6776627334773835  0.8089491709224536  0.8700979570261327  1.0000
  C   C33       1.0  0.25497678664146406  0.12602907038677813  0.0427407877579924  1.0000
  C   C34       1.0  0.7549761535713626  0.8739734726991772  0.9572613739172555  1.0000
  C   C35       1.0  0.30146579186317973  0.9798611386880083  0.04286685622539471  1.0000
  C   C36       1.0  0.8014659828824406  0.020141239424027898  0.9571322687098631  1.0000
  C   C37       1.0  0.27904816546467964  0.8962992313544264  0.12969375628333074  1.0000
  C   C38       1.0  0.7790477582772795  0.10369999916478893  0.8703060729556285  1.0000
  C   C39       1.0  0.35626330683169266  0.7439075397312325  0.12096548460383622  1.0000
  C   C40       1.0  0.8562631643789517  0.2560913634809339  0.8790335703932117  1.0000
  N   N1        1.0  0.1185638218573928  0.7123353011006941  0.7363508046212744  1.0000
  N   N2        1.0  0.6185608943369021  0.28766356013225913  0.263648285820409  1.0000
  N   N3        1.0  0.07975559842696359  0.4624189502538912  0.6339165650828775  1.0000
  N   N4        1.0  0.5797564923630887  0.5375779134985024  0.3660832525442786  1.0000
  N   N5        1.0  0.18577010147710377  0.9525707513088619  0.4068371706351783  1.0000
  N   N6        1.0  0.6857659284593254  0.0474277884954049  0.5931641739306174  1.0000
  N   N7        1.0  0.12999588378550436  0.7451960664056896  0.3220023298559198  1.0000
  N   N8        1.0  0.6299944164923376  0.25480599032839996  0.6779960588037142  1.0000
  Cl  Cl1       1.0  0.9331968483272914  0.5406345176304654  0.17017050425250352  1.0000
  Cl  Cl2       1.0  0.4331958580600173  0.45936404061742303  0.8298292896015554  1.0000
  O   O1        1.0  0.46847118977884605  0.7014963444540712  0.19202759800531774  1.0000
  O   O2        1.0  0.968473676600631  0.29850314803110223  0.8079714503538256  1.0000
  O   O3        1.0  0.31424494994102053  0.6713337670876386  0.041792008690812614  1.0000
  O   O4        1.0  0.8142471094601973  0.3286674766483983  0.9582070941909466  1.0000
  O   O5        1.0  0.502697029157062  0.4285927815505347  0.07113668997038762  1.0000
  O   O6        1.0  0.0026936464624541  0.5714087328358987  0.928863221825367  1.0000
