data_image0
_chemical_formula_structural       Ag4H32C36N8O8
_chemical_formula_sum              "Ag4 H32 C36 N8 O8"
_cell_length_a       5.7710804060453205
_cell_length_b       8.057726887409284
_cell_length_c       18.4839273549096
_cell_angle_alpha    90.48371089238647
_cell_angle_beta     89.99957405411853
_cell_angle_gamma    89.99993705205887

_space_group_name_H-M_alt    "P 1"
_space_group_IT_number       1

loop_
  _space_group_symop_operation_xyz
  'x, y, z'

loop_
  _atom_site_type_symbol
  _atom_site_label
  _atom_site_symmetry_multiplicity
  _atom_site_fract_x
  _atom_site_fract_y
  _atom_site_fract_z
  _atom_site_occupancy
  Ag  Ag1       1.0  0.7149936583203169  0.0349109829259362  0.931874314675099  1.0000
  Ag  Ag2       1.0  0.7850213643345113  0.5349097174716563  0.4318807258175141  1.0000
  Ag  Ag3       1.0  0.2850553597049413  0.9651116897011605  0.06812690638406588  1.0000
  Ag  Ag4       1.0  0.21497740309663269  0.4650905236216332  0.5681229690663088  1.0000
  H   H1        1.0  0.6639458298634081  0.14658538723344353  0.8065011553452804  1.0000
  H   H2        1.0  0.8360428122130442  0.6465570970088095  0.30649634851082647  1.0000
  H   H3        1.0  0.33604773918514746  0.8534246301015996  0.19350696906917617  1.0000
  H   H4        1.0  0.16392823081323368  0.35342218045659024  0.6935033424465686  1.0000
  H   H5        1.0  0.7863503054857832  0.16179303219765023  0.7188380276138133  1.0000
  H   H6        1.0  0.7136352419935931  0.6617670152351707  0.21884651179701814  1.0000
  H   H7        1.0  0.21362073756063174  0.8382148248303595  0.2811608762739297  1.0000
  H   H8        1.0  0.2863461976031658  0.33821446038002284  0.7811613179449495  1.0000
  H   H9        1.0  0.13929848945372916  0.0334727575909639  0.6865893863945729  1.0000
  H   H10       1.0  0.36067740491431977  0.5334672393186466  0.18660640088678088  1.0000
  H   H11       1.0  0.8606448293038225  0.9665132353397041  0.31339576494821125  1.0000
  H   H12       1.0  0.6393092330251163  0.46652542371046474  0.8134010032831752  1.0000
  H   H13       1.0  0.4739670508370962  0.8553655098336178  0.7244194233272552  1.0000
  H   H14       1.0  0.026015113578800698  0.35534779938659256  0.2244397889124414  1.0000
  H   H15       1.0  0.5259918630188309  0.14462573059043396  0.2755576660755281  1.0000
  H   H16       1.0  0.9739715244027424  0.6446325866009346  0.7755637009861118  1.0000
  H   H17       1.0  0.48256179212398825  0.7475098949424395  0.8525195712455229  1.0000
  H   H18       1.0  0.0174778808110148  0.2474885923215098  0.3525366730212482  1.0000
  H   H19       1.0  0.5174820277915443  0.2525035121664629  0.14746261658596177  1.0000
  H   H20       1.0  0.9825364816605313  0.7524919260453447  0.6474630306982974  1.0000
  H   H21       1.0  0.158103391452002  0.8216586452990811  0.9349794818675788  1.0000
  H   H22       1.0  0.341939567313986  0.3216317853259553  0.4349941561211779  1.0000
  H   H23       1.0  0.8419681527776106  0.17837421967862346  0.0650142693714955  1.0000
  H   H24       1.0  0.6580626656664919  0.6783436368664583  0.5650092825094148  1.0000
  H   H25       1.0  0.9465871397066294  0.38347189446443514  0.8760267439671239  1.0000
  H   H26       1.0  0.5534173485629593  0.883474853871135  0.37603264973551376  1.0000
  H   H27       1.0  0.05341162778694299  0.6165198491677801  0.1239714524483233  1.0000
  H   H28       1.0  0.4465744877481441  0.1165414816818071  0.6239722934745656  1.0000
  H   H29       1.0  0.34771409976993073  0.42080839688335914  0.0709196419001685  1.0000
  H   H30       1.0  0.1522787090972741  0.920825919831053  0.5709238221643814  1.0000
  H   H31       1.0  0.6522933315809568  0.5791857340534037  0.9290812845207199  1.0000
  H   H32       1.0  0.8477183254758246  0.0791889667034908  0.4290870578864698  1.0000
  C   C1        1.0  0.9736696060934021  0.022830174063074096  0.7907525884584956  1.0000
  C   C2        1.0  0.5263661036273888  0.5228303464396831  0.2907688081555619  1.0000
  C   C3        1.0  0.026327428707951094  0.9771680201941494  0.20923864060576847  1.0000
  C   C4        1.0  0.47365518986990196  0.477169762223923  0.7092386728489045  1.0000
  C   C5        1.0  0.15263538861640308  0.9835318227886277  0.7409369622796262  1.0000
  C   C6        1.0  0.3473568746339168  0.4835062685128122  0.24094947319132834  1.0000
  C   C7        1.0  0.8473512495763202  0.0164665417167313  0.2590493988936728  1.0000
  C   C8        1.0  0.6526488238578593  0.5164727441036304  0.759057790019426  1.0000
  C   C9        1.0  0.33550206813471556  0.8856292571981328  0.7623750669718773  1.0000
  C   C10       1.0  0.16448614405635445  0.3856047429337722  0.2624042417968653  1.0000
  C   C11       1.0  0.6644689751046259  0.1143754444543177  0.23760757213502604  1.0000
  C   C12       1.0  0.8354970282778637  0.6143704144635223  0.7376067691494866  1.0000
  C   C13       1.0  0.3420406989785505  0.8255106854671084  0.8335937484730279  1.0000
  C   C14       1.0  0.1579526993071596  0.3254927295027771  0.3336132667357887  1.0000
  C   C15       1.0  0.657966732634584  0.17449909342015962  0.1663856965727604  1.0000
  C   C16       1.0  0.8420356714140309  0.6744900248809388  0.6663934940543611  1.0000
  C   C17       1.0  0.1616129451289936  0.8664941612009757  0.8795289496771092  1.0000
  C   C18       1.0  0.3384157760200637  0.3664787983403174  0.3795345524832284  1.0000
  C   C19       1.0  0.8384291419062818  0.13352266609944516  0.1204619306436143  1.0000
  C   C20       1.0  0.6615812587144702  0.6335105201497981  0.6204619956749724  1.0000
  C   C21       1.0  0.3423182069457056  0.2740468572734613  0.93933570782837  1.0000
  C   C22       1.0  0.1576882238086554  0.774043327305357  0.4393434708545314  1.0000
  C   C23       1.0  0.6576892244563695  0.7259709840229434  0.060661675882443  1.0000
  C   C24       1.0  0.8423157418857414  0.2259604285490155  0.5606662121199051  1.0000
  C   C25       1.0  0.16470295575284408  0.39025809298995284  0.970522595098565  1.0000
  C   C26       1.0  0.3352993523922549  0.8902504841952847  0.4705299071371982  1.0000
  C   C27       1.0  0.8353166050771249  0.609744819125254  0.029475716604878195  1.0000
  C   C28       1.0  0.6646994148841117  0.1097505438756343  0.5294867816338495  1.0000
  C   C29       1.0  0.1937433061414211  0.4556836717429604  0.0405150049376815  1.0000
  C   C30       1.0  0.30625198743269516  0.9556871600281269  0.5405208501395293  1.0000
  C   C31       1.0  0.8062762547202381  0.5443168530590157  0.9594805767502662  1.0000
  C   C32       1.0  0.6937346504972696  0.04431911556395111  0.45948777672371216  1.0000
  C   C33       1.0  0.9692148583198943  0.43550442668400535  0.930172412848826  1.0000
  C   C34       1.0  0.5307779799133953  0.9355072612176302  0.4301832390922087  1.0000
  C   C35       1.0  0.030801236972308695  0.5644923374562297  0.0698242121619899  1.0000
  C   C36       1.0  0.4691878646134667  0.06450501105131681  0.5698314015167509  1.0000
  N   N1        1.0  0.9808029859758278  0.9626062990461435  0.8594195607930358  1.0000
  N   N2        1.0  0.519207156447905  0.46258273802349237  0.3594301423554924  1.0000
  N   N3        1.0  0.019220040418716198  0.0374065595398534  0.1405783125279498  1.0000
  N   N4        1.0  0.48078467984764467  0.5373975912129155  0.6405749701713717  1.0000
  N   N5        1.0  0.7951625740003722  0.1205581568683556  0.771111745314748  1.0000
  N   N6        1.0  0.704859815840031  0.6205507149586184  0.2711220647450574  1.0000
  N   N7        1.0  0.20483272791144463  0.8794322701612602  0.22888860180472653  1.0000
  N   N8        1.0  0.2951406843689099  0.3794495261329374  0.7288816301367547  1.0000
  O   O1        1.0  0.45725276990923197  0.1876529348339915  0.9859168189037533  1.0000
  O   O2        1.0  0.04276461353095579  0.6876534904611662  0.48592110117144216  1.0000
  O   O3        1.0  0.5427771876064114  0.8123735930539271  0.014080654468124001  1.0000
  O   O4        1.0  0.9572254900263173  0.31235547508549644  0.5140816016534302  1.0000
  O   O5        1.0  0.37371520860990864  0.26604876348361023  0.8719906343122544  1.0000
  O   O6        1.0  0.1262754958455119  0.7660515201002484  0.37199799346809204  1.0000
  O   O7        1.0  0.6262887571749617  0.733955257184988  0.1280114763685631  1.0000
  O   O8        1.0  0.8737198059617768  0.23395968143202586  0.6280117663911611  1.0000
