data_image0
_chemical_formula_structural       Zn8H32C16N32O16
_chemical_formula_sum              "Zn8 H32 C16 N32 O16"
_cell_length_a       9.658613778033763
_cell_length_b       10.083916515059993
_cell_length_c       10.491501985040511
_cell_angle_alpha    90.00029195548595
_cell_angle_beta     89.99986835543005
_cell_angle_gamma    89.99973149456787

_space_group_name_H-M_alt    "P 1"
_space_group_IT_number       1

loop_
  _space_group_symop_operation_xyz
  'x, y, z'

loop_
  _atom_site_type_symbol
  _atom_site_label
  _atom_site_symmetry_multiplicity
  _atom_site_fract_x
  _atom_site_fract_y
  _atom_site_fract_z
  _atom_site_occupancy
  Zn  Zn1       1.0  0.4062976323353098  0.9008768553824846  0.6035349623764077  1.0000
  Zn  Zn2       1.0  0.09370562993095892  0.09912524116032977  0.10352868772070419  1.0000
  Zn  Zn3       1.0  0.9062937576235935  0.5991223839616352  0.3964717987593005  1.0000
  Zn  Zn4       1.0  0.5937084258058718  0.4008780332053232  0.8964706181490811  1.0000
  Zn  Zn5       1.0  0.5937045728403872  0.09912192229080569  0.3964728368827366  1.0000
  Zn  Zn6       1.0  0.906294504559817  0.9008735365049173  0.8964743457789056  1.0000
  Zn  Zn7       1.0  0.093708447559564  0.4008783770400866  0.6035255158285864  1.0000
  Zn  Zn8       1.0  0.40629274403351456  0.5991207444499833  0.10352955589225128  1.0000
  H   H1        1.0  0.3940040852667935  0.7538967839249081  0.7878666614585013  1.0000
  H   H2        1.0  0.10599460289145668  0.24610431130467694  0.28786298189279336  1.0000
  H   H3        1.0  0.8939978547499192  0.7461044940507617  0.21213631462347138  1.0000
  H   H4        1.0  0.60599026658425  0.25389593277283495  0.7121324838302314  1.0000
  H   H5        1.0  0.6059908725023391  0.24610100206871968  0.21213446573975148  1.0000
  H   H6        1.0  0.894010708350585  0.7538865329107834  0.7121352858198264  1.0000
  H   H7        1.0  0.10599296163444191  0.2538952753060072  0.78786385943188  1.0000
  H   H8        1.0  0.3940109032670592  0.746098878164666  0.28786578389669154  1.0000
  H   H9        1.0  0.4137839201137439  0.8984845991056358  0.8588177478791436  1.0000
  H   H10       1.0  0.0862094247503293  0.1015188574871004  0.3588153142821255  1.0000
  H   H11       1.0  0.9137847743815541  0.6015175815939457  0.14118709017796496  1.0000
  H   H12       1.0  0.5862117962758688  0.3984804838747492  0.6411840083765057  1.0000
  H   H13       1.0  0.586203790225518  0.1015171536246342  0.1411862387940062  1.0000
  H   H14       1.0  0.9138000278576612  0.8984749617713702  0.6411896254997059  1.0000
  H   H15       1.0  0.0862050066566127  0.39848119609458615  0.8588159433332478  1.0000
  H   H16       1.0  0.41379247961943116  0.6015123436917802  0.3588113998849849  1.0000
  H   H17       1.0  0.5246133679380235  0.6262869641133334  0.6460886014713337  1.0000
  H   H18       1.0  0.9753935446419604  0.37371608586158084  0.1460952007506435  1.0000
  H   H19       1.0  0.0246055371693501  0.8737149831936221  0.3539066239960462  1.0000
  H   H20       1.0  0.4753878192158253  0.12628943892602246  0.8539089687387572  1.0000
  H   H21       1.0  0.4753940139742312  0.3737108218523629  0.3539125257129925  1.0000
  H   H22       1.0  0.024603483797747603  0.626286658536081  0.8539125985239692  1.0000
  H   H23       1.0  0.9753904559396389  0.1262877611733586  0.6460887842988967  1.0000
  H   H24       1.0  0.5246133506135139  0.8737152887882259  0.1460873927075852  1.0000
  H   H25       1.0  0.6971164502535033  0.5945102562128497  0.6550756044722164  1.0000
  H   H26       1.0  0.802882158475782  0.40548986662074776  0.1550808388732463  1.0000
  H   H27       1.0  0.19711780349218339  0.9054909153939118  0.3449230470369997  1.0000
  H   H28       1.0  0.3028786800283783  0.09451147549030738  0.8449208577204033  1.0000
  H   H29       1.0  0.30289196700457677  0.40549050476729315  0.34491885065160227  1.0000
  H   H30       1.0  0.19710762253909309  0.5945138694840819  0.8449317261737619  1.0000
  H   H31       1.0  0.8028906137642196  0.09450687057199757  0.6550790332985343  1.0000
  H   H32       1.0  0.6971224898046771  0.9054912688701078  0.1550764568734806  1.0000
  C   C1        1.0  0.644344752768731  0.7218603289878373  0.5175379929939155  1.0000
  C   C2        1.0  0.8556490021172323  0.2781360860945056  0.0175443947812539  1.0000
  C   C3        1.0  0.1443619352900143  0.7781311631289682  0.48247221455648764  1.0000
  C   C4        1.0  0.35564561420335383  0.2218461768531839  0.9824562303702534  1.0000
  C   C5        1.0  0.35565227569149016  0.2781404320179062  0.4824564621426575  1.0000
  C   C6        1.0  0.1443552737696621  0.7218537664730318  0.9824643576061974  1.0000
  C   C7        1.0  0.8556506233503853  0.22185670609404443  0.5175479756453072  1.0000
  C   C8        1.0  0.6443493436082476  0.7781337589357022  0.017545849936865893  1.0000
  C   C9        1.0  0.7443341316837361  0.8432173245157556  0.3715409684542337  1.0000
  C   C10       1.0  0.7556618982086433  0.15678593484614103  0.8715267974648881  1.0000
  C   C11       1.0  0.2443463874097063  0.6567836347999502  0.6284785465861589  1.0000
  C   C12       1.0  0.25566613442757097  0.3432136361998132  0.1284654734061306  1.0000
  C   C13       1.0  0.25565254328958525  0.15679335331794414  0.6284620650894581  1.0000
  C   C14       1.0  0.24434755437513184  0.8432178011941429  0.1284781423411019  1.0000
  C   C15       1.0  0.7556599591354995  0.3432230762717125  0.37152258062107524  1.0000
  C   C16       1.0  0.7443371061189268  0.6567801830497686  0.8715308880113142  1.0000
  N   N1        1.0  0.6339081289008632  0.9116395176947664  0.4154787237916935  1.0000
  N   N2        1.0  0.8660846917413637  0.08837885099727318  0.9154916133457859  1.0000
  N   N3        1.0  0.1339187512259485  0.5883817716818597  0.5845200693972359  1.0000
  N   N4        1.0  0.3660845556516676  0.4116281570022621  0.0845204263059074  1.0000
  N   N5        1.0  0.36609097019827175  0.08838008520448429  0.5845204971503364  1.0000
  N   N6        1.0  0.1339102660104317  0.9116219100537531  0.0845180922310576  1.0000
  N   N7        1.0  0.8660917367051367  0.41162295602413207  0.41548105780052674  1.0000
  N   N8        1.0  0.6339166141961171  0.5883735956520437  0.9154664036094715  1.0000
  N   N9        1.0  0.614655361407614  0.6152482559289395  0.5950728992940384  1.0000
  N   N10       1.0  0.885334070099283  0.38474956385844183  0.0950606911032637  1.0000
  N   N11       1.0  0.11467634660927221  0.8847582448427925  0.40493260905662964  1.0000
  N   N12       1.0  0.38533242018231556  0.115243474033413  0.9049293828763538  1.0000
  N   N13       1.0  0.3853364903136196  0.3847544884625833  0.4049282279197683  1.0000
  N   N14       1.0  0.1146691704559828  0.615245247043937  0.904926138792881  1.0000
  N   N15       1.0  0.8853320706178778  0.1152524329344047  0.5950675650055857  1.0000
  N   N16       1.0  0.6146635729330114  0.8847553036284521  0.0950688848660377  1.0000
  N   N17       1.0  0.5717978435412191  0.8344833812692086  0.5105422103123658  1.0000
  N   N18       1.0  0.9282124932897418  0.16551101316537847  0.010554572688924698  1.0000
  N   N19       1.0  0.07179692347626337  0.6655133954505882  0.4894500499436986  1.0000
  N   N20       1.0  0.428205432832911  0.3344848070188604  0.9894563745711125  1.0000
  N   N21       1.0  0.42820953837719594  0.1655173797005673  0.4894474790507529  1.0000
  N   N22       1.0  0.07178557051516779  0.8344867728212716  0.9894465545058394  1.0000
  N   N23       1.0  0.9282042463634993  0.33448339885850936  0.5105539367022942  1.0000
  N   N24       1.0  0.5718102318315629  0.6655179373140427  0.010542846311274398  1.0000
  N   N25       1.0  0.7528438511779995  0.7239037140934029  0.4350654142913797  1.0000
  N   N26       1.0  0.7471406407815947  0.27609591704746345  0.9350661411546213  1.0000
  N   N27       1.0  0.25284324918016676  0.7761031569939546  0.5649312060518028  1.0000
  N   N28       1.0  0.2471497502518432  0.22389972559717808  0.0649280551010705  1.0000
  N   N29       1.0  0.24716146002586467  0.2761059719897502  0.5649261814005513  1.0000
  N   N30       1.0  0.2528315394160288  0.7238979022516431  0.0649225950786487  1.0000
  N   N31       1.0  0.7471527439098224  0.22390553745227484  0.4350680148671273  1.0000
  N   N32       1.0  0.7528565963006385  0.7761099604760273  0.9350606811325831  1.0000
  O   O1        1.0  0.4431827692177279  0.8424396508896234  0.7876228151138918  1.0000
  O   O2        1.0  0.05681695484594229  0.15756937644790975  0.2876130953270176  1.0000
  O   O3        1.0  0.9431759352247724  0.657559422593188  0.21238100391314418  1.0000
  O   O4        1.0  0.5568101148568659  0.3424370388197388  0.7123748553951614  1.0000
  O   O5        1.0  0.5568111531944026  0.15756111015103608  0.21238212470225898  1.0000
  O   O6        1.0  0.9431883563890223  0.8424234511289865  0.7123870786951798  1.0000
  O   O7        1.0  0.0568138458258858  0.342438363394308  0.7876134512243027  1.0000
  O   O8        1.0  0.4431900196540326  0.6575557887637231  0.2876234123280881  1.0000
  O   O9        1.0  0.8268729060456578  0.8802917803428938  0.281772122797598  1.0000
  O   O10       1.0  0.6731140164855846  0.1196991007040609  0.7817751128006803  1.0000
  O   O11       1.0  0.32687477866726766  0.6197107911595977  0.7182310037101018  1.0000
  O   O12       1.0  0.1731261436598501  0.38029092474319265  0.2182211556260754  1.0000
  O   O13       1.0  0.1731168749802166  0.11971294740965277  0.718229004423371  1.0000
  O   O14       1.0  0.3268881887048351  0.8802927352270301  0.2182345927462919  1.0000
  O   O15       1.0  0.6731191437364927  0.3802988949542294  0.2817624982993364  1.0000
  O   O16       1.0  0.8268729554750465  0.6197108279665497  0.7817847373390591  1.0000
