data_image0
_chemical_formula_structural       K2H18C12O16
_chemical_formula_sum              "K2 H18 C12 O16"
_cell_length_a       4.75942900674593
_cell_length_b       8.837345348778584
_cell_length_c       10.980392309439392
_cell_angle_alpha    89.9998314388936
_cell_angle_beta     90.00100707220196
_cell_angle_gamma    91.55972929877976

_space_group_name_H-M_alt    "P 1"
_space_group_IT_number       1

loop_
  _space_group_symop_operation_xyz
  'x, y, z'

loop_
  _atom_site_type_symbol
  _atom_site_label
  _atom_site_symmetry_multiplicity
  _atom_site_fract_x
  _atom_site_fract_y
  _atom_site_fract_z
  _atom_site_occupancy
  K   K1        1.0  0.652729615356961  0.3508817705106466  0.8379238171364563  1.0000
  K   K2        1.0  0.3473084938743796  0.6491228769147102  0.3379264960561413  1.0000
  H   H1        1.0  0.9244572361428424  0.8664593054162993  0.5186141144180353  1.0000
  H   H2        1.0  0.07554005714666091  0.13353603706926268  0.018617850337591293  1.0000
  H   H3        1.0  0.171682683068326  0.9557414282996818  0.6573329821994489  1.0000
  H   H4        1.0  0.8283138593908318  0.0442512462179181  0.1573353358555494  1.0000
  H   H5        1.0  0.5770074885205646  0.9121582408695376  0.7511017074868886  1.0000
  H   H6        1.0  0.4229929844690402  0.0878364293072522  0.2511036258391997  1.0000
  H   H7        1.0  0.7730097138024162  0.9888749196648163  0.9546624735214378  1.0000
  H   H8        1.0  0.2269867194360486  0.011124813761298898  0.45466401485657565  1.0000
  H   H9        1.0  0.5372919319387536  0.739685810454674  0.1222663172029925  1.0000
  H   H10       1.0  0.4627060207674702  0.2603228144645513  0.622267894666308  1.0000
  H   H11       1.0  0.1833774086308964  0.6507600360547771  0.7463111019569338  1.0000
  H   H12       1.0  0.816622868937543  0.349234647829853  0.24631260650116354  1.0000
  H   H13       1.0  0.7543738573929274  0.7200606630627037  0.8615604183867231  1.0000
  H   H14       1.0  0.24561846112413116  0.2799325448907554  0.3615568761353244  1.0000
  H   H15       1.0  0.28024190486893724  0.9202350620348128  0.9020888077126301  1.0000
  H   H16       1.0  0.7197588458654708  0.07976822485839821  0.40208752141984405  1.0000
  H   H17       1.0  0.3102387223269574  0.6528981765383223  0.9647190749343009  1.0000
  H   H18       1.0  0.6897560198080868  0.3471015257543898  0.4647150738730516  1.0000
  C   C1        1.0  0.8449835579931956  0.6936829436635393  0.6285955285478407  1.0000
  C   C2        1.0  0.1550250003496814  0.3063222790520968  0.1285912367618423  1.0000
  C   C3        1.0  0.0652376985226439  0.751519476257798  0.721356959423808  1.0000
  C   C4        1.0  0.9347553103465388  0.24847640390587608  0.22135869612543496  1.0000
  C   C5        1.0  0.9005664237603952  0.8105015629793827  0.8308415540353735  1.0000
  C   C6        1.0  0.09942070351546309  0.18949738801919844  0.33084441988251  1.0000
  C   C7        1.0  0.09148033041005732  0.8599005315100855  0.937077813115138  1.0000
  C   C8        1.0  0.9085172754761359  0.14009472668301023  0.4370796221887331  1.0000
  C   C9        1.0  0.19144115721967833  0.7327120516029738  0.020424397355803595  1.0000
  C   C10       1.0  0.8085520601577513  0.2672844129592207  0.520420370904418  1.0000
  C   C11       1.0  0.9364174600919456  0.6417467589385737  0.07322689245332009  1.0000
  C   C12       1.0  0.06358421494258688  0.35824956162835514  0.573231588661386  1.0000
  O   O1        1.0  0.689906699460181  0.5866539561658187  0.6564884336798116  1.0000
  O   O2        1.0  0.3101027856074622  0.41334665881100824  0.15649506300889016  1.0000
  O   O3        1.0  0.8216642549986232  0.7636331981988109  0.5209033905099787  1.0000
  O   O4        1.0  0.17833323724482844  0.236364401697884  0.0209040027516139  1.0000
  O   O5        1.0  0.2662050564053756  0.8608164713381258  0.6773418498392301  1.0000
  O   O6        1.0  0.7337903594780073  0.139179539497384  0.17734416408147513  1.0000
  O   O7        1.0  0.751598765883365  0.9433128033370719  0.7956845231997602  1.0000
  O   O8        1.0  0.2483957018572696  0.056694181571707206  0.2956870231385906  1.0000
  O   O9        1.0  0.9359641236504145  0.9681181998911226  0.0077989488175589  1.0000
  O   O10       1.0  0.06402868448111579  0.0318805647444691  0.5078008197880236  1.0000
  O   O11       1.0  0.3703118471568416  0.8022015418057011  0.10924603792638979  1.0000
  O   O12       1.0  0.6296957106877626  0.1977992083564573  0.6092444779212514  1.0000
  O   O13       1.0  0.8572787863044055  0.669058960978596  0.18188205827399168  1.0000
  O   O14       1.0  0.1427325791894702  0.3309596930297688  0.6818646519816767  1.0000
  O   O15       1.0  0.8173832835466329  0.5513102443705051  0.9990450254422141  1.0000
  O   O16       1.0  0.182625994058526  0.4487006937001112  0.49903421174057866  1.0000
