data_image0
_chemical_formula_structural       Cu2H16C24N8O4
_chemical_formula_sum              "Cu2 H16 C24 N8 O4"
_cell_length_a       6.33180539000661
_cell_length_b       8.461861369051883
_cell_length_c       11.587697838047067
_cell_angle_alpha    109.13610209638037
_cell_angle_beta     90.00015688476716
_cell_angle_gamma    89.99995078153938

_space_group_name_H-M_alt    "P 1"
_space_group_IT_number       1

loop_
  _space_group_symop_operation_xyz
  'x, y, z'

loop_
  _atom_site_type_symbol
  _atom_site_label
  _atom_site_symmetry_multiplicity
  _atom_site_fract_x
  _atom_site_fract_y
  _atom_site_fract_z
  _atom_site_occupancy
  Cu  Cu1       1.0  0.1427947496775985  0.5128304515977077  0.010919598033211674  1.0000
  Cu  Cu2       1.0  0.6427998105814297  0.4871660443318362  0.9890798601489124  1.0000
  H   H1        1.0  0.6108003540538363  0.8035301162072912  0.7658511946684855  1.0000
  H   H2        1.0  0.11080297857287041  0.19647638163070275  0.23414800702247623  1.0000
  H   H3        1.0  0.5927339280112847  0.8698436314018496  0.5732068104247645  1.0000
  H   H4        1.0  0.09272805378149229  0.13016536669026388  0.4267920954414349  1.0000
  H   H5        1.0  0.18386303432667003  0.6121812036386133  0.45768519475176117  1.0000
  H   H6        1.0  0.683866078077152  0.3878165378999087  0.5423128990714474  1.0000
  H   H7        1.0  0.20229744534754704  0.5509499178111597  0.6520047210981019  1.0000
  H   H8        1.0  0.7022979296139411  0.4490415646317133  0.3479901846113549  1.0000
  H   H9        1.0  0.6987401729094954  0.0148760351989594  0.45635494727792997  1.0000
  H   H10       1.0  0.198746644992049  0.9851204652741788  0.5436471892771166  1.0000
  H   H11       1.0  0.6934031224567576  0.06663020362468332  0.25594410000837087  1.0000
  H   H12       1.0  0.19341217351289694  0.933372537107708  0.7440534739841524  1.0000
  H   H13       1.0  0.8745954935630564  0.8648970939999219  0.07708224600084182  1.0000
  H   H14       1.0  0.37459828038009846  0.13509814436797282  0.9229172785561915  1.0000
  H   H15       1.0  0.033831171776569094  0.5554159907761476  0.2753373673158138  1.0000
  H   H16       1.0  0.5338287055551164  0.4445830059715946  0.7246607886722246  1.0000
  C   C1        1.0  0.9123954702775948  0.6246448799822134  0.8342502631503592  1.0000
  C   C2        1.0  0.412389698303123  0.3753566117614754  0.16575081096767263  1.0000
  C   C3        1.0  0.9065895666145423  0.6711612161560793  0.7203407000778483  1.0000
  C   C4        1.0  0.4065970142822195  0.32883902281075456  0.2796592034205504  1.0000
  C   C5        1.0  0.7354329129146038  0.7621221868467744  0.6977212796342442  1.0000
  C   C6        1.0  0.2354342398795524  0.23788556855345183  0.3022827333848213  1.0000
  C   C7        1.0  0.7267794985026156  0.7994797945670697  0.5896536588004366  1.0000
  C   C8        1.0  0.22677821515640764  0.20052670813845452  0.41034917911008517  1.0000
  C   C9        1.0  0.8853738914336234  0.7448083705975324  0.5003514748504047  1.0000
  C   C10       1.0  0.38537771500710244  0.2551968746013601  0.4996504508817878  1.0000
  C   C11       1.0  0.0567335532135402  0.6541879324431079  0.5242197210070643  1.0000
  C   C12       1.0  0.5567379026728148  0.34581857105252584  0.4757811226368532  1.0000
  C   C13       1.0  0.0681950150326074  0.6194347839157291  0.6334765712598909  1.0000
  C   C14       1.0  0.5681988130734226  0.3805667115774727  0.36652137133869195  1.0000
  C   C15       1.0  0.8724073131229559  0.782112811720282  0.38463807812091483  1.0000
  C   C16       1.0  0.3724164591706511  0.21788492849575655  0.6153620390586666  1.0000
  C   C17       1.0  0.7714676067901252  0.9256322592398191  0.3760028178492334  1.0000
  C   C18       1.0  0.2714721969856342  0.0743642309366734  0.623995979140382  1.0000
  C   C19       1.0  0.7695389691871027  0.9559218532457197  0.26500076205557127  1.0000
  C   C20       1.0  0.2695409560066793  0.04408088939842969  0.7349986585698006  1.0000
  C   C21       1.0  0.8694739493767258  0.8428051899926319  0.16449650500020851  1.0000
  C   C22       1.0  0.3694699833264963  0.15719755182747974  0.8355039361986202  1.0000
  C   C23       1.0  0.9616470626606883  0.6731849637500957  0.2770585819306461  1.0000
  C   C24       1.0  0.4616487141243937  0.3268152756838488  0.72294227159108  1.0000
  N   N1        1.0  0.9617462929352173  0.7023628567012069  0.17014628584150424  1.0000
  N   N2        1.0  0.4617421619132145  0.2976373827299668  0.8298545678316814  1.0000
  N   N3        1.0  0.407376501757085  0.6538631516286415  0.0511791833714597  1.0000
  N   N4        1.0  0.9073767729021328  0.34612958401088173  0.9488197966599118  1.0000
  N   N5        1.0  0.4074679902472269  0.7863989891186095  0.031181632818970673  1.0000
  N   N6        1.0  0.9074700658375574  0.2135950015130277  0.9688193723344442  1.0000
  N   N7        1.0  0.4080285538616907  0.9154997656871728  0.016635258086814934  1.0000
  N   N8        1.0  0.9080371426942974  0.0844954778719469  0.9833669094557324  1.0000
  O   O1        1.0  0.7337624931306124  0.6166727633020699  0.8828008659077184  1.0000
  O   O2        1.0  0.23375648347820993  0.38332623384678044  0.1172001948042833  1.0000
  O   O3        1.0  0.0926909738888071  0.596003521987136  0.8717702325643445  1.0000
  O   O4        1.0  0.5926873035091661  0.4039992318983111  0.12823150046239115  1.0000
