data_image0
_chemical_formula_structural       Zn2H44C68N8O8
_chemical_formula_sum              "Zn2 H44 C68 N8 O8"
_cell_length_a       11.746808746095105
_cell_length_b       11.746798510960508
_cell_length_c       12.442464359883754
_cell_angle_alpha    65.94145970683402
_cell_angle_beta     65.94185936051362
_cell_angle_gamma    67.28647366557583

_space_group_name_H-M_alt    "P 1"
_space_group_IT_number       1

loop_
  _space_group_symop_operation_xyz
  'x, y, z'

loop_
  _atom_site_type_symbol
  _atom_site_label
  _atom_site_symmetry_multiplicity
  _atom_site_fract_x
  _atom_site_fract_y
  _atom_site_fract_z
  _atom_site_occupancy
  Zn  Zn1       1.0  0.417484677462447  0.5825146018358042  0.7500009694805314  1.0000
  Zn  Zn2       1.0  0.5825156763487059  0.417484845733874  0.249998014349103  1.0000
  H   H1        1.0  0.8684040238828886  0.5968169537505049  0.7046100244728136  1.0000
  H   H2        1.0  0.4031801774179655  0.1315924256509788  0.7953926642292827  1.0000
  H   H3        1.0  0.13159304614859482  0.403180666590984  0.29539007967117215  1.0000
  H   H4        1.0  0.5968199234934489  0.868407966482202  0.20460847049646003  1.0000
  H   H5        1.0  0.9614723218384001  0.7066176674109953  0.7344649904622147  1.0000
  H   H6        1.0  0.2933766721714761  0.038525692252001406  0.7655397183539209  1.0000
  H   H7        1.0  0.03852684188485261  0.2933789233893762  0.2655363205988976  1.0000
  H   H8        1.0  0.7066229673455311  0.9614728064185415  0.23446069535730638  1.0000
  H   H9        1.0  0.13318099690272334  0.6851386558086007  0.8112954167275391  1.0000
  H   H10       1.0  0.31485083014347753  0.8668166411605822  0.6887120975517576  1.0000
  H   H11       1.0  0.8668181536282233  0.3148540947720377  0.18870734498446504  1.0000
  H   H12       1.0  0.6851506861639223  0.1331818085511429  0.3112876280616915  1.0000
  H   H13       1.0  0.4198186293506012  0.6113695835263967  0.49339979278080653  1.0000
  H   H14       1.0  0.3886318182660774  0.5801744075849199  0.0066041015463725004  1.0000
  H   H15       1.0  0.5801786719816066  0.38862707064030394  0.5066005880136828  1.0000
  H   H16       1.0  0.6113713291316432  0.41982494493525724  0.9933962776832033  1.0000
  H   H17       1.0  0.2592880065183536  0.6274910289728126  0.4051257797404729  1.0000
  H   H18       1.0  0.3725088491897496  0.7407050404462366  0.09487896741740803  1.0000
  H   H19       1.0  0.7407078866175356  0.3725075748191101  0.5948752009841057  1.0000
  H   H20       1.0  0.6274922045162017  0.2592953416150649  0.9051202048950415  1.0000
  H   H21       1.0  0.09722088532678443  0.7250232256986492  0.32617788459207026  1.0000
  H   H22       1.0  0.2749740844774991  0.9027769304048404  0.17382607257075483  1.0000
  H   H23       1.0  0.9027778085953528  0.27497529024753226  0.6738236823502534  1.0000
  H   H24       1.0  0.7250253081324022  0.09722634584517924  0.8261758505678928  1.0000
  H   H25       1.0  0.7280260318172723  0.66116456969025  0.411772956689745  1.0000
  H   H26       1.0  0.33883715767523637  0.2719719886002423  0.088226485703558  1.0000
  H   H27       1.0  0.27197433639322827  0.33883489228695396  0.5882244087754813  1.0000
  H   H28       1.0  0.6611622565336861  0.7280313092610555  0.9117730098884778  1.0000
  H   H29       1.0  0.03764593455785103  0.8725490947087734  0.15435411911180813  1.0000
  H   H30       1.0  0.12745207489665938  0.9623522132408554  0.3456484534069304  1.0000
  H   H31       1.0  0.962354383254933  0.12745031684210062  0.8456489106288388  1.0000
  H   H32       1.0  0.8725524794903379  0.0376490154663287  0.6543514936060717  1.0000
  H   H33       1.0  0.07749781103112242  0.9023400658719609  0.934101210612859  1.0000
  H   H34       1.0  0.09766449474508929  0.9225004498844672  0.5658995898357945  1.0000
  H   H35       1.0  0.9224997119880598  0.0976632665406285  0.0659005914413625  1.0000
  H   H36       1.0  0.9023372504489586  0.0775046852769066  0.434100747855183  1.0000
  H   H37       1.0  0.900533034799331  0.619011900435929  0.021468170257307274  1.0000
  H   H38       1.0  0.38099254612492234  0.0994676599085906  0.47852585569066974  1.0000
  H   H39       1.0  0.0994652385123587  0.38099241689459973  0.9785281560043089  1.0000
  H   H40       1.0  0.6190104179557141  0.9005403608371265  0.5214689180400286  1.0000
  H   H41       1.0  0.8474580528318397  0.5810150982648069  0.2455840048131819  1.0000
  H   H42       1.0  0.41898610843976075  0.15254131869819082  0.254411694472374  1.0000
  H   H43       1.0  0.15253997598681932  0.4189863450207695  0.7544134954488229  1.0000
  H   H44       1.0  0.581014727157779  0.8474638697576258  0.7455857505386873  1.0000
  C   C1        1.0  0.6679166152937273  0.5905654243316149  0.6611370923522133  1.0000
  C   C2        1.0  0.40943755766993933  0.33207961462381524  0.8388637076393837  1.0000
  C   C3        1.0  0.3320809161321634  0.409434089472512  0.33886373280629567  1.0000
  C   C4        1.0  0.5905616192456264  0.6679208163962898  0.16113615277083684  1.0000
  C   C5        1.0  0.7877808221993376  0.627243492034019  0.5663580340428994  1.0000
  C   C6        1.0  0.372758757398934  0.21221485434895732  0.9336418877445639  1.0000
  C   C7        1.0  0.21221860041629276  0.3727559872188237  0.4336404846534235  1.0000
  C   C8        1.0  0.6272394667220881  0.7877855867430342  0.06635993507895677  1.0000
  C   C9        1.0  0.8828112446209462  0.6282541866198487  0.6056284242453812  1.0000
  C   C10       1.0  0.3717462196101026  0.11718388973771708  0.8943718689291701  1.0000
  C   C11       1.0  0.11718536280909575  0.3717453660712096  0.394371126597605  1.0000
  C   C12       1.0  0.6282517804098693  0.8828175247328218  0.1056288680616432  1.0000
  C   C13       1.0  0.9940723119900529  0.6660356278094213  0.5199958729319363  1.0000
  C   C14       1.0  0.3339633985938661  0.005924412683249597  0.9800069688807299  1.0000
  C   C15       1.0  0.005926864925513104  0.3339648032106837  0.480003987478284  1.0000
  C   C16       1.0  0.6660346086257789  0.9940770089910417  0.019992958927886634  1.0000
  C   C17       1.0  0.09413990760092625  0.6648939165349788  0.563401140412836  1.0000
  C   C18       1.0  0.3351047738770421  0.9058536776182745  0.9366043791147194  1.0000
  C   C19       1.0  0.9058564613287176  0.3351065951271011  0.4365989429618581  1.0000
  C   C20       1.0  0.6648932189432559  0.09414772964849762  0.0633971670582979  1.0000
  C   C21       1.0  0.061704963166072  0.6830002958514713  0.6783371882425017  1.0000
  C   C22       1.0  0.3169969821035963  0.9382902789374941  0.8216688940387801  1.0000
  C   C23       1.0  0.9382916154652748  0.3169992280245424  0.32166559932930033  1.0000
  C   C24       1.0  0.6830026502137373  0.06170821252928251  0.17833232885465122  1.0000
  C   C25       1.0  0.1582883642993522  0.6708144637947769  0.722113070774441  1.0000
  C   C26       1.0  0.32917991152731213  0.8417064372562921  0.7778937869370777  1.0000
  C   C27       1.0  0.8417082083393624  0.32918122706526287  0.2778903582660418  1.0000
  C   C28       1.0  0.6708206663848912  0.15829203693483856  0.22210628272525676  1.0000
  C   C29       1.0  0.31739550775756  0.6311273992604427  0.5447469961062057  1.0000
  C   C30       1.0  0.36886972264364454  0.6825990080873156  0.9552595212002257  1.0000
  C   C31       1.0  0.6826008407801043  0.3688692649781442  0.45525534710156984  1.0000
  C   C32       1.0  0.6311313238626397  0.3174013667702198  0.04474046029442034  1.0000
  C   C33       1.0  0.22561538635011402  0.6422083389450676  0.4951163621168604  1.0000
  C   C34       1.0  0.35779031489548896  0.7743795563743062  0.004888793385312248  1.0000
  C   C35       1.0  0.7743830834709726  0.35779115037966147  0.504884118992756  1.0000
  C   C36       1.0  0.6422102630167146  0.22561891781682417  0.995111276277022  1.0000
  C   C37       1.0  0.00956407718027925  0.6991932172176617  0.3940511903673071  1.0000
  C   C38       1.0  0.30080583585009185  0.9904330782291028  0.10594976572570397  1.0000
  C   C39       1.0  0.9904350997352793  0.300807213802443  0.6059486700429206  1.0000
  C   C40       1.0  0.6991928712643586  0.009569277936812193  0.8940503505657277  1.0000
  C   C41       1.0  0.9164234116060331  0.6957563528279849  0.35314973268517497  1.0000
  C   C42       1.0  0.30424505707436117  0.08357544038285879  0.1468475582733717  1.0000
  C   C43       1.0  0.08357694940478673  0.3042431019454527  0.6468484419622554  1.0000
  C   C44       1.0  0.6957562411246203  0.9164278157233882  0.8531504400386893  1.0000
  C   C45       1.0  0.804142375680442  0.6614101851389408  0.4404651439137197  1.0000
  C   C46       1.0  0.33859242734113343  0.19585470272280497  0.05953454355351793  1.0000
  C   C47       1.0  0.1958570469351885  0.3385892941139089  0.5595333747826033  1.0000
  C   C48       1.0  0.6614069868677817  0.8041485951384928  0.9404649520385177  1.0000
  C   C49       1.0  0.9393257950036331  0.7224657917408734  0.22041061778942617  1.0000
  C   C50       1.0  0.27753470600843144  0.06067337270430069  0.27959010151656827  1.0000
  C   C51       1.0  0.06067549000304242  0.27753362414564003  0.7795888311735267  1.0000
  C   C52       1.0  0.7224644709071343  0.939327058315804  0.7204097588936523  1.0000
  C   C53       1.0  0.004957543560472313  0.814062489682314  0.1294509960626727  1.0000
  C   C54       1.0  0.1859381478240537  0.995039919173159  0.3705521107143711  1.0000
  C   C55       1.0  0.9950432440534341  0.1859349967227502  0.87055177779677  1.0000
  C   C56       1.0  0.8140656934758398  0.004956534822667908  0.629449098466708  1.0000
  C   C57       1.0  0.02727128065028241  0.8308581925814736  0.005811264858927048  1.0000
  C   C58       1.0  0.16914413184505153  0.9727282375944527  0.4941904493178698  1.0000
  C   C59       1.0  0.9727288130614581  0.16914219234794814  0.9941906790490193  1.0000
  C   C60       1.0  0.8308613681368158  0.027272973837085594  0.5058083444640431  1.0000
  C   C61       1.0  0.928996696995853  0.6747317783522959  0.053844322076649444  1.0000
  C   C62       1.0  0.32527215185429986  0.07100188842824909  0.4461530232485843  1.0000
  C   C63       1.0  0.07100201731826425  0.3252705850173783  0.9461549850325782  1.0000
  C   C64       1.0  0.6747321784316469  0.9290003136574755  0.5538458379317178  1.0000
  C   C65       1.0  0.899253033998825  0.653107969646605  0.17973964007966722  1.0000
  C   C66       1.0  0.3468939467264249  0.10074528151280761  0.32025934480025603  1.0000
  C   C67       1.0  0.10074614291674078  0.3468924613734998  0.8202602203305531  1.0000
  C   C68       1.0  0.6531096764650501  0.8992559788775409  0.6797401370794274  1.0000
  N   N1        1.0  0.28460159914657623  0.6424744330025048  0.6578424475084219  1.0000
  N   N2        1.0  0.3575223448565268  0.7153928305687102  0.8421624941019844  1.0000
  N   N3        1.0  0.7153968718815449  0.3575212305100095  0.3421578658876784  1.0000
  N   N4        1.0  0.642479171450873  0.28460561914302224  0.15783723151146503  1.0000
  N   N5        1.0  0.9918901692760613  0.7621877434319231  0.9667176558762307  1.0000
  N   N6        1.0  0.23781705319049  0.008110447678632204  0.5332804547913527  1.0000
  N   N7        1.0  0.008109230533513303  0.237815540021856  0.033283458080219916  1.0000
  N   N8        1.0  0.7621882154906598  0.9918917299276943  0.46671806234005686  1.0000
  O   O1        1.0  0.5749474287641761  0.6150203283427302  0.6170611848820117  1.0000
  O   O2        1.0  0.3849868626057146  0.4250482422487492  0.8829386986498307  1.0000
  O   O3        1.0  0.425051285549941  0.38498203502694384  0.3829381222272161  1.0000
  O   O4        1.0  0.6150139669991861  0.5749531131910998  0.1170593878299186  1.0000
  O   O5        1.0  0.6621223647429133  0.5416734096542869  0.7726752635756073  1.0000
  O   O6        1.0  0.4583237471682225  0.33787593321807213  0.7273246665689967  1.0000
  O   O7        1.0  0.3378772891734343  0.45832510342377464  0.22732353177121215  1.0000
  O   O8        1.0  0.5416758923487851  0.6621225654524634  0.2726757471422304  1.0000
