data_image0
_chemical_formula_structural       K4H16C56Br4N16O4
_chemical_formula_sum              "K4 H16 C56 Br4 N16 O4"
_cell_length_a       7.959753420711648
_cell_length_b       9.626278726039406
_cell_length_c       18.504453650803136
_cell_angle_alpha    89.99994330860356
_cell_angle_beta     102.3429528145964
_cell_angle_gamma    90.0003268070638

_space_group_name_H-M_alt    "P 1"
_space_group_IT_number       1

loop_
  _space_group_symop_operation_xyz
  'x, y, z'

loop_
  _atom_site_type_symbol
  _atom_site_label
  _atom_site_symmetry_multiplicity
  _atom_site_fract_x
  _atom_site_fract_y
  _atom_site_fract_z
  _atom_site_occupancy
  K   K1        1.0  0.9261532073379186  0.1321656077555033  0.9016913895838243  1.0000
  K   K2        1.0  0.573826742786565  0.6321666236810444  0.09830548645671658  1.0000
  K   K3        1.0  0.07383453129700968  0.8678255677285447  0.09830551340704827  1.0000
  K   K4        1.0  0.42616484748965877  0.3678266294567933  0.901692855605269  1.0000
  H   H1        1.0  0.7237861413940647  0.18019111626134793  0.7310044258412346  1.0000
  H   H2        1.0  0.7762262620795397  0.6801865369811537  0.2690008469952616  1.0000
  H   H3        1.0  0.2762234599801586  0.8198052533873865  0.26899451063673036  1.0000
  H   H4        1.0  0.2237781528937646  0.3198025608881707  0.7310046324473376  1.0000
  H   H5        1.0  0.8732641878931344  0.5928109861694963  0.6755666825208023  1.0000
  H   H6        1.0  0.6267399129324572  0.0928023528417725  0.3244340822497306  1.0000
  H   H7        1.0  0.12673896382191427  0.4071947328688664  0.324434896534477  1.0000
  H   H8        1.0  0.37326199814558697  0.9071898615014006  0.6755598156452365  1.0000
  H   H9        1.0  0.9445494728689778  0.5019256705623009  0.5620601989989353  1.0000
  H   H10       1.0  0.5554411469956476  0.0019216870059680007  0.43793719918439683  1.0000
  H   H11       1.0  0.05544982723736779  0.4980873202295228  0.43793994098574973  1.0000
  H   H12       1.0  0.44455432743500717  0.9980871484900505  0.5620571808475106  1.0000
  H   H13       1.0  0.8058135470670038  0.08729985751025993  0.6187418914661009  1.0000
  H   H14       1.0  0.6941866507443066  0.5872978021182433  0.38125959406952586  1.0000
  H   H15       1.0  0.19419735336865068  0.9127058615506413  0.3812550041884748  1.0000
  H   H16       1.0  0.30580489736949085  0.41270791688934594  0.6187457694256578  1.0000
  C   C1        1.0  0.747428396257355  0.4415195248792969  0.7800797916014942  1.0000
  C   C2        1.0  0.7525703996465366  0.9415253129440799  0.2199235344132475  1.0000
  C   C3        1.0  0.2525708972869793  0.5584737282740095  0.2199214286024969  1.0000
  C   C4        1.0  0.24743405430051982  0.05846794022340868  0.7800754637072558  1.0000
  C   C5        1.0  0.7809246969043997  0.5919058354632514  0.8044686207031118  1.0000
  C   C6        1.0  0.7190755427658786  0.09190722323486261  0.1955312450077926  1.0000
  C   C7        1.0  0.2190733171015893  0.4080905341572318  0.1955313996637855  1.0000
  C   C8        1.0  0.28092762839985136  0.9080901852223207  0.8044670933858737  1.0000
  C   C9        1.0  0.9055437821014108  0.6100480730123863  0.8706093814229446  1.0000
  C   C10       1.0  0.594459162581451  0.11004068577796032  0.12938964529261196  1.0000
  C   C11       1.0  0.0944503900212013  0.38995141307095343  0.12938757954255206  1.0000
  C   C12       1.0  0.40554396638925266  0.8899598391417386  0.8706157145337413  1.0000
  C   C13       1.0  0.6845517834868389  0.6964018952675348  0.7616539155087735  1.0000
  C   C14       1.0  0.8154440112012863  0.1964005410627365  0.23835034419849419  1.0000
  C   C15       1.0  0.3154500886536553  0.3035965520077468  0.23834646370885787  1.0000
  C   C16       1.0  0.18455399630786923  0.8035947897337082  0.7616507563887325  1.0000
  C   C17       1.0  0.0032657029366945003  0.4959883456354461  0.9043110293740781  1.0000
  C   C18       1.0  0.4967371477937164  0.9959820062924577  0.0956865127217341  1.0000
  C   C19       1.0  0.9967220195158928  0.5040173733684483  0.09568857416856248  1.0000
  C   C20       1.0  0.503271138369314  0.0040289068711843  0.9043171651318999  1.0000
  C   C21       1.0  0.947098155880191  0.7380155516502072  0.9071250081995286  1.0000
  C   C22       1.0  0.5528941097007446  0.23800907497638948  0.09287241590314468  1.0000
  C   C23       1.0  0.0528882967521369  0.2619870508842226  0.0928717751751051  1.0000
  C   C24       1.0  0.44710258584020574  0.7619997605124382  0.9071328859495013  1.0000
  C   C25       1.0  0.7136256337726221  0.8394250269301081  0.7761666287203326  1.0000
  C   C26       1.0  0.7863724536839882  0.33942564033573325  0.22383614597534057  1.0000
  C   C27       1.0  0.2863762091375577  0.1605703038715447  0.22383861148886547  1.0000
  C   C28       1.0  0.21361913335648808  0.6605707292706811  0.7761627361970154  1.0000
  C   C29       1.0  0.5538260825276781  0.6642313739173815  0.6990852700270054  1.0000
  C   C30       1.0  0.9461785031890954  0.16422948064293758  0.30091766302566464  1.0000
  C   C31       1.0  0.4461822198430382  0.33577226748759864  0.30091570727525857  1.0000
  C   C32       1.0  0.0538285228572946  0.8357679278224808  0.6990815743288081  1.0000
  C   C33       1.0  0.7928698986014451  0.3929671839640605  0.7118436053567618  1.0000
  C   C34       1.0  0.7071375708589327  0.8929632832488251  0.2881589323145731  1.0000
  C   C35       1.0  0.20713840699053068  0.6070291856802401  0.288156831834911  1.0000
  C   C36       1.0  0.2928668798379022  0.1070289310951296  0.7118406059160662  1.0000
  C   C37       1.0  0.7738168784159924  0.2502276772438705  0.6944119684778582  1.0000
  C   C38       1.0  0.726196023025892  0.7502290281855863  0.3055916917174457  1.0000
  C   C39       1.0  0.22619658434296497  0.7497718088831891  0.3055867867406974  1.0000
  C   C40       1.0  0.27380711892399756  0.24976941909007874  0.6944115076680146  1.0000
  C   C41       1.0  0.817771695793084  0.1979553029705983  0.6311762835587229  1.0000
  C   C42       1.0  0.6822369831388074  0.6979552918861316  0.3688270120470989  1.0000
  C   C43       1.0  0.18223662281428685  0.8020493772599339  0.36882199319263254  1.0000
  C   C44       1.0  0.3177648630541867  0.30205042714629843  0.6311776880524747  1.0000
  C   C45       1.0  0.8776155549300525  0.28955474687347055  0.5834183427398472  1.0000
  C   C46       1.0  0.6223847666997173  0.7895502110411813  0.41658304538361784  1.0000
  C   C47       1.0  0.12238633347244837  0.71045201098854  0.4165793359272669  1.0000
  C   C48       1.0  0.37761709573354807  0.21045758563981554  0.5834189541651041  1.0000
  C   C49       1.0  0.8978353022264256  0.43147462629385563  0.5994118393844657  1.0000
  C   C50       1.0  0.602164725903414  0.9314721024412479  0.4005889045929294  1.0000
  C   C51       1.0  0.10216914851747559  0.5685310927494456  0.4005876988469197  1.0000
  C   C52       1.0  0.39783458391377746  0.06853257776786852  0.5994096150607148  1.0000
  C   C53       1.0  0.8571398453341389  0.4823113538249828  0.6637180683174934  1.0000
  C   C54       1.0  0.6428643887940311  0.9823070621675217  0.3362841203119871  1.0000
  C   C55       1.0  0.14286716449731776  0.517691248753046  0.3362838695882289  1.0000
  C   C56       1.0  0.3571375093084582  0.0176882686427149  0.6637119380239227  1.0000
  Br  Br1       1.0  0.932276835622055  0.21992784267271054  0.49588179438124047  1.0000
  Br  Br2       1.0  0.5677217405410531  0.7199104226643486  0.504115145599016  1.0000
  Br  Br3       1.0  0.0677250560451483  0.7800841093049444  0.5041153441759718  1.0000
  Br  Br4       1.0  0.4322865424007176  0.2801077622599736  0.495889072365216  1.0000
  N   N1        1.0  0.08672191340836118  0.4020570995876156  0.9319649417987746  1.0000
  N   N2        1.0  0.4132687114246991  0.9020535350252249  0.06803097332277017  1.0000
  N   N3        1.0  0.9132645262266834  0.5979423864757082  0.0680340020164607  1.0000
  N   N4        1.0  0.5867293058496159  0.0979490675339179  0.9319685069342752  1.0000
  N   N5        1.0  0.9858284581390889  0.8418168873944301  0.9394978107098807  1.0000
  N   N6        1.0  0.5141722083141076  0.34181132697460737  0.0605068238123678  1.0000
  N   N7        1.0  0.0141669610413331  0.1581753269245851  0.0605057511944054  1.0000
  N   N8        1.0  0.4858193754544189  0.6581777708701111  0.9394925984697835  1.0000
  N   N9        1.0  0.7396987670496954  0.9579766006677773  0.7872382954350313  1.0000
  N   N10       1.0  0.7602783035410283  0.45797191765096557  0.2127592181277436  1.0000
  N   N11       1.0  0.2602863930397632  0.042023924216671595  0.2127594485430038  1.0000
  N   N12       1.0  0.23970299190260388  0.5420213354625504  0.7872392472196664  1.0000
  N   N13       1.0  0.4439931273845588  0.64128771790854  0.6472918459160226  1.0000
  N   N14       1.0  0.056012375556520076  0.14129635980641103  0.35270937636791894  1.0000
  N   N15       1.0  0.5560100177938381  0.35870553525249693  0.3527108133589607  1.0000
  N   N16       1.0  0.9439869375036594  0.8587072815801876  0.6472886031754754  1.0000
  O   O1        1.0  0.6879194041945809  0.3637831802163661  0.8222285934421762  1.0000
  O   O2        1.0  0.8120801618085237  0.8637789375915688  0.17777052277294558  1.0000
  O   O3        1.0  0.3120850530099517  0.636213189420708  0.1777698645683117  1.0000
  O   O4        1.0  0.1879140102706458  0.13620808261545392  0.822226438191862  1.0000
