data_image0
_chemical_formula_structural       Zn2H12C8N16
_chemical_formula_sum              "Zn2 H12 C8 N16"
_cell_length_a       9.489510447716343
_cell_length_b       9.489433072300894
_cell_length_c       9.581491006271559
_cell_angle_alpha    115.47837900651318
_cell_angle_beta     115.47865156815709
_cell_angle_gamma    90.66858650918688

_space_group_name_H-M_alt    "P 1"
_space_group_IT_number       1

loop_
  _space_group_symop_operation_xyz
  'x, y, z'

loop_
  _atom_site_type_symbol
  _atom_site_label
  _atom_site_symmetry_multiplicity
  _atom_site_fract_x
  _atom_site_fract_y
  _atom_site_fract_z
  _atom_site_occupancy
  Zn  Zn1       1.0  0.4793027639377741  0.19597862714147143  0.12156962039615853  1.0000
  Zn  Zn2       1.0  0.1959810858836164  0.47929830799551354  0.6215651271217624  1.0000
  H   H1        1.0  0.6340696878357406  0.3474255226024568  0.5384009787152948  1.0000
  H   H2        1.0  0.34741989620432173  0.6340733656535208  0.03841204108213967  1.0000
  H   H3        1.0  0.5253529353096056  0.30569899841974296  0.6341641524551775  1.0000
  H   H4        1.0  0.30569458521674164  0.5253550202770898  0.13417218289958316  1.0000
  H   H5        1.0  0.5780601147658615  0.5054652027348185  0.6769857064884945  1.0000
  H   H6        1.0  0.5054623411700163  0.5780662537868936  0.17699666811216028  1.0000
  H   H7        1.0  0.1394952286213993  0.0098590020150482  0.9143447261117572  1.0000
  H   H8        1.0  0.00986132927013729  0.13949246939218798  0.4143507727951103  1.0000
  H   H9        1.0  0.06461281968678624  0.8116330222956876  0.8645130725372995  1.0000
  H   H10       1.0  0.8116358743224054  0.06461327048074142  0.3645178227335818  1.0000
  H   H11       1.0  0.057037309204197605  0.8450422207339374  0.6947828862784818  1.0000
  H   H12       1.0  0.8450460861467732  0.05703474440326062  0.19478695135556015  1.0000
  C   C1        1.0  0.5402327102022256  0.3784192825349424  0.5757331799590588  1.0000
  C   C2        1.0  0.37841530961053144  0.5402434598900074  0.07574631464543567  1.0000
  C   C3        1.0  0.2909879041718426  0.8490564397029986  0.8727573641212915  1.0000
  C   C4        1.0  0.8490630285847303  0.2909800524254252  0.37275737187742664  1.0000
  C   C5        1.0  0.38530767110598424  0.34758159514500164  0.4198053189649969  1.0000
  C   C6        1.0  0.34758029362173903  0.3853004986821419  0.9198032216106286  1.0000
  C   C7        1.0  0.1299896351409728  0.8820121554996592  0.8354246014158522  1.0000
  C   C8        1.0  0.8820145671762135  0.12998981385855765  0.335429070758785  1.0000
  N   N1        1.0  0.3209876845992738  0.7060890385618706  0.7937886886459681  1.0000
  N   N2        1.0  0.7060871591568941  0.3209884928282208  0.29378915160472735  1.0000
  N   N3        1.0  0.4333142748243475  0.9569102239254053  0.9908657880137  1.0000
  N   N4        1.0  0.9569160815027046  0.4333165707845269  0.49086441174767254  1.0000
  N   N5        1.0  0.3524001349139212  0.27571379358538195  0.2504709596604897  1.0000
  N   N6        1.0  0.27571917045269606  0.3524080776550208  0.7504862448243729  1.0000
  N   N7        1.0  0.2511053979059169  0.38564846287613364  0.4249989655150727  1.0000
  N   N8        1.0  0.3856514828567228  0.2511185591245635  0.925010011511148  1.0000
  N   N9        1.0  0.134825776322387  0.3357177703961228  0.25630767697943213  1.0000
  N   N10       1.0  0.33572700360045354  0.13483392403504274  0.7563226164144935  1.0000
  N   N11       1.0  0.4840472781909995  0.7285611136525677  0.8646565462590419  1.0000
  N   N12       1.0  0.7285656840690748  0.48404795764596287  0.364659128876717  1.0000
  N   N13       1.0  0.1952361069206034  0.27035535636741775  0.1518848000835362  1.0000
  N   N14       1.0  0.270362197837251  0.19524284121680324  0.6518955619896474  1.0000
  N   N15       1.0  0.5508071082491596  0.8784207249829951  0.9817901682722051  1.0000
  N   N16       1.0  0.8784238648239723  0.5508059226652053  0.4817864651110639  1.0000
