data_image0
_chemical_formula_structural       Zn2H45C55N7O12
_chemical_formula_sum              "Zn2 H45 C55 N7 O12"
_cell_length_a       14.650947035314182
_cell_length_b       16.047306351146545
_cell_length_c       23.719613611397918
_cell_angle_alpha    90.41119737247469
_cell_angle_beta     90.00050629989222
_cell_angle_gamma    89.45912375347662

_space_group_name_H-M_alt    "P 1"
_space_group_IT_number       1

loop_
  _space_group_symop_operation_xyz
  'x, y, z'

loop_
  _atom_site_type_symbol
  _atom_site_label
  _atom_site_symmetry_multiplicity
  _atom_site_fract_x
  _atom_site_fract_y
  _atom_site_fract_z
  _atom_site_occupancy
  Zn  Zn1       1.0  0.4077237678115893  0.5028839137830515  0.4987048572070947  1.0000
  Zn  Zn2       1.0  0.5975659464761877  0.4999692958685457  0.501848124995135  1.0000
  H   H1        1.0  0.4274639911874372  0.7008292748457732  0.05547645566147  1.0000
  H   H2        1.0  0.3993555275530198  0.9222988497955452  0.4405879256515988  1.0000
  H   H3        1.0  0.6353413962287605  0.08154043004775957  0.5424649017551745  1.0000
  H   H4        1.0  0.37897140767164217  0.06548889863243798  0.4527946872019585  1.0000
  H   H5        1.0  0.36389486345658645  0.9425256573382509  0.5416927366275672  1.0000
  H   H6        1.0  0.4461546548320002  0.922599443245474  0.5946343480224954  1.0000
  H   H7        1.0  0.07702026439149279  0.6350364876314314  0.4854143884145969  1.0000
  H   H8        1.0  0.9176701561399838  0.6320560816014263  0.4886465065996362  1.0000
  H   H9        1.0  0.9225151487460791  0.4138678873457449  0.4303873675521431  1.0000
  H   H10       1.0  0.08187503032790029  0.41598651705756845  0.42836185988481645  1.0000
  H   H11       1.0  0.9186018908093344  0.5203394981993056  0.41199788077615546  1.0000
  H   H12       1.0  0.6598781457014481  0.5104802210351947  0.3200144441005932  1.0000
  H   H13       1.0  0.0780501161176872  0.522083888397901  0.4090863347350009  1.0000
  H   H14       1.0  0.9280212772832783  0.44940577907000534  0.5870222911385952  1.0000
  H   H15       1.0  0.08733830032646489  0.4540600431807602  0.5846504853290142  1.0000
  H   H16       1.0  0.9290441071449037  0.3721261932370651  0.5336075485494192  1.0000
  H   H17       1.0  0.0885432160175341  0.3757010508959126  0.5319728670965063  1.0000
  H   H18       1.0  0.9222717995075128  0.6034360912119323  0.56035675069257  1.0000
  H   H19       1.0  0.0816568292363016  0.6069976166241272  0.557232564591267  1.0000
  H   H20       1.0  0.5433251246952011  0.2950458289682558  0.9470152870395835  1.0000
  H   H21       1.0  0.5589237392781001  0.2989210244574421  0.053450959646788504  1.0000
  H   H22       1.0  0.6357528023319076  0.5055619781855893  0.7897590770405573  1.0000
  H   H23       1.0  0.367619949343343  0.5030381919374348  0.3220275581451091  1.0000
  H   H24       1.0  0.6428941970402988  0.505508661269168  0.6838955744629587  1.0000
  H   H25       1.0  0.35191882824151577  0.48344592587702806  0.6757314105697177  1.0000
  H   H26       1.0  0.3439536796606575  0.48254605468472517  0.7816551265494239  1.0000
  H   H27       1.0  0.6585164398756119  0.5110905129324763  0.2140173128414062  1.0000
  H   H28       1.0  0.34036875934862815  0.0728623703291689  0.6156408734633487  1.0000
  H   H29       1.0  0.22774433735803257  0.1262239700810213  0.5601277947092171  1.0000
  H   H30       1.0  0.2684575849270984  0.043000197846040984  0.5166289698096449  1.0000
  H   H31       1.0  0.30478517207850325  0.14787206890198948  0.5048862889219805  1.0000
  H   H32       1.0  0.552309695600961  0.016682689902069097  0.6173845622796819  1.0000
  H   H33       1.0  0.5848010564609608  0.16887594144589704  0.6043033215957081  1.0000
  H   H34       1.0  0.3651829819446846  0.5028727350913513  0.21612072572501972  1.0000
  H   H35       1.0  0.5610089782522463  0.13901501947494666  0.6752362409880348  1.0000
  H   H36       1.0  0.47432378919748425  0.18578572189773718  0.6331036098634897  1.0000
  H   H37       1.0  0.37724123113678587  0.7590712668989493  0.9782920677301803  1.0000
  H   H38       1.0  0.3004494053941471  0.6584276510804511  0.8903183076766794  1.0000
  H   H39       1.0  0.37536754557380897  0.7330353815165509  0.861508702204837  1.0000
  H   H40       1.0  0.2813139689566951  0.7663958874569656  0.9052803965300242  1.0000
  H   H41       1.0  0.4839775114203987  0.07890616530228557  0.4185735723571042  1.0000
  H   H42       1.0  0.6263531580856068  0.0670352837058061  0.46908108957104844  1.0000
  H   H43       1.0  0.5131165304020655  0.9349857972860247  0.41764459891867745  1.0000
  H   H44       1.0  0.6431995491660202  0.9242545961460065  0.48719142481821365  1.0000
  H   H45       1.0  0.6202416535165368  0.9368603404842015  0.5596087392604048  1.0000
  C   C1        1.0  0.49987129517414536  0.6639070838575021  0.5047698995056679  1.0000
  C   C2        1.0  0.4984162008621169  0.41810404748351  0.8792720815982165  1.0000
  C   C3        1.0  0.5738572526438971  0.5005965592423178  0.7645148428239709  1.0000
  C   C4        1.0  0.5019940634577438  0.49652426849637255  0.6106033066635774  1.0000
  C   C5        1.0  0.5778798084299197  0.5006534693718052  0.705877596948028  1.0000
  C   C6        1.0  0.4977853306442626  0.49489293425110487  0.6738760538241593  1.0000
  C   C7        1.0  0.41347777447416684  0.4883403279930007  0.7012693622146317  1.0000
  C   C8        1.0  0.409170885440055  0.48799657236667554  0.7599020381175946  1.0000
  C   C9        1.0  0.4893898676551913  0.49446339698585  0.7911855355816471  1.0000
  C   C10       1.0  0.5950234820721931  0.5094887346240283  0.23791832730631768  1.0000
  C   C11       1.0  0.5958670383995325  0.5091763621807741  0.2966591539901273  1.0000
  C   C12       1.0  0.443939970546964  0.6447845212201814  0.0309274446115211  1.0000
  C   C13       1.0  0.5138676011774876  0.5068497879231088  0.3269378867335533  1.0000
  C   C14       1.0  0.4307149851991099  0.5048433047786318  0.2978114517162496  1.0000
  C   C15       1.0  0.4294861047264788  0.5046410580907474  0.2391956841681235  1.0000
  C   C16       1.0  0.4936123703293944  0.3392632882306826  0.4980029267121324  1.0000
  C   C17       1.0  0.5116762660553248  0.5069873469177608  0.2096252445909457  1.0000
  C   C18       1.0  0.4640999255045557  0.9529237712714077  0.45077087661445603  1.0000
  C   C19       1.0  0.5964241735327889  0.9546828807703062  0.5173308808533079  1.0000
  C   C20       1.0  0.5954312459603343  0.05018273863230148  0.509604824226969  1.0000
  C   C21       1.0  0.4512936557470368  0.0483199297224743  0.4545068792455922  1.0000
  C   C22       1.0  0.49378754558464516  0.24946265435699633  0.5006005660132686  1.0000
  C   C23       1.0  0.4303876050886474  0.6442402319676716  0.9712254497952343  1.0000
  C   C24       1.0  0.4992330313796386  0.9201575237837004  0.5080867795205961  1.0000
  C   C25       1.0  0.4957315172979477  0.08414431454790619  0.5092542487531233  1.0000
  C   C26       1.0  0.44691956051574516  0.0502934015065293  0.56466889472361  1.0000
  C   C27       1.0  0.4346313772809793  0.9550247600404658  0.5545507996527306  1.0000
  C   C28       1.0  0.4940092318623002  0.17420472670106332  0.5061311384995903  1.0000
  C   C29       1.0  0.49989951688090156  0.8297552058549935  0.5079493600104854  1.0000
  C   C30       1.0  0.5140939116083202  0.5059658252003769  0.3902573737414913  1.0000
  C   C31       1.0  0.5004732089959063  0.7540015557780958  0.5069340062807512  1.0000
  C   C32       1.0  0.9477151119118827  0.5870522771965908  0.5181304052395178  1.0000
  C   C33       1.0  0.053202758336631496  0.5891983848802479  0.5160974428887144  1.0000
  C   C34       1.0  0.4582687278443771  0.5722888855684188  0.9402200640396501  1.0000
  C   C35       1.0  0.9481349187193757  0.475737826449567  0.44195145789026913  1.0000
  C   C36       1.0  0.053680404039908994  0.47724339474011385  0.44028508398938027  1.0000
  C   C37       1.0  0.914889188988866  0.49840675266974444  0.5022117458190891  1.0000
  C   C38       1.0  0.09052939984943716  0.5018474983568237  0.49926449242160936  1.0000
  C   C39       1.0  0.059544938301471  0.4369394015952252  0.5432132320488563  1.0000
  C   C40       1.0  0.9539838798984448  0.43444971755017997  0.5446878595965572  1.0000
  C   C41       1.0  0.18933652579938348  0.5039812891033363  0.49763005828593526  1.0000
  C   C42       1.0  0.816049946613269  0.4969677285147965  0.5036530193455988  1.0000
  C   C43       1.0  0.5293355679401442  0.42935615529447796  0.12138553962799391  1.0000
  C   C44       1.0  0.48253192258707855  0.5802574658244453  0.1218620995867212  1.0000
  C   C45       1.0  0.4844737436609137  0.49900776207080355  0.9701744641379904  1.0000
  C   C46       1.0  0.47373283994934207  0.5756736291122309  0.0595230613889584  1.0000
  C   C47       1.0  0.49246609059262875  0.5000256254370397  0.030035056391682198  1.0000
  C   C48       1.0  0.5199765370710026  0.4277761498305638  0.05916712479398  1.0000
  C   C49       1.0  0.28818388329890604  0.10231309614898268  0.5376175163724568  1.0000
  C   C50       1.0  0.532540415437481  0.14242734128359297  0.6324695644271898  1.0000
  C   C51       1.0  0.33399918923110045  0.7183087475137523  0.8986079105448681  1.0000
  C   C52       1.0  0.5044340995601644  0.42321664319974417  0.9413978427040207  1.0000
  C   C53       1.0  0.529917962356862  0.35198189794673596  0.9711184945864701  1.0000
  C   C54       1.0  0.5382995068032272  0.35391864797760764  0.029783516826391597  1.0000
  C   C55       1.0  0.4729775772601243  0.5731149606900202  0.8789793719970403  1.0000
  N   N1        1.0  0.5089791991634769  0.5059741468625064  0.1487544333384747  1.0000
  N   N2        1.0  0.4842406653609358  0.49457825078528117  0.8520027495937798  1.0000
  N   N3        1.0  0.2682683207130978  0.5060273526812364  0.4963146732931847  1.0000
  N   N4        1.0  0.7370494685436668  0.49636967112238023  0.504553164998363  1.0000
  N   N5        1.0  0.3622388922756413  0.09537487364879377  0.5779755263961022  1.0000
  N   N6        1.0  0.5008561429213002  0.059577357923451785  0.6162585611298397  1.0000
  N   N7        1.0  0.3885076783138146  0.7130406630949506  0.949595472333641  1.0000
  O   O1        1.0  0.42165331820784496  0.6298807833233439  0.5044431611940041  1.0000
  O   O2        1.0  0.4672778455782236  0.6444391078771047  0.1490173026398054  1.0000
  O   O3        1.0  0.47956182915168444  0.6372703929465044  0.850913133368337  1.0000
  O   O4        1.0  0.5077903527765527  0.35271295821246446  0.8523224843303226  1.0000
  O   O5        1.0  0.5773841993932081  0.6272216911029744  0.5031961964068046  1.0000
  O   O6        1.0  0.426033030647254  0.49525465929744417  0.5844682281477134  1.0000
  O   O7        1.0  0.5808122420378297  0.499361284006511  0.5881085436452125  1.0000
  O   O8        1.0  0.4159115555940859  0.37522730471145144  0.4943012682639179  1.0000
  O   O9        1.0  0.5713390925951883  0.37438096573552565  0.5001504531223375  1.0000
  O   O10       1.0  0.4362861912382813  0.5085334632212833  0.41422347104783347  1.0000
  O   O11       1.0  0.5912263519653962  0.5025833600444967  0.4149135618124902  1.0000
  O   O12       1.0  0.5528646477112529  0.3681414768719264  0.1487775067448283  1.0000
