data_image0
_chemical_formula_structural       Zn2H22C54N2O44
_chemical_formula_sum              "Zn2 H22 C54 N2 O44"
_cell_length_a       14.597175482392775
_cell_length_b       15.95807923551353
_cell_length_c       16.899394839430776
_cell_angle_alpha    90.10244767808817
_cell_angle_beta     96.46512935637111
_cell_angle_gamma    89.45033834007843

_space_group_name_H-M_alt    "P 1"
_space_group_IT_number       1

loop_
  _space_group_symop_operation_xyz
  'x, y, z'

loop_
  _atom_site_type_symbol
  _atom_site_label
  _atom_site_symmetry_multiplicity
  _atom_site_fract_x
  _atom_site_fract_y
  _atom_site_fract_z
  _atom_site_occupancy
  Zn  Zn1       1.0  0.3999235571355727  0.496439683893044  0.5079211768201619  1.0000
  Zn  Zn2       1.0  0.5947564920068018  0.500743486909002  0.49340153987336094  1.0000
  H   H1        1.0  0.5079570665985855  0.7473473992299731  0.3471900942111788  1.0000
  H   H2        1.0  0.32067708441292814  0.6419912613549457  0.9453623775806508  1.0000
  H   H3        1.0  0.29630942755720474  0.3557219117553458  0.9895372855736331  1.0000
  H   H4        1.0  0.7152285121959777  0.6064655813436916  0.016727517585785296  1.0000
  H   H5        1.0  0.4362846425442016  0.28966992907506744  0.8516446451338527  1.0000
  H   H6        1.0  0.5709100191395677  0.6797406470834064  0.14302468037610083  1.0000
  H   H7        1.0  0.7173168929496042  0.13834144997733946  0.6644872606443999  1.0000
  H   H8        1.0  0.37058667439779924  0.8632101102304406  0.285411752162169  1.0000
  H   H9        1.0  0.4910091918366391  0.9843736087661626  0.687780820158004  1.0000
  H   H10       1.0  0.5593155573515817  0.9931895164960026  0.32431442762339213  1.0000
  H   H11       1.0  0.7178278054578727  0.971014736925227  0.48709285539138875  1.0000
  H   H12       1.0  0.4624753101985632  0.25448921236503713  0.6315993336654703  1.0000
  H   H13       1.0  0.28693331780661413  0.029867088614317108  0.46235416221622233  1.0000
  H   H14       1.0  0.8182210575672216  0.5789392226683816  0.6956923994384142  1.0000
  H   H15       1.0  0.17331371949388338  0.41812847172857204  0.30805768206330003  1.0000
  H   H16       1.0  0.009784674803697203  0.3939148769889087  0.6578022662513379  1.0000
  H   H17       1.0  0.984349514541151  0.6066031551360712  0.3469535511387819  1.0000
  H   H18       1.0  0.16960770532480748  0.7268130557891723  0.5648798093551337  1.0000
  H   H19       1.0  0.822274977111711  0.27527038875559373  0.44105285153704454  1.0000
  H   H20       1.0  0.6471248039510584  0.6585297858108845  0.6659938199560076  1.0000
  H   H21       1.0  0.3362367729469327  0.3263120036648033  0.3371059671090394  1.0000
  H   H22       1.0  0.644894319099393  0.37343537800419574  0.14961390579582465  1.0000
  C   C1        1.0  0.5042935514164953  0.33919120354127597  0.47414137333944967  1.0000
  C   C2        1.0  0.5887341948206811  0.9668702252965746  0.5014339221700014  1.0000
  C   C3        1.0  0.5037052647286019  0.08508358095608057  0.492792198579224  1.0000
  C   C4        1.0  0.5013504772273693  0.9128853986776804  0.5116592204544619  1.0000
  C   C5        1.0  0.5060266094877549  0.17266977697058644  0.483031298845198  1.0000
  C   C6        1.0  0.49887433739836246  0.8250822150602134  0.5180000466082719  1.0000
  C   C7        1.0  0.0170289189661545  0.43520595501988174  0.5547028013975182  1.0000
  C   C8        1.0  0.9772900831817068  0.5650694559127346  0.45005147970869086  1.0000
  C   C9        1.0  0.9605377490067114  0.5154192515605232  0.5716324990593196  1.0000
  C   C10       1.0  0.0337027883881831  0.4848388452019067  0.4330697218763719  1.0000
  C   C11       1.0  0.9616461670375713  0.4277321435564616  0.4675695384512296  1.0000
  C   C12       1.0  0.49631684245568414  0.6584346793725757  0.5238394455162523  1.0000
  C   C13       1.0  0.032617738568312404  0.5725303481133608  0.5371994688424523  1.0000
  C   C14       1.0  0.9028911900043184  0.5076967440363944  0.4875358385255596  1.0000
  C   C15       1.0  0.09147667164873502  0.492601583611922  0.5171681973216382  1.0000
  C   C16       1.0  0.44645570357076286  0.5282886612165498  0.3511675641497051  1.0000
  C   C17       1.0  0.5430845849518421  0.4640325751026495  0.6492916224580515  1.0000
  C   C18       1.0  0.8059613788905083  0.5129296857680714  0.47641819251173717  1.0000
  C   C19       1.0  0.1884812372230442  0.48722440000335604  0.5271628852372745  1.0000
  C   C20       1.0  0.4366731983402162  0.5333278090589673  0.2613862054916326  1.0000
  C   C21       1.0  0.5574929276470189  0.45062956346534133  0.7383650657282816  1.0000
  C   C22       1.0  0.4837077180201632  0.5950975397012712  0.22215851974004872  1.0000
  C   C23       1.0  0.470934377074947  0.9815434582396848  0.5748721810363409  1.0000
  C   C24       1.0  0.5149500962512974  0.3839286520380369  0.7748018170876779  1.0000
  C   C25       1.0  0.49549289289547727  0.5842842778921877  0.14076823216301906  1.0000
  C   C26       1.0  0.5113191262123848  0.3853957184100025  0.858265110154264  1.0000
  C   C27       1.0  0.45279317610070535  0.5165783050123665  0.0971963908255162  1.0000
  C   C28       1.0  0.5556015453492265  0.45002645146742287  0.9049801395552495  1.0000
  C   C29       1.0  0.3971205764645802  0.462294189911667  0.13470608013091123  1.0000
  C   C30       1.0  0.6066664763874955  0.5094121926391324  0.8691252067935908  1.0000
  C   C31       1.0  0.39098361040308305  0.46930061368905035  0.21725398198801582  1.0000
  C   C32       1.0  0.6061384785106158  0.5107939435230763  0.7855887050958617  1.0000
  C   C33       1.0  0.4712713385998839  0.5058816867440257  0.013079527973346217  1.0000
  C   C34       1.0  0.5327404256514614  0.017718366389516408  0.43139558753155444  1.0000
  C   C35       1.0  0.5394635434520724  0.4561759957131458  0.990188240058551  1.0000
  C   C36       1.0  0.5180788945738116  0.6734054047547244  0.2602228604293658  1.0000
  C   C37       1.0  0.4733840465227813  0.3115800313100152  0.7310191177626495  1.0000
  C   C38       1.0  0.07248391325318689  0.6502295252780003  0.5758382904942538  1.0000
  C   C39       1.0  0.9210327297151509  0.3500381951894624  0.4296038177236739  1.0000
  C   C40       1.0  0.6611157963868804  0.5743166810019601  0.7470289585644141  1.0000
  C   C41       1.0  0.33087424889120604  0.4108604354744827  0.2571615637962524  1.0000
  C   C42       1.0  0.6025329417726014  0.4006708391284662  0.04353278665114151  1.0000
  C   C43       1.0  0.40840654666220644  0.5542536795324011  0.9523883547702287  1.0000
  C   C44       1.0  0.3508463442373396  0.38954969438582054  0.0915539483161041  1.0000
  C   C45       1.0  0.5582810120718166  0.033850560120591004  0.5641127179996632  1.0000
  C   C46       1.0  0.652604028750872  0.5799289789823945  0.9159804680512169  1.0000
  C   C47       1.0  0.6160737451542316  0.0675027682597857  0.6337598882810271  1.0000
  C   C48       1.0  0.3776001294589193  0.9296010427053005  0.37959443204174204  1.0000
  C   C49       1.0  0.919569732965691  0.5229092253475116  0.6486053683986842  1.0000
  C   C50       1.0  0.0739882456291738  0.4766543916203291  0.35586713088623884  1.0000
  C   C51       1.0  0.44392265198380443  0.9653638454824859  0.44216915074049024  1.0000
  C   C52       1.0  0.5058571051911969  0.24851088077576114  0.4751831798021727  1.0000
  C   C53       1.0  0.4960769297996849  0.7490650272562435  0.5234673307379512  1.0000
  C   C54       1.0  0.41400529547905046  0.030511050094169403  0.5032310176200812  1.0000
  N   N1        1.0  0.7259346977832806  0.5150157737734702  0.46948996134916865  1.0000
  N   N2        1.0  0.2684002980603922  0.48460825604595203  0.5317945249350091  1.0000
  O   O1        1.0  0.42641030295333593  0.3729969848382524  0.48230526189359335  1.0000
  O   O2        1.0  0.4810789047623913  0.694266908900545  0.3268945257768579  1.0000
  O   O3        1.0  0.4229777646968032  0.26049514881349717  0.7604659404636538  1.0000
  O   O4        1.0  0.4973622379951834  0.30138344866000477  0.6571501576209755  1.0000
  O   O5        1.0  0.03440776232856281  0.37305431333849987  0.6082634218202758  1.0000
  O   O6        1.0  0.9596244369346465  0.6272215382505238  0.39644564969085405  1.0000
  O   O7        1.0  0.04504829425574291  0.6842634867711938  0.6333217076509288  1.0000
  O   O8        1.0  0.143664378672149  0.6766878835662383  0.537515474809851  1.0000
  O   O9        1.0  0.9477951678210276  0.3148086172584783  0.3724517990909534  1.0000
  O   O10       1.0  0.8492828764027961  0.32507574083940943  0.46815253842308396  1.0000
  O   O11       1.0  0.7461179726203896  0.5746641864370616  0.757247694946287  1.0000
  O   O12       1.0  0.5755921231916618  0.6235480915499708  0.5260720602052091  1.0000
  O   O13       1.0  0.6088449202286199  0.6263967456564642  0.6990503883326016  1.0000
  O   O14       1.0  0.24613471963072442  0.41601363222682863  0.24594788758683  1.0000
  O   O15       1.0  0.3783941082284912  0.3565530257831  0.3062250695465637  1.0000
  O   O16       1.0  0.6511640743413667  0.34711503435522667  0.0172657543791459  1.0000
  O   O17       1.0  0.6016412583475629  0.41448900412177647  0.12285387554850054  1.0000
  O   O18       1.0  0.3986762371111823  0.5428394995722386  0.8805887512928695  1.0000
  O   O19       1.0  0.35992491267295895  0.6137477988354192  0.9882895711054832  1.0000
  O   O20       1.0  0.34211922483711993  0.32117677049055254  0.12197151387042032  1.0000
  O   O21       1.0  0.3193581394998902  0.40781179396862643  0.014986257480003916  1.0000
  O   O22       1.0  0.6539296465288232  0.6518641882350878  0.8917351929073762  1.0000
  O   O23       1.0  0.5798781450057505  0.3755378714143518  0.46712069762771363  1.0000
  O   O24       1.0  0.6928404361978695  0.5555234952404008  0.9887109097728415  1.0000
  O   O25       1.0  0.46454406767497153  0.3284165898471231  0.8951753572598949  1.0000
  O   O26       1.0  0.5465229232753545  0.636576822503322  0.10224047810717712  1.0000
  O   O27       1.0  0.6049171346497673  0.0496688636536717  0.7028001308836098  1.0000
  O   O28       1.0  0.6835924337438543  0.11866993002252003  0.6144461737216889  1.0000
  O   O29       1.0  0.2938138097907128  0.9394697047254255  0.375804870924185  1.0000
  O   O30       1.0  0.4193791179800215  0.8845592841454246  0.32482543616417575  1.0000
  O   O31       1.0  0.4423886050532886  0.9642473663811799  0.6469659696514827  1.0000
  O   O32       1.0  0.5627877983875679  0.04107576137467111  0.3605584785362695  1.0000
  O   O33       1.0  0.6736506657166499  0.9296114524648188  0.5012374359704738  1.0000
  O   O34       1.0  0.4185156171637274  0.6230460705315154  0.5204267183724627  1.0000
  O   O35       1.0  0.3270124799725451  0.06352695428601152  0.5005944747218437  1.0000
  O   O36       1.0  0.9460118517309793  0.47487358061411566  0.7039803555155759  1.0000
  O   O37       1.0  0.853610988976982  0.579887682286042  0.6468004471051574  1.0000
  O   O38       1.0  0.047623914446433005  0.5244952108281707  0.30032275460848024  1.0000
  O   O39       1.0  0.13904900691714056  0.41879183942160847  0.3574643935485043  1.0000
  O   O40       1.0  0.3746829803880729  0.5190982718852056  0.38585484538464243  1.0000
  O   O41       1.0  0.613612311116647  0.46627342011047546  0.6117623324598613  1.0000
  O   O42       1.0  0.529616722224283  0.5287109702969205  0.3824354493804024  1.0000
  O   O43       1.0  0.45971635044737974  0.4762859590579893  0.6219156783960147  1.0000
  O   O44       1.0  0.5723328906141276  0.7207694028532501  0.23060074553522728  1.0000
