data_image0
_chemical_formula_structural       Cu12H40C56S8I12N16
_chemical_formula_sum              "Cu12 H40 C56 S8 I12 N16"
_cell_length_a       8.217942604001246
_cell_length_b       10.721735064244116
_cell_length_c       21.86991421552814
_cell_angle_alpha    89.99921646555168
_cell_angle_beta     90.00006335120449
_cell_angle_gamma    90.00000461503849

_space_group_name_H-M_alt    "P 1"
_space_group_IT_number       1

loop_
  _space_group_symop_operation_xyz
  'x, y, z'

loop_
  _atom_site_type_symbol
  _atom_site_label
  _atom_site_symmetry_multiplicity
  _atom_site_fract_x
  _atom_site_fract_y
  _atom_site_fract_z
  _atom_site_occupancy
  Cu  Cu1       1.0  0.14591778529582908  0.569303538379998  0.31928517860535516  1.0000
  Cu  Cu2       1.0  0.35407260283634656  0.0693103368294317  0.6807135332370675  1.0000
  Cu  Cu3       1.0  0.6459308125910608  0.9306901278597268  0.18071426930366388  1.0000
  Cu  Cu4       1.0  0.8540726568658812  0.4306948756336198  0.8192886584604149  1.0000
  Cu  Cu5       1.0  0.8540736676728854  0.43069496831208914  0.6807138122031943  1.0000
  Cu  Cu6       1.0  0.6459310186370997  0.9306937658884638  0.319291401794615  1.0000
  Cu  Cu7       1.0  0.3540801099770404  0.06930837877521162  0.8192888367513685  1.0000
  Cu  Cu8       1.0  0.1459212298060919  0.5693045637046908  0.18071307584054344  1.0000
  Cu  Cu9       1.0  0.40116770075229613  0.5793308927108785  0.2500023472579187  1.0000
  Cu  Cu10      1.0  0.09883485624267509  0.0793338415829368  0.750003614240512  1.0000
  Cu  Cu11      1.0  0.9011736326285344  0.9206777226205748  0.25000086351831635  1.0000
  Cu  Cu12      1.0  0.5988347038695991  0.4206769407657943  0.7500012160136718  1.0000
  H   H1        1.0  0.09438675517314718  0.7935926630770498  0.39452706225650047  1.0000
  H   H2        1.0  0.405587821881042  0.29359879510532494  0.6054697083296643  1.0000
  H   H3        1.0  0.5944007676029699  0.7064000651525505  0.105475107968104  1.0000
  H   H4        1.0  0.905595392793941  0.206402691903584  0.8945325045578867  1.0000
  H   H5        1.0  0.9055876618987921  0.2064086416945941  0.6054700995426359  1.0000
  H   H6        1.0  0.5943951131428233  0.7064090384155721  0.39453065419377237  1.0000
  H   H7        1.0  0.40561137181673246  0.29359750877820556  0.8945293698377551  1.0000
  H   H8        1.0  0.09439849387863568  0.7935930166888173  0.10546968700457167  1.0000
  H   H9        1.0  0.9561074490570504  0.8498630014714339  0.4923093297677567  1.0000
  H   H10       1.0  0.5438753310764567  0.3498727923765443  0.5076877312787004  1.0000
  H   H11       1.0  0.45612635297425186  0.6501316292433614  0.0076925318938378985  1.0000
  H   H12       1.0  0.043889591879619196  0.15012865755709023  0.9923120466764599  1.0000
  H   H13       1.0  0.04387305226482138  0.15013830328113903  0.5076892037801243  1.0000
  H   H14       1.0  0.4561136881932483  0.6501341084791863  0.4923112595015765  1.0000
  H   H15       1.0  0.543888220143927  0.3498659446939811  0.992311488663361  1.0000
  H   H16       1.0  0.9561103790409787  0.8498735798296555  0.007690144865655699  1.0000
  H   H17       1.0  0.7744464813100577  0.6893798575841005  0.5428125363049074  1.0000
  H   H18       1.0  0.725555762715466  0.18939762312337646  0.45718512930461924  1.0000
  H   H19       1.0  0.2744521254179871  0.8106090187770434  0.9571881434693236  1.0000
  H   H20       1.0  0.225568692533308  0.3106039850753676  0.04281445881392899  1.0000
  H   H21       1.0  0.22555348960489136  0.3106111876359847  0.4571859972809165  1.0000
  H   H22       1.0  0.2744308228556562  0.8106036816165914  0.5428143187428418  1.0000
  H   H23       1.0  0.7255502792056276  0.1893810936678406  0.04281679160838789  1.0000
  H   H24       1.0  0.7744397963302629  0.6893982523505855  0.9571849892349459  1.0000
  H   H25       1.0  0.7396980451728723  0.4828375139974597  0.4917773469723555  1.0000
  H   H26       1.0  0.7603102935335926  0.982852435805221  0.5082243212282406  1.0000
  H   H27       1.0  0.2396974763558575  0.017149172641943305  0.0082259049995272  1.0000
  H   H28       1.0  0.2603184637654223  0.5171504294175406  0.991773609194325  1.0000
  H   H29       1.0  0.260309226844349  0.5171553965474942  0.5082243873529463  1.0000
  H   H30       1.0  0.23966534038997614  0.017149801631966003  0.4917742123155547  1.0000
  H   H31       1.0  0.76030614511599  0.9828418725007996  0.99177811557702  1.0000
  H   H32       1.0  0.7396863745439715  0.4828518080599127  0.0082221808604857  1.0000
  H   H33       1.0  0.6666381195587975  0.2626434676218282  0.30819434990732464  1.0000
  H   H34       1.0  0.8333458743292397  0.7626410840281038  0.6918055745123863  1.0000
  H   H35       1.0  0.16666000777582468  0.23736373068744143  0.19180201323133153  1.0000
  H   H36       1.0  0.33335472331767596  0.7373636540118795  0.8081955866707914  1.0000
  H   H37       1.0  0.3333521165557371  0.7373643659640481  0.691801440125971  1.0000
  H   H38       1.0  0.16665896398502159  0.23736768219816184  0.30819341626497726  1.0000
  H   H39       1.0  0.833348481082872  0.7626319779896917  0.8081942340949976  1.0000
  H   H40       1.0  0.6666476812986274  0.26263578535271404  0.19180431863525627  1.0000
  C   C1        1.0  0.017386981925071196  0.7267962288391275  0.41847980763652964  1.0000
  C   C2        1.0  0.4826107128949317  0.226800247639467  0.5815151186732948  1.0000
  C   C3        1.0  0.5173972749477045  0.7732002222562148  0.08152050192627767  1.0000
  C   C4        1.0  0.9826122731631912  0.2731919204674682  0.9184839251612756  1.0000
  C   C5        1.0  0.9825996036405157  0.2731994798433491  0.58151598243613  1.0000
  C   C6        1.0  0.5173892580200387  0.7731917302654735  0.4184834149094456  1.0000
  C   C7        1.0  0.4826136476163966  0.2268029478418043  0.9184798606183403  1.0000
  C   C8        1.0  0.017386480904257002  0.7268009901028947  0.08151598016561927  1.0000
  C   C9        1.0  0.9378035664827208  0.7578455256197076  0.4724229497644359  1.0000
  C   C10       1.0  0.5621840777789301  0.2578463622585545  0.5275738056467388  1.0000
  C   C11       1.0  0.43782009910585623  0.7421509685998304  0.027577989868056794  1.0000
  C   C12       1.0  0.0621921984660787  0.2421541568875725  0.9724246080888644  1.0000
  C   C13       1.0  0.06218301908511139  0.24216137526173748  0.5275742120186919  1.0000
  C   C14       1.0  0.43780007409173277  0.742157740548798  0.472424727892637  1.0000
  C   C15       1.0  0.5621883897616796  0.25784473999331686  0.9724242016973998  1.0000
  C   C16       1.0  0.9378077724530767  0.7578434170877844  0.027576668970340296  1.0000
  C   C17       1.0  0.8380061216887141  0.6692326043273411  0.5002152838663676  1.0000
  C   C18       1.0  0.6619961216257407  0.16924169803019853  0.4997857158200316  1.0000
  C   C19       1.0  0.3380228448339507  0.8307628073295849  0.9997867937632774  1.0000
  C   C20       1.0  0.1620028412259842  0.3307496441400204  0.00021201720727499993  1.0000
  C   C21       1.0  0.1619901986844141  0.3307649696219812  0.49978782218875023  1.0000
  C   C22       1.0  0.33799654819316777  0.8307530779160363  0.5002137322502803  1.0000
  C   C23       1.0  0.6619929451304428  0.16923663200984862  0.0002149405421789999  1.0000
  C   C24       1.0  0.8380092981827899  0.6692451318395174  0.9997851446212135  1.0000
  C   C25       1.0  0.819129090426287  0.5535884706397737  0.47217988730029237  1.0000
  C   C26       1.0  0.6808767993269387  0.053597706698482704  0.5278205057967824  1.0000
  C   C27       1.0  0.3191310288320324  0.9464014826360554  0.027819174571021697  1.0000
  C   C28       1.0  0.18087397488892518  0.4464000265949722  0.9721761277397929  1.0000
  C   C29       1.0  0.18086844679700678  0.4464035071939705  0.5278236760227485  1.0000
  C   C30       1.0  0.3191134367908361  0.9464008000064651  0.47217757051318887  1.0000
  C   C31       1.0  0.6808786768816119  0.053590495250006115  0.9721807307612095  1.0000
  C   C32       1.0  0.8191186949253222  0.5536003455056645  0.02782011956784909  1.0000
  C   C33       1.0  0.9062834277819787  0.5286054022774636  0.41863428171725997  1.0000
  C   C34       1.0  0.5937127262829448  0.028606587448763314  0.5813635332096112  1.0000
  C   C35       1.0  0.4062916105513352  0.9713920214445583  0.08136298696024369  1.0000
  C   C36       1.0  0.0937194783107529  0.4713948676037419  0.9186358079813316  1.0000
  C   C37       1.0  0.09370924203306431  0.4714014986107601  0.5813624228179533  1.0000
  C   C38       1.0  0.40627264244201916  0.9713956499436945  0.41863820108033417  1.0000
  C   C39       1.0  0.5937156614639533  0.028606485228955602  0.9186373755990541  1.0000
  C   C40       1.0  0.9062865768461135  0.5286036391537011  0.08135861033857587  1.0000
  C   C41       1.0  0.8759374708828246  0.3847160268711746  0.31133803433392865  1.0000
  C   C42       1.0  0.624058695838734  0.8847183740676102  0.6886619968794747  1.0000
  C   C43       1.0  0.3759508274682233  0.11528652947234971  0.18865932935271693  1.0000
  C   C44       1.0  0.12406633298659389  0.6152844771448329  0.8113381637803057  1.0000
  C   C45       1.0  0.12406250003095211  0.6152852778953248  0.6886595847196302  1.0000
  C   C46       1.0  0.37594614247819885  0.11528759407822518  0.3113388229037993  1.0000
  C   C47       1.0  0.6240649624906779  0.8847101118641804  0.8113387469686868  1.0000
  C   C48       1.0  0.8759397221755805  0.3847065680820164  0.18865991255760403  1.0000
  C   C49       1.0  0.7557650115278987  0.3141364464432144  0.2816092742080157  1.0000
  C   C50       1.0  0.7442311526845059  0.8141398312227183  0.7183898522433265  1.0000
  C   C51       1.0  0.25578697697888225  0.18585583798713406  0.2183916981087606  1.0000
  C   C52       1.0  0.24422288487840393  0.685851840234662  0.7816007556166511  1.0000
  C   C53       1.0  0.24422157405250292  0.6858508679333539  0.7183965753740293  1.0000
  C   C54       1.0  0.2557882878171185  0.18586240628132342  0.28160410881782366  1.0000
  C   C55       1.0  0.7442275961365324  0.8141389379214632  0.7816104934610377  1.0000
  C   C56       1.0  0.7557722186267101  0.3141410704647285  0.2183900047262027  1.0000
  S   S1        1.0  0.8922518919105186  0.37295653945589896  0.39132330116886743  1.0000
  S   S2        1.0  0.6077527923378552  0.8729704722193432  0.6086749788177954  1.0000
  S   S3        1.0  0.39225892681258046  0.12703575900810904  0.10867544100422317  1.0000
  S   S4        1.0  0.10774728241673871  0.6270314446476705  0.8913242606412266  1.0000
  S   S5        1.0  0.1077432116047561  0.6270345057768553  0.6086743179176323  1.0000
  S   S6        1.0  0.3922508291282724  0.12704295741825436  0.3913249264422162  1.0000
  S   S7        1.0  0.607750778904581  0.8729627476396828  0.8913267505522311  1.0000
  S   S8        1.0  0.8922502547970835  0.3729633313311211  0.10867290118425639  1.0000
  I   I1        1.0  0.4146456815576656  0.46588227922262593  0.3555134272749355  1.0000
  I   I2        1.0  0.08534472067612599  0.9658896014943749  0.644492262840181  1.0000
  I   I3        1.0  0.9146512859362942  0.0341286751777972  0.14448943928396568  1.0000
  I   I4        1.0  0.5853509525780821  0.5341253705914185  0.855511997107662  1.0000
  I   I5        1.0  0.5853518556639158  0.5341283523277697  0.6444887642389004  1.0000
  I   I6        1.0  0.9146528165489511  0.0341266261328883  0.355512214900969  1.0000
  I   I7        1.0  0.08535233553451597  0.9658800909902611  0.8555136667356249  1.0000
  I   I8        1.0  0.41465510259389043  0.46588153018765877  0.14449248066609496  1.0000
  I   I9        1.0  0.6759834460195576  0.7251328680331428  0.25000192139333416  1.0000
  I   I10       1.0  0.8240175824376406  0.2251321092672214  0.7500032809536917  1.0000
  I   I11       1.0  0.17598117163607438  0.7748691954087618  0.2500007395879108  1.0000
  I   I12       1.0  0.3240201754491919  0.2748749654694366  0.7499998128818459  1.0000
  N   N1        1.0  0.0064365122098876985  0.6128476847289832  0.39270276071310656  1.0000
  N   N2        1.0  0.49356239541337726  0.1128528415450276  0.6072938340305711  1.0000
  N   N3        1.0  0.506444452230909  0.8871496979793821  0.10729388635144227  1.0000
  N   N4        1.0  0.9935638830708412  0.38715145259511274  0.8927047570165738  1.0000
  N   N5        1.0  0.9935573744560314  0.38715548540692885  0.6072948583330272  1.0000
  N   N6        1.0  0.5064290575575896  0.8871577900308977  0.39270652848536247  1.0000
  N   N7        1.0  0.4935701208805198  0.11285067407715842  0.8927055617048577  1.0000
  N   N8        1.0  0.006432437296169301  0.6128461214123604  0.10729423379606116  1.0000
  N   N9        1.0  0.9884911453731035  0.45054815941405485  0.2808297181817635  1.0000
  N   N10       1.0  0.5115159753318962  0.9505552290331637  0.7191689629424969  1.0000
  N   N11       1.0  0.4884997229472817  0.04944041817726234  0.21916952081389235  1.0000
  N   N12       1.0  0.011511350921402699  0.5494429472409338  0.7808288652218135  1.0000
  N   N13       1.0  0.011508825542470898  0.5494391550601139  0.7191692726655673  1.0000
  N   N14       1.0  0.488498597781593  0.0494460756888557  0.2808318568582066  1.0000
  N   N15       1.0  0.5115160670157196  0.9505571558053707  0.7808312989994021  1.0000
  N   N16       1.0  0.9884922705382448  0.45054996338782166  0.2191669248636002  1.0000
