data_image0
_chemical_formula_structural       Sm2H24C24N18O12
_chemical_formula_sum              "Sm2 H24 C24 N18 O12"
_cell_length_a       8.742471198158771
_cell_length_b       9.162394291217483
_cell_length_c       13.805513789724227
_cell_angle_alpha    72.24827575729583
_cell_angle_beta     71.54000796123441
_cell_angle_gamma    61.520304766972565

_space_group_name_H-M_alt    "P 1"
_space_group_IT_number       1

loop_
  _space_group_symop_operation_xyz
  'x, y, z'

loop_
  _atom_site_type_symbol
  _atom_site_label
  _atom_site_symmetry_multiplicity
  _atom_site_fract_x
  _atom_site_fract_y
  _atom_site_fract_z
  _atom_site_occupancy
  Sm  Sm1       1.0  0.653590933744347  0.3869854263372545  0.857199299961536  1.0000
  Sm  Sm2       1.0  0.10223580680859373  0.8871205563515827  0.35710930499872257  1.0000
  H   H1        1.0  0.28913536820284963  0.19040303700933947  0.9442541514037754  1.0000
  H   H2        1.0  0.5759746343379174  0.6908216157349117  0.44410755078764896  1.0000
  H   H3        1.0  0.3436866125574624  0.9884455386093406  0.9255453788821909  1.0000
  H   H4        1.0  0.7423734328340004  0.4890162750381678  0.425439458765119  1.0000
  H   H5        1.0  0.33626352594556147  0.7164836049690991  0.05963811667952965  1.0000
  H   H6        1.0  0.8875637631648131  0.216497641312003  0.5595074861648967  1.0000
  H   H7        1.0  0.14099382661807183  0.8806936683030316  0.041541629838711486  1.0000
  H   H8        1.0  0.9364418821290453  0.3808521768155444  0.5417180324133709  1.0000
  H   H9        1.0  0.6195107588508576  0.30724628097448203  0.5295667917241643  1.0000
  H   H10       1.0  0.5437226607070188  0.8067796524724499  0.029631430076257546  1.0000
  H   H11       1.0  0.6119285601583827  0.11777323390487028  0.5366062996853955  1.0000
  H   H12       1.0  0.7338669922764608  0.6174763619411152  0.0365732786144761  1.0000
  H   H13       1.0  0.9216671207315201  0.45397089632604787  0.9147977610897513  1.0000
  H   H14       1.0  0.7091975198864661  0.9540787196261461  0.4149665524374412  1.0000
  H   H15       1.0  0.8847489746596081  0.3146294300898235  0.010887456698753765  1.0000
  H   H16       1.0  0.7897290196728262  0.8148440579287097  0.51101249003014  1.0000
  H   H17       1.0  0.5872202056629164  0.14172048051832314  0.07050128226172356  1.0000
  H   H18       1.0  0.20038627615741722  0.641773892949352  0.5705895519195393  1.0000
  H   H19       1.0  0.4805018653750466  0.3380026477989872  0.08184643985732268  1.0000
  H   H20       1.0  0.0992016448926448  0.8381270747414293  0.5817690408128229  1.0000
  H   H21       1.0  0.4609066557509678  0.5022217853027513  0.6745075441204732  1.0000
  H   H22       1.0  0.3625635949302577  0.0023555452247592005  0.1742687318678691  1.0000
  H   H23       1.0  0.5000257078740307  0.6578537892654879  0.6703114252811345  1.0000
  H   H24       1.0  0.17202391057497826  0.15798975412829463  0.17004179612475667  1.0000
  C   C1        1.0  0.517394365515081  0.10117493489670437  0.839752742691779  1.0000
  C   C2        1.0  0.5416852101194254  0.6013069779046988  0.3396887021404495  1.0000
  C   C3        1.0  0.6484180155656813  0.9631823310969307  0.7875574638467951  1.0000
  C   C4        1.0  0.6007244241702878  0.4633068895175327  0.28753198807442  1.0000
  C   C5        1.0  0.6424572620814076  0.8092530727886215  0.8014318719863096  1.0000
  C   C6        1.0  0.7466908653589998  0.3094385583170478  0.30147891988696773  1.0000
  C   C7        1.0  0.7969109189774106  0.9833566241831873  0.7193563314210535  1.0000
  C   C8        1.0  0.5003572597006567  0.4836282307021733  0.21923020822302416  1.0000
  C   C9        1.0  0.25103362701557347  0.7090499566044244  0.9457683750655689  1.0000
  C   C10       1.0  0.09398662151752295  0.20927359890588798  0.4457568908715928  1.0000
  C   C11       1.0  0.0995934206313935  0.7764061795037164  0.8994985557359598  1.0000
  C   C12       1.0  0.22456184560253686  0.27641087044891327  0.39942666447575437  1.0000
  C   C13       1.0  0.973905154823015  0.9425680989981658  0.8999471274882396  1.0000
  C   C14       1.0  0.18379981767823503  0.44255755902602795  0.39985595688506953  1.0000
  C   C15       1.0  0.06951696908513567  0.6628775600541418  0.8675607795822273  1.0000
  C   C16       1.0  0.4000545738390214  0.16283553428161915  0.3675298302094703  1.0000
  C   C17       1.0  0.38491979885466066  0.30282907611771753  0.6117824023422287  1.0000
  C   C18       1.0  0.7005391099354129  0.802803066123218  0.1116505436543775  1.0000
  C   C19       1.0  0.28123562267705887  0.20329073169585848  0.6482875231885927  1.0000
  C   C20       1.0  0.8672921768938836  0.703563038126596  0.14804655020509466  1.0000
  C   C21       1.0  0.10213299919288234  0.27859226715717256  0.6943617172937805  1.0000
  C   C22       1.0  0.9248420986032355  0.7789002078242717  0.19425734001235634  1.0000
  C   C23       1.0  0.3550332986581069  0.03550168425682901  0.6343338258000911  1.0000
  C   C24       1.0  0.9753179964446165  0.5357206380493054  0.134161122577936  1.0000
  N   N1        1.0  0.3726879238272927  0.0904597819542445  0.9081651991832017  1.0000
  N   N2        1.0  0.6285338650426338  0.5907346649780579  0.40812533827972425  1.0000
  N   N3        1.0  0.6430280574726125  0.6774019506356197  0.8113596822637915  1.0000
  N   N4        1.0  0.8681003915689732  0.17770801994593197  0.31147334679454997  1.0000
  N   N5        1.0  0.9232677258519648  0.9980390135297978  0.6630579634027284  1.0000
  N   N6        1.0  0.4156759439239438  0.49847613182181766  0.1628475601451171  1.0000
  N   N7        1.0  0.26028166184264023  0.7996970157270977  0.005761126044049502  1.0000
  N   N8        1.0  0.9341504434653058  0.29988830682560763  0.5057723051421377  1.0000
  N   N9        1.0  0.8734374711754995  0.08432751664216197  0.9005446960621697  1.0000
  N   N10       1.0  0.1417735010994362  0.5843538828673545  0.40048754837923883  1.0000
  N   N11       1.0  0.044151481290214165  0.5616650475679775  0.8477278884039875  1.0000
  N   N12       1.0  0.5464972932263807  0.0617928463949511  0.3476512255562837  1.0000
  N   N13       1.0  0.5514799358293061  0.23446490156147354  0.5557720993595082  1.0000
  N   N14       1.0  0.658505237445098  0.7342880291601689  0.05563802827287385  1.0000
  N   N15       1.0  0.949034227395337  0.340113363641187  0.7298385244556157  1.0000
  N   N16       1.0  0.9807783874421718  0.8404485098147559  0.22984971611825966  1.0000
  N   N17       1.0  0.423632814911308  0.8953427824728379  0.6209702960837475  1.0000
  N   N18       1.0  0.06005224682835568  0.3955018099494083  0.1208919427460273  1.0000
  O   O1        1.0  0.5403425759928739  0.2350312170091087  0.8201284304212705  1.0000
  O   O2        1.0  0.40460135753573934  0.735222998520591  0.32004490509469713  1.0000
  O   O3        1.0  0.37609755441577164  0.5667062797393854  0.9334595402645859  1.0000
  O   O4        1.0  0.12326619845230612  0.06699128972075391  0.4334379949826613  1.0000
  O   O5        1.0  0.32257281509195923  0.4493766138279227  0.631623001257921  1.0000
  O   O6        1.0  0.5963270696669409  0.9492943361293128  0.13157943777751763  1.0000
  O   O7        1.0  0.8295114192227899  0.41027902456986004  0.9590811936731284  1.0000
  O   O8        1.0  0.8010792867774585  0.9103717177699765  0.45903484839443104  1.0000
  O   O9        1.0  0.5636170493220263  0.2598825236634426  0.033775630745374506  1.0000
  O   O10       1.0  0.1426391994855648  0.7598732772484452  0.5337298993523305  1.0000
  O   O11       1.0  0.5411900219845339  0.533883090329347  0.6929050187285738  1.0000
  O   O12       1.0  0.2321809084340103  0.03404896506275179  0.192755594605309  1.0000
