data_image0
_chemical_formula_structural       H16PbC24N2O4
_chemical_formula_sum              "H16 Pb1 C24 N2 O4"
_cell_length_a       7.189011798208683
_cell_length_b       8.340368782202797
_cell_length_c       9.446315968051925
_cell_angle_alpha    104.33078708668815
_cell_angle_beta     89.93280024483141
_cell_angle_gamma    115.56150040503111

_space_group_name_H-M_alt    "P 1"
_space_group_IT_number       1

loop_
  _space_group_symop_operation_xyz
  'x, y, z'

loop_
  _atom_site_type_symbol
  _atom_site_label
  _atom_site_symmetry_multiplicity
  _atom_site_fract_x
  _atom_site_fract_y
  _atom_site_fract_z
  _atom_site_occupancy
  H   H1        1.0  0.9478974213645656  0.5717254464221  0.4698963117598964  1.0000
  H   H2        1.0  0.3778415248521796  0.42812637756043165  0.5299676249856446  1.0000
  H   H3        1.0  0.590750927419812  0.47212974316403244  0.3580538373960636  1.0000
  H   H4        1.0  0.11989720557858877  0.5274925871359317  0.6416163991086137  1.0000
  H   H5        1.0  0.5340495443027821  0.5548224856083409  0.132108094433022  1.0000
  H   H6        1.0  0.9797113395785364  0.44501019582055806  0.8676601202134578  1.0000
  H   H7        1.0  0.19741070241027384  0.8177707229646604  0.12257119044965491  1.0000
  H   H8        1.0  0.38044800895449526  0.18274078367497285  0.8775483373903867  1.0000
  H   H9        1.0  0.5349501386659629  0.7465263007550934  0.018219379724868666  1.0000
  H   H10       1.0  0.7889760097419868  0.2538454452312351  0.9820302566174631  1.0000
  H   H11       1.0  0.4982678687964823  0.8359626690442926  0.7894977846628493  1.0000
  H   H12       1.0  0.6621414020343509  0.16441061795894296  0.2107682103070161  1.0000
  H   H13       1.0  0.059291028569646305  0.8501893862761849  0.6728043634230545  1.0000
  H   H14       1.0  0.20813890643865565  0.14942744215250064  0.3269540243551461  1.0000
  H   H15       1.0  0.12006669240448539  0.7616483492856291  0.8926783710018852  1.0000
  H   H16       1.0  0.3582526526865665  0.23803141156049187  0.10710831741513971  1.0000
  Pb  Pb1       1.0  0.7471784991986824  0.999318165298348  0.4995815511630681  1.0000
  C   C1        1.0  0.3134260349004095  0.7724471530239118  0.3684708768205951  1.0000
  C   C2        1.0  0.5422833805254968  0.22738376288378964  0.6317608742305652  1.0000
  C   C3        1.0  0.09412870296492318  0.7019178979730897  0.3016967796127759  1.0000
  C   C4        1.0  0.3936753845020604  0.29837008420486916  0.6983732650788923  1.0000
  C   C5        1.0  0.9236288294702464  0.6058611423760497  0.36968206850220037  1.0000
  C   C6        1.0  0.31927276523882153  0.3941385710523592  0.6302679760152543  1.0000
  C   C7        1.0  0.7227148239381693  0.5513889555585793  0.3068118364511605  1.0000
  C   C8        1.0  0.17255803516739127  0.4484947669434122  0.6930410326417586  1.0000
  C   C9        1.0  0.6912664356888742  0.5949527604363853  0.17833644458757905  1.0000
  C   C10       1.0  0.09719305468915  0.4051723464766468  0.8216197904156457  1.0000
  C   C11       1.0  0.8604618513430468  0.6904926792310137  0.10826123128117622  1.0000
  C   C12       1.0  0.1707526442646596  0.30984901225880884  0.891816487336392  1.0000
  C   C13       1.0  0.06096937626134063  0.7405567187783081  0.17089896375910035  1.0000
  C   C14       1.0  0.32136135169222513  0.25985111973886194  0.8291987789365861  1.0000
  C   C15       1.0  0.8295293625416279  0.741778338821476  0.9746596172625671  1.0000
  C   C16       1.0  0.08816131158638292  0.2585094320900012  0.025421220346295608  1.0000
  C   C17       1.0  0.6524364802940853  0.7634078386552902  0.9426742178961901  1.0000
  C   C18       1.0  0.8893828323848398  0.23694606822274988  0.05750260188962392  1.0000
  C   C19       1.0  0.6321422147672852  0.8149431546351527  0.8164720286223712  1.0000
  C   C20       1.0  0.8170567411426861  0.18534987981523446  0.18366634543932042  1.0000
  C   C21       1.0  0.9447595011294256  0.8247883667401724  0.7511786958012721  1.0000
  C   C22       1.0  0.11939845746904615  0.17511957197127978  0.24873616293565698  1.0000
  C   C23       1.0  0.9784880553468727  0.7752096102935158  0.8751264447655132  1.0000
  C   C24       1.0  0.2031529787570606  0.22470308272058767  0.12479508458966392  1.0000
  N   N1        1.0  0.774326840300496  0.8444583071295071  0.721369281533512  1.0000
  N   N2        1.0  0.9292984224320833  0.1556297609795223  0.2786689581785069  1.0000
  O   O1        1.0  0.45796712261299904  0.8318167039566905  0.28806568268147714  1.0000
  O   O2        1.0  0.6267338557209359  0.16775088363105797  0.712200156632413  1.0000
  O   O3        1.0  0.3484649590709736  0.7774360179069646  0.5020150467562559  1.0000
  O   O4        1.0  0.5727365806037313  0.22210381995593312  0.49813798783809193  1.0000
