data_image0
_chemical_formula_structural       K4Cd2H4C16N12O16
_chemical_formula_sum              "K4 Cd2 H4 C16 N12 O16"
_cell_length_a       8.18839025869023
_cell_length_b       9.24773745009154
_cell_length_c       10.02366519767817
_cell_angle_alpha    95.12910396113861
_cell_angle_beta     96.28921582096325
_cell_angle_gamma    100.43734936027384

_space_group_name_H-M_alt    "P 1"
_space_group_IT_number       1

loop_
  _space_group_symop_operation_xyz
  'x, y, z'

loop_
  _atom_site_type_symbol
  _atom_site_label
  _atom_site_symmetry_multiplicity
  _atom_site_fract_x
  _atom_site_fract_y
  _atom_site_fract_z
  _atom_site_occupancy
  K   K1        1.0  0.3273809552916447  0.3723892192822049  0.5955043123296307  1.0000
  K   K2        1.0  0.6726206552546331  0.6276131943452156  0.4045025970720674  1.0000
  K   K3        1.0  0.9379355106246052  0.07256187045190637  0.8081558766000327  1.0000
  K   K4        1.0  0.06205873818245061  0.9274350129272546  0.1918449370736255  1.0000
  Cd  Cd1       1.0  0.5357273665027906  0.753665790325563  0.9692900623531528  1.0000
  Cd  Cd2       1.0  0.46427276320132194  0.2463355165670364  0.030710638895570207  1.0000
  H   H1        1.0  0.06488168307206614  0.6691653630677334  0.7612681779505266  1.0000
  H   H2        1.0  0.9351226325750659  0.3308326220468842  0.23873162123180697  1.0000
  H   H3        1.0  0.3222409391913246  0.7848374726226623  0.4548970396949203  1.0000
  H   H4        1.0  0.6777577164660827  0.21516272808324996  0.545101444606722  1.0000
  C   C1        1.0  0.8281835492498149  0.5915903165218097  0.8916575685056147  1.0000
  C   C2        1.0  0.1718151081064505  0.40840988432113784  0.10834191359750635  1.0000
  C   C3        1.0  0.8859680695396507  0.46525422719580684  0.8434947984655565  1.0000
  C   C4        1.0  0.11403034907805679  0.5347448674510032  0.15650656643458663  1.0000
  C   C5        1.0  0.8897985226571165  0.7509175800974645  0.885857105651752  1.0000
  C   C6        1.0  0.1102016019504006  0.24908372638402906  0.11414060219255621  1.0000
  C   C7        1.0  0.02322232137209566  0.44978800103356764  0.7622925168213613  1.0000
  C   C8        1.0  0.9767785576687162  0.5502110927721446  0.2377110607581515  1.0000
  C   C9        1.0  0.40344388192561104  0.8746146934166672  0.6989818212378156  1.0000
  C   C10       1.0  0.5965560022444834  0.12538550673165355  0.3010167716020362  1.0000
  C   C11       1.0  0.34034521672334245  0.9844485258123327  0.6329634275566036  1.0000
  C   C12       1.0  0.6596551517193348  0.0155538872764041  0.36703539089509013  1.0000
  C   C13       1.0  0.4310821313416753  0.7256291081259646  0.6512686768696058  1.0000
  C   C14       1.0  0.5689189813411065  0.2743710914647792  0.34873002450846263  1.0000
  C   C15       1.0  0.273764793447647  0.9877641096245925  0.490647882091878  1.0000
  C   C16       1.0  0.7262353345576004  0.012237197130971796  0.5093518213553665  1.0000
  N   N1        1.0  0.69619581816756  0.5458456867007654  0.9573018620189799  1.0000
  N   N2        1.0  0.3038043098376875  0.4541556200547986  0.04269784142827151  1.0000
  N   N3        1.0  0.6747262071977219  0.3980979754587395  0.9494641369882189  1.0000
  N   N4        1.0  0.3252736820689605  0.601902225100687  0.050537449256054884  1.0000
  N   N5        1.0  0.787878986604298  0.3461036899462542  0.8826427259089231  1.0000
  N   N6        1.0  0.21212114649754452  0.653897617220409  0.11735997094274357  1.0000
  N   N7        1.0  0.4481124071754081  0.9296725416232973  0.8298926138846314  1.0000
  N   N8        1.0  0.5518872348583985  0.07032655205482287  0.17010586614929935  1.0000
  N   N9        1.0  0.415726362617022  0.06671730921212321  0.8429919447886718  1.0000
  N   N10       1.0  0.5842747517646245  0.9332828905156557  0.15700775439086812  1.0000
  N   N11       1.0  0.35082505392338  0.10260742864331719  0.7260484540386758  1.0000
  N   N12       1.0  0.6491750740818674  0.8973938781122471  0.2739512494085688  1.0000
  O   O1        1.0  0.8171337216673396  0.8435297146407096  0.9464197227050307  1.0000
  O   O2        1.0  0.182866165900478  0.15647048578168207  0.0535808657377714  1.0000
  O   O3        1.0  0.015283896856637065  0.7911164305245819  0.823240492356412  1.0000
  O   O4        1.0  0.9847184443388316  0.20888376850857776  0.17675831755986596  1.0000
  O   O5        1.0  0.06309415076830763  0.3287546661610961  0.7344018918960558  1.0000
  O   O6        1.0  0.9369042695482649  0.6712444286227492  0.26560047080555194  1.0000
  O   O7        1.0  0.10138740247520424  0.570619145379304  0.7180595957831815  1.0000
  O   O8        1.0  0.8986147016805718  0.4293799475947537  0.2819420947315905  1.0000
  O   O9        1.0  0.49298178793554126  0.6504428519469982  0.7361312344533035  1.0000
  O   O10       1.0  0.5070183400697063  0.3495584548085659  0.26386846899394817  1.0000
  O   O11       1.0  0.39254773191839826  0.6792411907020435  0.524849624409697  1.0000
  O   O12       1.0  0.6074506833015789  0.32075790367070306  0.4751497448874957  1.0000
  O   O13       1.0  0.2214891684454799  0.09594591750718709  0.45005012619135704  1.0000
  O   O14       1.0  0.7785109578609025  0.9040553891113418  0.5499485794544229  1.0000
  O   O15       1.0  0.2734326848485438  0.8691274702339554  0.40627442643727113  1.0000
  O   O16       1.0  0.7265671993215507  0.13087272991437257  0.5937241664025877  1.0000
