data_image0
_chemical_formula_structural       H8Pb4C8Br8N4
_chemical_formula_sum              "H8 Pb4 C8 Br8 N4"
_cell_length_a       7.4549160013335225
_cell_length_b       7.884365612738613
_cell_length_c       11.368903797154685
_cell_angle_alpha    110.24811323285675
_cell_angle_beta     109.11605589222563
_cell_angle_gamma    89.98228764717649

_space_group_name_H-M_alt    "P 1"
_space_group_IT_number       1

loop_
  _space_group_symop_operation_xyz
  'x, y, z'

loop_
  _atom_site_type_symbol
  _atom_site_label
  _atom_site_symmetry_multiplicity
  _atom_site_fract_x
  _atom_site_fract_y
  _atom_site_fract_z
  _atom_site_occupancy
  H   H1        1.0  0.6761173703108909  0.0013626157420177005  0.0037230711140736937  1.0000
  H   H2        1.0  0.3237923738014103  0.9985349122170606  0.9962558289009565  1.0000
  H   H3        1.0  0.32741379438593293  0.5016059969840045  0.0033870486578564877  1.0000
  H   H4        1.0  0.6726960727737108  0.4984495507786663  0.9966726256991766  1.0000
  H   H5        1.0  0.0403308955818815  0.8919089695718584  0.7832824147601728  1.0000
  H   H6        1.0  0.9596082140728515  0.10797348772187122  0.21675278641141923  1.0000
  H   H7        1.0  0.7429927103312437  0.39197721149188425  0.7834568978801572  1.0000
  H   H8        1.0  0.2570808525161041  0.6080292400946307  0.21662014978073782  1.0000
  Pb  Pb1       1.0  0.5254724602625985  0.8260918926757912  0.6523262847629214  1.0000
  Pb  Pb2       1.0  0.47452568127627615  0.1739365197261193  0.34764142278808663  1.0000
  Pb  Pb3       1.0  0.12738808155316414  0.3263694825946503  0.6527358362894375  1.0000
  Pb  Pb4       1.0  0.8725572283776162  0.6737312332292054  0.34720895915845074  1.0000
  C   C1        1.0  0.8208513025918621  0.00042603330118140016  0.001266994238037002  1.0000
  C   C2        1.0  0.17915758292424042  0.999545130171548  0.9986839539306306  1.0000
  C   C3        1.0  0.18034581519398074  0.5005756897686311  0.0011188865518079387  1.0000
  C   C4        1.0  0.8196453412067014  0.49946360325073164  0.9988736963639014  1.0000
  C   C5        1.0  0.021241557535830707  0.9401392267032167  0.8799757467407547  1.0000
  C   C6        1.0  0.9788145239937976  0.05988638814288551  0.12004060682139799  1.0000
  C   C7        1.0  0.8587445056185319  0.44015544399331946  0.8800713309804851  1.0000
  C   C8        1.0  0.1412311919334996  0.559936972251016  0.11996943592951943  1.0000
  Br  Br1       1.0  0.7861251957451502  0.5365236895723484  0.57252482303538  1.0000
  Br  Br2       1.0  0.2140116596801604  0.9631905276087311  0.42742717537253583  1.0000
  Br  Br3       1.0  0.21398024075647734  0.46352100767470733  0.4274864344707227  1.0000
  Br  Br4       1.0  0.7860130313503861  0.036855577599475  0.5725627753279526  1.0000
  Br  Br5       1.0  0.4067708350076416  0.6560912846936308  0.8129653074114317  1.0000
  Br  Br6       1.0  0.5928825444883828  0.843719796985937  0.18703866725480375  1.0000
  Br  Br7       1.0  0.5932631508343321  0.3439289172368022  0.18702039516117008  1.0000
  Br  Br8       1.0  0.4069639259955125  0.1562976732125421  0.8129907646916266  1.0000
  N   N1        1.0  0.8418678844018147  0.9405052775879384  0.8812814036962068  1.0000
  N   N2        1.0  0.1582091285422109  0.05932816397439922  0.11866502797606421  1.0000
  N   N3        1.0  0.039339316045541806  0.4406234040746285  0.8812318124159904  1.0000
  N   N4        1.0  0.9605526354436833  0.5593000231882785  0.11875655634533198  1.0000
