data_image0
_chemical_formula_structural       Ag4H20C24S2N4O10
_chemical_formula_sum              "Ag4 H20 C24 S2 N4 O10"
_cell_length_a       5.590121187896544
_cell_length_b       10.274301679780612
_cell_length_c       12.556106255750883
_cell_angle_alpha    83.40436789396989
_cell_angle_beta     90.18913086410139
_cell_angle_gamma    70.75646465654376

_space_group_name_H-M_alt    "P 1"
_space_group_IT_number       1

loop_
  _space_group_symop_operation_xyz
  'x, y, z'

loop_
  _atom_site_type_symbol
  _atom_site_label
  _atom_site_symmetry_multiplicity
  _atom_site_fract_x
  _atom_site_fract_y
  _atom_site_fract_z
  _atom_site_occupancy
  Ag  Ag1       1.0  0.5000019618954286  0.9999986942540176  0.5000001168794768  1.0000
  Ag  Ag2       1.0  0.9078630433825833  0.5689198169011149  0.8696412548989584  1.0000
  Ag  Ag3       1.0  0.09213027692512545  0.4310788834403069  0.1303586149072729  1.0000
  Ag  Ag4       1.0  0.4999917641454062  0.5000004782591034  0.9999992285789288  1.0000
  H   H1        1.0  0.4092018307037364  0.3841945901021973  0.5403389055092518  1.0000
  H   H2        1.0  0.5908060137686348  0.6158071272893934  0.45966938963187687  1.0000
  H   H3        1.0  0.30876771869431957  0.510920577328953  0.7009260586838549  1.0000
  H   H4        1.0  0.6912352483056027  0.48908022469844065  0.2990823388632505  1.0000
  H   H5        1.0  0.8438461162141168  0.19563921198866296  0.6342199971962472  1.0000
  H   H6        1.0  0.15614784202016094  0.8043582536193269  0.3657736389732307  1.0000
  H   H7        1.0  0.7616524753817584  0.3329963440156404  0.7898371438865437  1.0000
  H   H8        1.0  0.23833653649199252  0.6670003786556861  0.21016215176798875  1.0000
  H   H9        1.0  0.6958138706610627  0.1366082253500522  0.8036183553766563  1.0000
  H   H10       1.0  0.3041813866600196  0.8633935311045915  0.19638196630226193  1.0000
  H   H11       1.0  0.6947987881898142  0.941632780034368  0.7033693689449051  1.0000
  H   H12       1.0  0.3052005181438632  0.058364784956985695  0.2966314269453036  1.0000
  H   H13       1.0  0.046491968104248806  0.1070584291141827  0.9715613313893029  1.0000
  H   H14       1.0  0.9535021511398588  0.8929454519522505  0.028440343404973662  1.0000
  H   H15       1.0  0.04380877605274227  0.908834183459078  0.8713817901181  1.0000
  H   H16       1.0  0.9561877342942681  0.09116856989922438  0.12861841921831288  1.0000
  H   H17       1.0  0.030828454502412193  0.17804878197104299  0.4600224449739441  1.0000
  H   H18       1.0  0.9691866124844354  0.8219494291336389  0.5399774844514055  1.0000
  H   H19       1.0  0.2479460462995462  0.25624207242695707  0.4205291954821816  1.0000
  H   H20       1.0  0.7520659455969537  0.7437552071762922  0.5794716351858468  1.0000
  C   C1        1.0  0.36055525580415076  0.9185315213818582  0.7791349678814395  1.0000
  C   C2        1.0  0.6394476552937434  0.08146601133505267  0.2208674256821652  1.0000
  C   C3        1.0  0.13320954524197506  0.27911148822734316  0.5735014883845722  1.0000
  C   C4        1.0  0.8667942238392355  0.7208910774195374  0.4264979469564451  1.0000
  C   C5        1.0  0.2652534124714095  0.36929611218882025  0.5941495524196724  1.0000
  C   C6        1.0  0.7347621841893073  0.6307011351399793  0.4058528759217522  1.0000
  C   C7        1.0  0.2101745927890447  0.4400029187032288  0.6833426322142059  1.0000
  C   C8        1.0  0.7898148985628312  0.5600062407648921  0.3166600387948932  1.0000
  C   C9        1.0  0.9501869292453479  0.2650623663335594  0.6460896974044417  1.0000
  C   C10       1.0  0.04980599601974945  0.7349403700341808  0.3539073265216999  1.0000
  C   C11       1.0  0.9041012835629161  0.3410934851050627  0.7326541605569474  1.0000
  C   C12       1.0  0.09588971452996736  0.6589061705169568  0.2673416176280696  1.0000
  C   C13       1.0  0.37010743982292393  0.1339842369769002  0.8935444774776184  1.0000
  C   C14       1.0  0.6298908630650429  0.8660185248766866  0.1064573245639409  1.0000
  C   C15       1.0  0.5504618352198065  0.08841065725160749  0.8169045241521358  1.0000
  C   C16       1.0  0.44953397145745544  0.9115900861621498  0.1830967087059818  1.0000
  C   C17       1.0  0.5475086926540625  0.9802945866394452  0.759823126082658  1.0000
  C   C18       1.0  0.45248362420793603  0.0197093105642168  0.24017774987492393  1.0000
  C   C19       1.0  0.18759602390294822  0.06906714482717288  0.9131353656724526  1.0000
  C   C20       1.0  0.8123950792977439  0.9309356569428003  0.08686244715386242  1.0000
  C   C21       1.0  0.18333729560222872  0.9610712441274957  0.8568288192179876  1.0000
  C   C22       1.0  0.8166596688343117  0.038927325409453296  0.14316947278788916  1.0000
  C   C23       1.0  0.36400598426234143  0.2515568219512189  0.9550881747773728  1.0000
  C   C24       1.0  0.6359916838439547  0.7484437575302818  0.044909093706799304  1.0000
  S   S1        1.0  0.32548666526685804  0.7916024135278549  0.7006744597007142  1.0000
  S   S2        1.0  0.6745218171320746  0.2083980691303039  0.2993276018036539  1.0000
  N   N1        1.0  0.030577508803354143  0.4281814604512419  0.7519979303827069  1.0000
  N   N2        1.0  0.9694196668387673  0.5718101239714813  0.24800752380946986  1.0000
  N   N3        1.0  0.18242136827696948  0.2060656112787882  0.4844519166788785  1.0000
  N   N4        1.0  0.8176002340920192  0.7939304514349315  0.5155498500096483  1.0000
  O   O1        1.0  0.21254012899719035  0.8731360951071067  0.5960017329038363  1.0000
  O   O2        1.0  0.7874611340321637  0.1268644767324503  0.4039979271221766  1.0000
  O   O3        1.0  0.5804520138127176  0.6923107583472612  0.6887717216041691  1.0000
  O   O4        1.0  0.41956163500349675  0.30769673491097643  0.3112279558293096  1.0000
  O   O5        1.0  0.1535936164814372  0.7297040347101671  0.7568545637349686  1.0000
  O   O6        1.0  0.8464201120539839  0.27028998407787697  0.24314185565469865  1.0000
  O   O7        1.0  0.1963219755601101  0.2784171761386817  0.024977029453125996  1.0000
  O   O8        1.0  0.8036521720184239  0.7215971122294106  0.9750139060662091  1.0000
  O   O9        1.0  0.5220464831271059  0.3154215643307197  0.9319769045509357  1.0000
  O   O10       1.0  0.4779487741939761  0.6845801921239243  0.06802341712797501  1.0000
