data_image0
_chemical_formula_structural       Zn6H24C24N36
_chemical_formula_sum              "Zn6 H24 C24 N36"
_cell_length_a       12.520331860759365
_cell_length_b       12.520332772654779
_cell_length_c       12.520338706727687
_cell_angle_alpha    59.99999428291185
_cell_angle_beta     60.0000073151905
_cell_angle_gamma    59.99997923479167

_space_group_name_H-M_alt    "P 1"
_space_group_IT_number       1

loop_
  _space_group_symop_operation_xyz
  'x, y, z'

loop_
  _atom_site_type_symbol
  _atom_site_label
  _atom_site_symmetry_multiplicity
  _atom_site_fract_x
  _atom_site_fract_y
  _atom_site_fract_z
  _atom_site_occupancy
  Zn  Zn1       1.0  0.5000002119648599  0.5000000225129142  0.5000001352367108  1.0000
  Zn  Zn2       1.0  4.931961688166064e-08  0.49999956131324547  0.5000001525020964  1.0000
  Zn  Zn3       1.0  0.9999999153980423  0.4999999078103133  3.5704452729999994e-07  1.0000
  Zn  Zn4       1.0  5.578513012934502e-07  0.9999996985287536  0.5000000659309904  1.0000
  Zn  Zn5       1.0  0.12500018382784364  0.6249996484585195  0.6249999417602227  1.0000
  Zn  Zn6       1.0  0.8750001050397386  0.3750002615054129  0.37499935050908567  1.0000
  H   H1        1.0  0.523542980998684  0.3394422364510137  0.3394416485438825  1.0000
  H   H2        1.0  0.2975731981395457  0.33944258140383715  0.3394416563466934  1.0000
  H   H3        1.0  0.8394418767986523  0.7975738407608689  0.0235422718042528  1.0000
  H   H4        1.0  0.8394418364228287  0.023542859899691734  0.7975728380762065  1.0000
  H   H5        1.0  0.5235425964247399  0.7975735721759281  0.33944156922206054  1.0000
  H   H6        1.0  0.2975735314729135  0.023542277792088742  0.3394417110423333  1.0000
  H   H7        1.0  0.8394423132934251  0.33944077891090524  0.7975737615850848  1.0000
  H   H8        1.0  0.839441800242433  0.339442043905855  0.023542351126167205  1.0000
  H   H9        1.0  0.5235427808134147  0.33944192934692546  0.7975727942889534  1.0000
  H   H10       1.0  0.29757421736758266  0.33944207695436296  0.0235423698371804  1.0000
  H   H11       1.0  0.8394415754779274  0.023542705873680243  0.33944169233122784  1.0000
  H   H12       1.0  0.8394416562716955  0.79757354650922  0.3394415583138723  1.0000
  H   H13       1.0  0.702426753157127  0.6605585883913035  0.6605576359224159  1.0000
  H   H14       1.0  0.4764577689990618  0.6605581346430186  0.6605576437253406  1.0000
  H   H15       1.0  0.1605580860009043  0.20242574313486017  0.9764579986692609  1.0000
  H   H16       1.0  0.16055732767565456  0.9764575226971529  0.20242743239720082  1.0000
  H   H17       1.0  0.1605578338948063  0.2024271621558213  0.6605577339553294  1.0000
  H   H18       1.0  0.16055791468857483  0.9764580027913677  0.6605575999379738  1.0000
  H   H19       1.0  0.47645718198614173  0.6605576545488034  0.2024274761845604  1.0000
  H   H20       1.0  0.7024249467309004  0.6605583056424749  0.9764579006362271  1.0000
  H   H21       1.0  0.16055764950613152  0.6605588049848236  0.2024265088884292  1.0000
  H   H22       1.0  0.16055736385605013  0.6605583386909901  0.9764579193472329  1.0000
  H   H23       1.0  0.702426757394669  0.9764576321718362  0.6605575812269819  1.0000
  H   H24       1.0  0.4764581535730059  0.20242679891810397  0.6605577230471625  1.0000
  C   C1        1.0  0.42026796262307203  0.3850962127035019  0.38509638753066616  1.0000
  C   C2        1.0  0.3095389302849442  0.385095913512174  0.38509639135426  1.0000
  C   C3        1.0  0.8850951370597643  0.8095392727407642  0.9202688448931937  1.0000
  C   C4        1.0  0.8850955879337122  0.9202684664899576  0.8095390524055972  1.0000
  C   C5        1.0  0.4202680211176999  0.8095387817356896  0.3850963140417747  1.0000
  C   C6        1.0  0.3095384997518806  0.9202683079519716  0.3850962986933837  1.0000
  C   C7        1.0  0.8850960184667754  0.3850960720501675  0.8095391450664665  1.0000
  C   C8        1.0  0.8850962033342353  0.3850962310756642  0.9202679401779932  1.0000
  C   C9        1.0  0.42026903709488994  0.3850955907164533  0.8095391611173071  1.0000
  C   C10       1.0  0.3095390648551305  0.3850959231835346  0.9202689382565197  1.0000
  C   C11       1.0  0.8850957732931308  0.9202687509059899  0.38509627881897057  1.0000
  C   C12       1.0  0.8850962623208216  0.809538925498387  0.3850962979909482  1.0000
  C   C13       1.0  0.6904613585826384  0.6149039964517514  0.6149029009150554  1.0000
  C   C14       1.0  0.57973152754343  0.6149044959615394  0.6149029047385356  1.0000
  C   C15       1.0  0.11490402703871186  0.19046110985607356  0.0797314255802135  1.0000
  C   C16       1.0  0.11490311503460048  0.07973145497678763  0.19046121806790953  1.0000
  C   C17       1.0  0.11490402654675337  0.1904609844655384  0.614902994278367  1.0000
  C   C18       1.0  0.11490371687337136  0.07973195775905143  0.6149030134502383  1.0000
  C   C19       1.0  0.5797309257046662  0.6149039931792759  0.1904611093562067  1.0000
  C   C20       1.0  0.6904600992433528  0.6149044594133034  0.07973133221688761  1.0000
  C   C21       1.0  0.11490314563170768  0.6149043105466773  0.1904611254069337  1.0000
  C   C22       1.0  0.11490328683226632  0.614904477589377  0.07973135209120841  1.0000
  C   C23       1.0  0.6904617891157014  0.07973160201196082  0.6149029935759317  1.0000
  C   C24       1.0  0.5797311429807833  0.19046160086114852  0.6149039564316326  1.0000
  N   N1        1.0  0.37906920975215286  0.45813406077220253  0.4581339879456152  1.0000
  N   N2        1.0  0.20466156426061138  0.45813399401100685  0.4581339939680333  1.0000
  N   N3        1.0  0.9581333584812627  0.7046620448419391  0.8790698370332707  1.0000
  N   N4        1.0  0.9581338114754916  0.8790700918894601  0.7046618790325924  1.0000
  N   N5        1.0  0.37906991565548503  0.7046618289063956  0.4581339452612525  1.0000
  N   N6        1.0  0.20466155473418715  0.8790701974675842  0.45813392108623674  1.0000
  N   N7        1.0  0.9581346197029885  0.45813308973176714  0.7046619519144954  1.0000
  N   N8        1.0  0.9581339124091739  0.4581339391367293  0.8790698797176546  1.0000
  N   N9        1.0  0.37906938300563553  0.45813417649085153  0.7046619719097792  1.0000
  N   N10       1.0  0.2046618289213528  0.4581341604334953  0.879069905735463  1.0000
  N   N11       1.0  0.9581336382220088  0.8790699761708114  0.4581338950684284  1.0000
  N   N12       1.0  0.9581343536517652  0.7046615408484274  0.45813392526585517  1.0000
  N   N13       1.0  0.795338724606971  0.5418659159529254  0.5418652983012819  1.0000
  N   N14       1.0  0.6209302804143563  0.5418666478928387  0.5418653043235864  1.0000
  N   N15       1.0  0.0418666043182938  0.29533753905379  0.12093043344024322  1.0000
  N   N16       1.0  0.041865352622991764  0.12093029070738481  0.29533839144081503  1.0000
  N   N17       1.0  0.04186593521581735  0.29533836911550543  0.5418653670034601  1.0000
  N   N18       1.0  0.04186585194449318  0.12093073249423007  0.5418653972007732  1.0000
  N   N19       1.0  0.6209297810928477  0.5418662061059933  0.2953382985636281  1.0000
  N   N20       1.0  0.7953373351771305  0.5418662221633427  0.12093036473794432  1.0000
  N   N21       1.0  0.041866141797648054  0.541865695462846  0.2953383185591321  1.0000
  N   N22       1.0  0.04186605039038931  0.5418656447589997  0.12093039075585921  1.0000
  N   N23       1.0  0.7953379354323146  0.12093051119746442  0.541865371182965  1.0000
  N   N24       1.0  0.6209297095731612  0.2953390148205416  0.5418663252120625  1.0000
  N   N25       1.0  0.24864547133800158  0.5013543264091708  0.5013539782026158  1.0000
  N   N26       1.0  0.0013540976165982265  0.7486457692089842  0.7486459053177299  1.0000
  N   N27       1.0  0.24864575277249676  0.7486452282664259  0.5013539353861276  1.0000
  N   N28       1.0  0.0013541537530203096  0.5013536075205208  0.7486459481344171  1.0000
  N   N29       1.0  0.24864552931751405  0.5013543266755676  0.7486459395951712  1.0000
  N   N30       1.0  0.0013540396370855879  0.7486457689425875  0.5013539439251674  1.0000
  N   N31       1.0  0.7513548175295811  0.49864558355475463  0.4986453140666995  1.0000
  N   N32       1.0  0.9986463263131213  0.2513542758168444  0.2513543651556915  1.0000
  N   N33       1.0  0.9986454505294161  0.2513549397224609  0.4986453483440343  1.0000
  N   N34       1.0  0.7513540959111324  0.4986465170513697  0.2513543308781366  1.0000
  N   N35       1.0  0.9986458090465364  0.49864597637520797  0.2513543223390968  1.0000
  N   N36       1.0  0.7513542100270596  0.251354355629303  0.49864633508738626  1.0000
