data_image0
_chemical_formula_structural       Cd3H44C52N12Cl6
_chemical_formula_sum              "Cd3 H44 C52 N12 Cl6"
_cell_length_a       10.504484023186402
_cell_length_b       10.633045917587584
_cell_length_c       13.016
_cell_angle_alpha    89.12843630607395
_cell_angle_beta     74.45777146846376
_cell_angle_gamma    69.77292236359662

_space_group_name_H-M_alt    "P 1"
_space_group_IT_number       1

loop_
  _space_group_symop_operation_xyz
  'x, y, z'

loop_
  _atom_site_type_symbol
  _atom_site_label
  _atom_site_symmetry_multiplicity
  _atom_site_fract_x
  _atom_site_fract_y
  _atom_site_fract_z
  _atom_site_occupancy
  Cd  Cd1       1.0  0.9999987922387915  0.9999991267160696  0.5000009634821225  1.0000
  Cd  Cd2       1.0  0.9684693382286298  0.7154600653169041  0.6845681171656182  1.0000
  Cd  Cd3       1.0  0.031531805046419885  0.2845380554275891  0.3154331186994029  1.0000
  H   H1        1.0  0.7876633715200397  0.5550800282628217  0.8567990153105997  1.0000
  H   H2        1.0  0.21234012279126796  0.44491708651008816  0.1432001880817495  1.0000
  H   H3        1.0  0.723374193762659  0.9373904734924565  0.6247613193935991  1.0000
  H   H4        1.0  0.2766230991812293  0.0626126771099393  0.3752445280147257  1.0000
  H   H5        1.0  0.19757304222252967  0.42982449489554847  0.44964882065154654  1.0000
  H   H6        1.0  0.8024284758762477  0.5701726198773613  0.5503515783745172  1.0000
  H   H7        1.0  0.1838241574458124  0.7090208412334107  0.24957515998143262  1.0000
  H   H8        1.0  0.8161752480755238  0.2909792914542422  0.7504248900950119  1.0000
  H   H9        1.0  0.8417340714350057  0.6480287843388339  0.21930176407357754  1.0000
  H   H10       1.0  0.1582635963326098  0.3519733602919786  0.7806986367846704  1.0000
  H   H11       1.0  0.9675707034657464  0.8040569883378907  0.23663862161329516  1.0000
  H   H12       1.0  0.03242870205559  0.1959431443497621  0.7633621967483393  1.0000
  H   H13       1.0  0.07610645983557157  0.9015014314048599  0.07929450477391954  1.0000
  H   H14       1.0  0.9238952967220229  0.0984976953112167  0.9207050494002333  1.0000
  H   H15       1.0  0.050861167657117824  0.8584398119519605  0.8977104332971706  1.0000
  H   H16       1.0  0.9491396007942114  0.1415593147641161  0.10228933455124428  1.0000
  H   H17       1.0  0.4005889722407048  0.455061303922669  0.493405518401012  1.0000
  H   H18       1.0  0.599413772423155  0.5449378227934005  0.5065938220988855  1.0000
  H   H19       1.0  0.5662831091540497  0.4069245578487397  0.39128373077127077  1.0000
  H   H20       1.0  0.4337196355098101  0.5930745688673298  0.6087171462989929  1.0000
  H   H21       1.0  0.3444886568634402  0.23401112087960738  0.5798718695369587  1.0000
  H   H22       1.0  0.6555101353753584  0.7659880058364621  0.42012678908960055  1.0000
  H   H23       1.0  0.7601372535249168  0.24678092411595293  0.4364103389051762  1.0000
  H   H24       1.0  0.23986290164386753  0.7532171966285333  0.5635903423489168  1.0000
  H   H25       1.0  0.7127865889194283  0.188684053428581  0.2559610961926779  1.0000
  H   H26       1.0  0.2872134298844457  0.8113170852306554  0.744034967337342  1.0000
  H   H27       1.0  0.7743498390776864  0.0253826749062185  0.09893687106272614  1.0000
  H   H28       1.0  0.2256532804098938  0.9746154458382748  0.9010616325982141  1.0000
  H   H29       1.0  0.5898313559850834  0.9831370310923405  0.03771374480046321  1.0000
  H   H30       1.0  0.4101711502199592  0.0168600836805695  0.962284135695775  1.0000
  H   H31       1.0  0.7667810588063019  0.41610203657295847  0.019870230089416952  1.0000
  H   H32       1.0  0.23321834671503436  0.5838980961146945  0.9801298199870275  1.0000
  H   H33       1.0  0.7886032076176264  0.4744715255585064  0.13830503092347612  1.0000
  H   H34       1.0  0.2113971860099752  0.5255286071291394  0.8616948054787132  1.0000
  H   H35       1.0  0.5784661171877515  0.7760557694089698  0.1410321696362901  1.0000
  H   H36       1.0  0.42153267505104  0.2239433573071068  0.8589687938458328  1.0000
  H   H37       1.0  0.332697927131548  0.1026282146186404  0.1302834228864143  1.0000
  H   H38       1.0  0.667304204249767  0.8973699061258528  0.8697168310191543  1.0000
  H   H39       1.0  0.5451288202993467  0.3885464630539701  0.09865808732276089  1.0000
  H   H40       1.0  0.4548699719394449  0.6114526636621065  0.9013421078741717  1.0000
  H   H41       1.0  0.4589602602643623  0.027909675515147097  0.6656344763342192  1.0000
  H   H42       1.0  0.5410374075032536  0.9720924691156655  0.33436746109440213  1.0000
  H   H43       1.0  0.31501998979086915  0.8670599824208621  0.22408476021500692  1.0000
  H   H44       1.0  0.6849797905541948  0.1329391442952073  0.7759152213076704  1.0000
  C   C1        1.0  0.8301968608935937  0.6057306973151384  0.904275998028318  1.0000
  C   C2        1.0  0.1698029194514632  0.3942684294009311  0.0957239834943522  1.0000
  C   C3        1.0  0.930008492818146  0.7307266900147766  0.9578821166835426  1.0000
  C   C4        1.0  0.06999016305573488  0.2692754546160359  0.042118070500443104  1.0000
  C   C5        1.0  0.3792800552292518  0.2157839218218314  0.2432593983522509  1.0000
  C   C6        1.0  0.6207205768571668  0.784218222808974  0.7567380566276539  1.0000
  C   C7        1.0  0.6686431717697658  0.0286711960011914  0.59224100048111  1.0000
  C   C8        1.0  0.33135412117412233  0.9713319546011974  0.40776254207165863  1.0000
  C   C9        1.0  0.2756585556017156  0.3604355932228245  0.3834040996760636  1.0000
  C   C10       1.0  0.7243438142384164  0.6395645394648284  0.6165953093776012  1.0000
  C   C11       1.0  0.29689663011542683  0.6731971872985127  0.20942330371151027  1.0000
  C   C12       1.0  0.7031017872996372  0.3268029453891401  0.7905769600391965  1.0000
  C   C13       1.0  0.8724017493826254  0.6717666957117743  0.04876792212019864  1.0000
  C   C14       1.0  0.1275953051024459  0.328234442947462  0.9512341604289105  1.0000
  C   C15       1.0  0.8845337110683289  0.6955518877489695  0.1503625459393234  1.0000
  C   C16       1.0  0.11546494480555218  0.3044502568818359  0.8496384095298524  1.0000
  C   C17       1.0  0.9577230721139572  0.7803120351638881  0.1585615051900149  1.0000
  C   C18       1.0  0.042273982371114  0.219689103495341  0.8414390407887212  1.0000
  C   C19       1.0  0.01830174622963199  0.8373445879196453  0.0684929836359416  1.0000
  C   C20       1.0  0.9816992606805074  0.162656550739591  0.9315051710753792  1.0000
  C   C21       1.0  0.004971979021313187  0.8142203192104915  0.9674211409132454  1.0000
  C   C22       1.0  0.9950278013237436  0.185778807505578  0.03257884060943186  1.0000
  C   C23       1.0  0.48342649602411575  0.3717306421229125  0.4385321589749012  1.0000
  C   C24       1.0  0.5165748857097512  0.6282694905647404  0.5614674637530257  1.0000
  C   C25       1.0  0.5446430412192313  0.2546918846209678  0.49954522184543754  1.0000
  C   C26       1.0  0.45535772723209783  0.7453072420951017  0.5004553142881605  1.0000
  C   C27       1.0  0.45892398524947  0.1932833554922766  0.5662471501871877  1.0000
  C   C28       1.0  0.541074432165594  0.8067167771953764  0.43375388184870906  1.0000
  C   C29       1.0  0.6901000011455309  0.2000917711456225  0.4857259985871707  1.0000
  C   C30       1.0  0.30989940437579827  0.7999083615420233  0.5142748197744638  1.0000
  C   C31       1.0  0.6305839903741912  0.1718471070943437  0.2280274495980308  1.0000
  C   C32       1.0  0.3694187542896684  0.8281520196217258  0.7719695860463034  1.0000
  C   C33       1.0  0.6639708991853226  0.0809978137057712  0.14041767198366273  1.0000
  C   C34       1.0  0.336031095831089  0.919003324953465  0.8595795007682057  1.0000
  C   C35       1.0  0.5578989015793852  0.0567850837470729  0.10554619701417066  1.0000
  C   C36       1.0  0.4420971647994206  0.9432160549121563  0.8944545626388277  1.0000
  C   C37       1.0  0.48686662442970174  0.2382442492881935  0.2781700887474018  1.0000
  C   C38       1.0  0.5131349957629823  0.761757895342619  0.7218263842730508  1.0000
  C   C39       1.0  0.7410577715886931  0.5067209624697142  0.0720602752836896  1.0000
  C   C40       1.0  0.25894064582637094  0.4932791702179387  0.927939988467017  1.0000
  C   C41       1.0  0.5832902134778948  0.573219707793136  0.11647535563181323  1.0000
  C   C42       1.0  0.4167091920434415  0.4267804248945097  0.8835239261594481  1.0000
  C   C43       1.0  0.5170738720511139  0.710121374141913  0.15043617909995535  1.0000
  C   C44       1.0  0.4829259082939501  0.2898777525741565  0.8495638024227221  1.0000
  C   C45       1.0  0.4147356334210315  0.1228301358879236  0.15600286118016274  1.0000
  C   C46       1.0  0.5852661231365629  0.8771689908281459  0.8439936198532365  1.0000
  C   C47       1.0  0.4979308690078739  0.4949500890122919  0.12813231214740037  1.0000
  C   C48       1.0  0.5020689113371829  0.5050490377037775  0.871867669375277  1.0000
  C   C49       1.0  0.5219494512791698  0.0788098255193006  0.6135565868418597  1.0000
  C   C50       1.0  0.4780485913121738  0.9211913131399356  0.38644605031817747  1.0000
  C   C51       1.0  0.3714808139839504  0.7610637749524329  0.19684104069378358  1.0000
  C   C52       1.0  0.6285176034311206  0.2389363577352199  0.8031592230569231  1.0000
  N   N1        1.0  0.35799808196424726  0.5421734128916  0.1743304880777004  1.0000
  N   N2        1.0  0.6420003354508238  0.4578267197960528  0.8256705439581963  1.0000
  N   N3        1.0  0.7511064449162603  0.0889711444487418  0.5305800391627571  1.0000
  N   N4        1.0  0.248892960605076  0.911028988238911  0.4694238523396308  1.0000
  N   N5        1.0  0.9010382207170835  0.6872455804130269  0.869209262481732  1.0000
  N   N6        1.0  0.09896080998052528  0.3127555582462094  0.13079008786329643  1.0000
  N   N7        1.0  0.24851899143970255  0.294042474915301  0.3111973614891284  1.0000
  N   N8        1.0  0.7514823902941641  0.7059576577723519  0.6888014929536084  1.0000
  N   N9        1.0  0.8105492368341273  0.5925906965373571  0.011140369948158467  1.0000
  N   N10       1.0  0.18944941903976087  0.4074114480934554  0.9888598172358273  1.0000
  N   N11       1.0  0.4166380895702844  0.3311145395809589  0.3667501961078798  1.0000
  N   N12       1.0  0.58336390544612  0.6688865990782702  0.6332477449291787  1.0000
  Cl  Cl1       1.0  0.0006859628062442497  0.7514507105340797  0.4752750160817457  1.0000
  Cl  Cl2       1.0  0.9993144308213572  0.2485494221535731  0.5247248203204364  1.0000
  Cl  Cl3       1.0  0.0321136111561913  0.0461378805444994  0.2901451083520428  1.0000
  Cl  Cl4       1.0  0.9678881454014032  0.9538612461715702  0.7098559823924833  1.0000
  Cl  Cl5       1.0  0.20398521584658613  0.5344183779814813  0.6591582621331683  1.0000
  Cl  Cl6       1.0  0.7960171539935529  0.4655817547061716  0.3408403786353063  1.0000
