data_image0
_chemical_formula_structural       Zn2H16C20N12O8
_chemical_formula_sum              "Zn2 H16 C20 N12 O8"
_cell_length_a       7.323310158954073
_cell_length_b       9.673029211662746
_cell_length_c       9.823901648022488
_cell_angle_alpha    62.11821072128669
_cell_angle_beta     79.64412229711166
_cell_angle_gamma    71.1018041711597

_space_group_name_H-M_alt    "P 1"
_space_group_IT_number       1

loop_
  _space_group_symop_operation_xyz
  'x, y, z'

loop_
  _atom_site_type_symbol
  _atom_site_label
  _atom_site_symmetry_multiplicity
  _atom_site_fract_x
  _atom_site_fract_y
  _atom_site_fract_z
  _atom_site_occupancy
  Zn  Zn1       1.0  0.24293245882370937  0.4933853159491832  0.08577152937716902  1.0000
  Zn  Zn2       1.0  0.7570649771539733  0.506614427006852  0.9142287311368589  1.0000
  H   H1        1.0  0.8627339615607922  0.17448557957651897  0.42006194987594375  1.0000
  H   H2        1.0  0.13725785380954378  0.8255142120977013  0.5799409983913932  1.0000
  H   H3        1.0  0.07848988276859359  0.4054717740013771  0.41671226102423736  1.0000
  H   H4        1.0  0.9215093323410526  0.5945267438569599  0.5832883510233273  1.0000
  H   H5        1.0  0.12133769760936979  0.8624172909913169  0.9144465475775546  1.0000
  H   H6        1.0  0.8786731679781922  0.13758360766356506  0.08555462416931181  1.0000
  H   H7        1.0  0.16886792759855498  0.3398638512410201  0.6792700999822756  1.0000
  H   H8        1.0  0.8311242584873495  0.6601395442164915  0.32072605154711914  1.0000
  H   H9        1.0  0.4655744822809423  0.6743757874951799  0.41211591021291827  1.0000
  H   H10       1.0  0.5344267951721164  0.32562513184035413  0.5878813110142501  1.0000
  H   H11       1.0  0.30825431149226273  0.9131295529430761  0.08324731346405641  1.0000
  H   H12       1.0  0.6917465482286073  0.08687259070639898  0.9167504114832427  1.0000
  H   H13       1.0  0.47101477526939556  0.17842268907535436  0.38640986675974887  1.0000
  H   H14       1.0  0.5289927832471476  0.8215757784972907  0.6135897680418407  1.0000
  H   H15       1.0  0.25380364595607563  0.2023807256748071  0.003182893033155695  1.0000
  H   H16       1.0  0.7461989053926316  0.7976202156685731  0.9968182378316824  1.0000
  C   C1        1.0  0.8805053215516307  0.401041734294509  0.21453830299903123  1.0000
  C   C2        1.0  0.11949072385822748  0.59895801704247  0.7854621203893187  1.0000
  C   C3        1.0  0.917043428635388  0.2804138862891463  0.375906263586053  1.0000
  C   C4        1.0  0.08294911684662752  0.7195883000488196  0.6240914204792106  1.0000
  C   C5        1.0  0.020041341194108452  0.3012608778598748  0.46168724928698174  1.0000
  C   C6        1.0  0.9799541491123306  0.6987364332301668  0.5383123295354367  1.0000
  C   C7        1.0  0.11259325257197601  0.9850043452264787  0.8256923235608081  1.0000
  C   C8        1.0  0.8874097456769617  0.014995364205759603  0.174307285455896  1.0000
  C   C9        1.0  0.14073224017695196  0.22483101582623283  0.7119245421578595  1.0000
  C   C10       1.0  0.8592630281046142  0.7751711689442332  0.28807485241475184  1.0000
  C   C11       1.0  0.3658113263756275  0.594806938029663  0.26757672817960537  1.0000
  C   C12       1.0  0.6341838835698538  0.4051952619352051  0.7324247026490057  1.0000
  C   C13       1.0  0.4109865698334259  0.7162813642110705  0.29905050340643397  1.0000
  C   C14       1.0  0.5890150086796593  0.2837183611993196  0.7009502866126098  1.0000
  C   C15       1.0  0.36691257799868277  0.8725920290765076  0.19431930349643514  1.0000
  C   C16       1.0  0.6330914222539261  0.12740888869152656  0.8056796282380746  1.0000
  C   C17       1.0  0.4301382651568274  0.1428558022435524  0.30906741490775863  1.0000
  C   C18       1.0  0.5698677861197365  0.8571427040988411  0.6909364552801662  1.0000
  C   C19       1.0  0.3191774922653677  0.1613897567474751  0.111314968772227  1.0000
  C   C20       1.0  0.6808268673833524  0.8386099519010131  0.8886854954981515  1.0000
  N   N1        1.0  0.07057331920781706  0.19329187933683298  0.612811954813239  1.0000
  N   N2        1.0  0.9294262844659823  0.8067054218047645  0.3871891716421913  1.0000
  N   N3        1.0  0.05265089849925177  0.0380507118145132  0.6856674908837164  1.0000
  N   N4        1.0  0.9473518457062934  0.9619453634456433  0.3143348423589317  1.0000
  N   N5        1.0  0.16656500432969773  0.09639744351458997  0.8478704398292011  1.0000
  N   N6        1.0  0.8334358262231304  0.9036047077320787  0.15212830324609425  1.0000
  N   N7        1.0  0.38048035170202604  0.0034268146444844994  0.21339412704219998  1.0000
  N   N8        1.0  0.6195264296862105  0.9965740863616543  0.7866044789436584  1.0000
  N   N9        1.0  0.45049004210910915  0.9901223928873152  0.34042212514392395  1.0000
  N   N10       1.0  0.5495171278432803  0.009877291402076998  0.6595769952498002  1.0000
  N   N11       1.0  0.3488139386964021  0.2524298424112957  0.16903790689782028  1.0000
  N   N12       1.0  0.6511925886484347  0.7475674244227548  0.8309634233139676  1.0000
  O   O1        1.0  0.769015456266544  0.3809714288153002  0.14276541998961534  1.0000
  O   O2        1.0  0.23098133710357863  0.6190258966853862  0.8572370503424764  1.0000
  O   O3        1.0  0.9578831368813846  0.5200087912799347  0.1508583056442632  1.0000
  O   O4        1.0  0.04211588252094591  0.479986077211919  0.8491429943732381  1.0000
  O   O5        1.0  0.3313213246242411  0.6396839762358014  0.12501739553587743  1.0000
  O   O6        1.0  0.6686724947534156  0.36031823211001784  0.8749841981670627  1.0000
  O   O7        1.0  0.3567948142892162  0.46042004369439826  0.3770707961461995  1.0000
  O   O8        1.0  0.6432032351279772  0.5395821243141725  0.622928272677754  1.0000
