data_image0
_chemical_formula_structural       Zn8H32C16N80
_chemical_formula_sum              "Zn8 H32 C16 N80"
_cell_length_a       10.289725271307942
_cell_length_b       10.336682534867665
_cell_length_c       20.07016772800116
_cell_angle_alpha    89.99996525674047
_cell_angle_beta     90.0000323471164
_cell_angle_gamma    119.72256632711779

_space_group_name_H-M_alt    "P 1"
_space_group_IT_number       1

loop_
  _space_group_symop_operation_xyz
  'x, y, z'

loop_
  _atom_site_type_symbol
  _atom_site_label
  _atom_site_symmetry_multiplicity
  _atom_site_fract_x
  _atom_site_fract_y
  _atom_site_fract_z
  _atom_site_occupancy
  Zn  Zn1       1.0  0.37078926247132665  0.545874966937859  0.5973108711084476  1.0000
  Zn  Zn2       1.0  0.6292112017587002  0.45412448264791294  0.09731061705947039  1.0000
  Zn  Zn3       1.0  0.6292118610783745  0.45412546790433334  0.40268972913575835  1.0000
  Zn  Zn4       1.0  0.37078839495286087  0.5458748386270571  0.9026889866808073  1.0000
  Zn  Zn5       1.0  0.046099678292144154  0.8787502353552199  0.5962489973814014  1.0000
  Zn  Zn6       1.0  0.9539017568469602  0.12124921470501697  0.09624794451589479  1.0000
  Zn  Zn7       1.0  0.9539013064822228  0.12124797108826608  0.40375160286313155  1.0000
  Zn  Zn8       1.0  0.046096868231181476  0.8787501069910988  0.9037516592242408  1.0000
  H   H1        1.0  0.9352808909345567  0.538153821106583  0.5849024876557463  1.0000
  H   H2        1.0  0.06471956483443365  0.4618456389407584  0.08490206790103368  1.0000
  H   H3        1.0  0.06471870577717459  0.4618455001681881  0.4150976143364743  1.0000
  H   H4        1.0  0.9352800318771275  0.5381536823342116  0.9150975358392514  1.0000
  H   H5        1.0  0.0346082647389281  0.4405911812111185  0.5878091744016629  1.0000
  H   H6        1.0  0.9653921930123135  0.5594082763852911  0.08780948303913758  1.0000
  H   H7        1.0  0.9653913319726329  0.5594081400638515  0.41219042933861505  1.0000
  H   H8        1.0  0.0346074036994253  0.4405910448894729  0.9121906189530831  1.0000
  H   H9        1.0  0.47983856231343947  0.3061725587482017  0.5752697531847772  1.0000
  H   H10       1.0  0.5201628585210045  0.6938269089988935  0.07527038937669768  1.0000
  H   H11       1.0  0.5201635328693397  0.6938278756732713  0.4247298505556925  1.0000
  H   H12       1.0  0.4798372933951002  0.3061735262646508  0.9247297126154305  1.0000
  H   H13       1.0  0.3812780958748263  0.11045185695818559  0.5653814614377239  1.0000
  H   H14       1.0  0.6187233182170219  0.8895476191257287  0.06538206513432238  1.0000
  H   H15       1.0  0.618722472469983  0.8895474638958589  0.4346176440507534  1.0000
  H   H16       1.0  0.38127780533250893  0.1104528157166769  0.9346180368579482  1.0000
  H   H17       1.0  0.803374004370781  0.980489884867538  0.5786453517785191  1.0000
  H   H18       1.0  0.19662700233588742  0.019510694444107902  0.0786446098094515  1.0000
  H   H19       1.0  0.19662711917874992  0.0195105499748749  0.42135475021375157  1.0000
  H   H20       1.0  0.8033720391714712  0.980487512841869  0.9213554921828614  1.0000
  H   H21       1.0  0.607011389433936  0.881446463581625  0.5703982727069243  1.0000
  H   H22       1.0  0.39298919522055803  0.11855523709261463  0.07039855317380977  1.0000
  H   H23       1.0  0.3929887624820054  0.11855397168213236  0.4296013310332609  1.0000
  H   H24       1.0  0.6070095686330887  0.8814463130020016  0.9296015488179419  1.0000
  H   H25       1.0  0.3442051596441971  0.3148241935470751  0.7914891509499353  1.0000
  H   H26       1.0  0.6557961309709625  0.6851784347147785  0.29148883257095537  1.0000
  H   H27       1.0  0.655796102680661  0.6851784696940443  0.20851095104200812  1.0000
  H   H28       1.0  0.3442045761495224  0.31482311453756034  0.7085112694210733  1.0000
  H   H29       1.0  0.006851536415737809  0.628088976748586  0.7077040036597209  1.0000
  H   H30       1.0  0.993148031455469  0.3719103801857599  0.2077043787709556  1.0000
  H   H31       1.0  0.9931486155001963  0.3719114585151714  0.2922956000804646  1.0000
  H   H32       1.0  0.006851010052052765  0.6280878271000034  0.7922962214733003  1.0000
  C   C1        1.0  0.16031233371843007  0.663277851693266  0.5722049036307693  1.0000
  C   C2        1.0  0.8396875581882668  0.3367205050702822  0.07220524531688707  1.0000
  C   C3        1.0  0.83968823462655  0.33672146916056533  0.4277947001096507  1.0000
  C   C4        1.0  0.1603120385234648  0.6632788162044819  0.9277948566753335  1.0000
  C   C5        1.0  0.2522983007281141  0.2082758189885254  0.574977261641706  1.0000
  C   C6        1.0  0.7477021482733124  0.7917236494265084  0.07497743489051348  1.0000
  C   C7        1.0  0.7477018511879977  0.7917246162750261  0.42502284035042226  1.0000
  C   C8        1.0  0.25229744843842644  0.2082756718482557  0.925022667101707  1.0000
  C   C9        1.0  0.7059077257133879  0.7543379837172212  0.5808571132874434  1.0000
  C   C10       1.0  0.29409175566378565  0.24566148016185008  0.08085682727281097  1.0000
  C   C11       1.0  0.2940918709983436  0.24566133755754288  0.41914298870477745  1.0000
  C   C12       1.0  0.7059058977812711  0.7543378419549853  0.9191437729710685  1.0000
  C   C13       1.0  0.36322087176468193  0.5018572066412759  0.7499996855343125  1.0000
  C   C14       1.0  0.6367792801512594  0.4981432286224818  0.24999991820588002  1.0000
  C   C15       1.0  0.05099582626553468  0.8235858919341936  0.7500000884827783  1.0000
  C   C16       1.0  0.9490072405510119  0.17641454206572144  0.250000511761712  1.0000
  N   N1        1.0  0.2948571763528918  0.6744275736674297  0.5607162281290171  1.0000
  N   N2        1.0  0.7051422912909047  0.32557190719214896  0.060716534368523895  1.0000
  N   N3        1.0  0.70514297556322  0.32557286159611465  0.439283873863104  1.0000
  N   N4        1.0  0.29485688899195134  0.6744285284923349  0.939284065875398  1.0000
  N   N5        1.0  0.39164145323331223  0.8202906312720444  0.546130890364928  1.0000
  N   N6        1.0  0.6083595313029023  0.17970997545204884  0.046131214072680386  1.0000
  N   N7        1.0  0.6083596703162185  0.1797098035703684  0.45386921162734223  1.0000
  N   N8        1.0  0.3916400654088293  0.8202893458227152  0.9538688879195402  1.0000
  N   N9        1.0  0.3203753353163279  0.8938294641059628  0.5475219880111124  1.0000
  N   N10       1.0  0.6796246785350277  0.10617114186641881  0.0475223552574775  1.0000
  N   N11       1.0  0.6796257882331959  0.1061709707364429  0.4524781139811508  1.0000
  N   N12       1.0  0.3203739465432849  0.8938281798294838  0.952477746734601  1.0000
  N   N13       1.0  0.17421891370631223  0.7990774535774461  0.5633564282808263  1.0000
  N   N14       1.0  0.8257809721668394  0.20092091064622514  0.06335680827358198  1.0000
  N   N15       1.0  0.8257801278008686  0.2009207537087434  0.4366431754595438  1.0000
  N   N16       1.0  0.1742180693405189  0.7990772966397586  0.9366432937187309  1.0000
  N   N17       1.0  0.03519201566576415  0.5399679348222718  0.5928469843599231  1.0000
  N   N18       1.0  0.9648069186828465  0.4600304049591061  0.09284732380485387  1.0000
  N   N19       1.0  0.9648066094122073  0.46003138687405715  0.4071521211282698  1.0000
  N   N20       1.0  0.03519267802888495  0.5399689163156581  0.9071527781873666  1.0000
  N   N21       1.0  0.23623614244198882  0.3304803210018648  0.5789114375881182  1.0000
  N   N22       1.0  0.7637648644464434  0.6695202580850436  0.07891165357529668  1.0000
  N   N23       1.0  0.7637655363117517  0.6695212278295414  0.42108816615211697  1.0000
  N   N24       1.0  0.236234732265288  0.3304790631897276  0.9210884484169239  1.0000
  N   N25       1.0  0.08626920221772141  0.2810590516127505  0.5762527512488943  1.0000
  N   N26       1.0  0.9137318028578246  0.7189415297156712  0.0762529952143467  1.0000
  N   N27       1.0  0.9137319213318092  0.7189413832296554  0.423747350743369  1.0000
  N   N28       1.0  0.0862683490582796  0.28105890554787283  0.9237471067777815  1.0000
  N   N29       1.0  0.014675587205133017  0.13806536710288952  0.5704765284428319  1.0000
  N   N30       1.0  0.9853244422981573  0.8619352195168232  0.07047625029511548  1.0000
  N   N31       1.0  0.9853251199151886  0.8619361821496555  0.4295230752972614  1.0000
  N   N32       1.0  0.01467473798436459  0.13806521616807998  0.9295233534449281  1.0000
  N   N33       1.0  0.11414236991316781  0.08730921683611112  0.5689125379018377  1.0000
  N   N34       1.0  0.8858561316861967  0.9126902575341591  0.06891321166268229  1.0000
  N   N35       1.0  0.885858753636022  0.9126912180067208  0.43108656758654706  1.0000
  N   N36       1.0  0.11414152175886018  0.08730906458268348  0.931087388581197  1.0000
  N   N37       1.0  0.3814296544661033  0.206570787716899  0.5783056035423327  1.0000
  N   N38       1.0  0.6185713520093685  0.7934297918806054  0.07830623715573638  1.0000
  N   N39       1.0  0.6185725794918399  0.7934318751035008  0.42169350194586736  1.0000
  N   N40       1.0  0.38142768949781214  0.20656841540558452  0.9216933665846341  1.0000
  N   N41       1.0  0.8291675452865661  0.7385471813551305  0.5820514434764943  1.0000
  N   N42       1.0  0.1708309652718967  0.2614522819377498  0.08205211338628259  1.0000
  N   N43       1.0  0.1708320514249948  0.2614521399198466  0.4179481602637835  1.0000
  N   N44       1.0  0.8291662717441213  0.7385481545890187  0.9179484868573621  1.0000
  N   N45       1.0  0.7796993523564809  0.5895660648803087  0.5788581628591272  1.0000
  N   N46       1.0  0.22030012765797122  0.4104334006836865  0.07885880064109327  1.0000
  N   N47       1.0  0.22030024435508017  0.4104332563946614  0.42114144088115774  1.0000
  N   N48       1.0  0.7796990526247143  0.5895670350010035  0.921141301350893  1.0000
  N   N49       1.0  0.6356517623005117  0.5175601421458608  0.5757116922470473  1.0000
  N   N50       1.0  0.36434674393485267  0.48243932649226906  0.07571185100304229  1.0000
  N   N51       1.0  0.3643483896155929  0.4824402931176906  0.4242884097450811  1.0000
  N   N52       1.0  0.6356503543054898  0.5175588816362051  0.9242877527370507  1.0000
  N   N53       1.0  0.5841207143683463  0.6161828680229604  0.576725113868086  1.0000
  N   N54       1.0  0.41587973582473137  0.38381659891866354  0.07672482002092097  1.0000
  N   N55       1.0  0.4158794375477585  0.383817567240591  0.4232749881240351  1.0000
  N   N56       1.0  0.5841187504784174  0.6161804943783196  0.9232757802234204  1.0000
  N   N57       1.0  0.7037759340677141  0.8826067701253207  0.5838670329555453  1.0000
  N   N58       1.0  0.296225076199832  0.11739380478351083  0.08386728579180407  1.0000
  N   N59       1.0  0.2962257446858557  0.11739477870629857  0.416132072532747  1.0000
  N   N60       1.0  0.7037716056118057  0.8826055177544703  0.916133314451933  1.0000
  N   N61       1.0  0.3562391263182576  0.5743096818302645  0.6955237956605059  1.0000
  N   N62       1.0  0.6437604332476994  0.42568968537304386  0.19552455118770945  1.0000
  N   N63       1.0  0.6437610255978542  0.4256907534332868  0.3044763063316224  1.0000
  N   N64       1.0  0.3562387470351638  0.5743107503114401  0.8044760490562195  1.0000
  N   N65       1.0  0.34375304685250546  0.6930952844218156  0.7178509430099708  1.0000
  N   N66       1.0  0.6562466667129668  0.306906292356409  0.2178512409231813  1.0000
  N   N67       1.0  0.6562466886347309  0.3069062652514489  0.2821496572338659  1.0000
  N   N68       1.0  0.3437530687740988  0.6930952573170686  0.7821488610687124  1.0000
  N   N69       1.0  0.3811772971446175  0.37987918472855137  0.7499997071422368  1.0000
  N   N70       1.0  0.6188234099758674  0.6201223645237803  0.25000039484979186  1.0000
  N   N71       1.0  0.08304204619258827  0.910358241092787  0.6954250498862818  1.0000
  N   N72       1.0  0.9169619550441581  0.0896422384979161  0.19542598919428394  1.0000
  N   N73       1.0  0.9169619922572069  0.08964219248619541  0.3045750521064079  1.0000
  N   N74       1.0  0.08304208340597094  0.9103581950806472  0.8045751093022842  1.0000
  N   N75       1.0  0.1375634048433128  0.05289159768376812  0.7178634692624681  1.0000
  N   N76       1.0  0.8624376967931157  0.9471088642528827  0.21786362726804498  1.0000
  N   N77       1.0  0.8624356366640455  0.9471066096022086  0.2821366327298448  1.0000
  N   N78       1.0  0.13756342675641522  0.05289157058953008  0.7821364747242254  1.0000
  N   N79       1.0  0.9909147568798318  0.6729513989506941  0.7500002479119059  1.0000
  N   N80       1.0  0.009087338303118003  0.32704903547056563  0.24999985408049946  1.0000
