data_image0
_chemical_formula_structural       Cd2P2H26C30N4O10
_chemical_formula_sum              "Cd2 P2 H26 C30 N4 O10"
_cell_length_a       8.170580348724316
_cell_length_b       9.482130576341206
_cell_length_c       11.07809239306409
_cell_angle_alpha    101.66770160079312
_cell_angle_beta     99.93949205753643
_cell_angle_gamma    113.41707826657931

_space_group_name_H-M_alt    "P 1"
_space_group_IT_number       1

loop_
  _space_group_symop_operation_xyz
  'x, y, z'

loop_
  _atom_site_type_symbol
  _atom_site_label
  _atom_site_symmetry_multiplicity
  _atom_site_fract_x
  _atom_site_fract_y
  _atom_site_fract_z
  _atom_site_occupancy
  Cd  Cd1       1.0  0.8831502296408543  0.4252620983330075  0.8299926911329649  1.0000
  Cd  Cd2       1.0  0.11684848564244982  0.5747367060323612  0.17000637645271147  1.0000
  P   P1        1.0  0.06601488352723082  0.21135190727707703  0.9772233948370468  1.0000
  P   P2        1.0  0.9339844469344172  0.78864810168357  0.022775962095032323  1.0000
  H   H1        1.0  0.07480671687448386  0.07522913932579908  0.12220104211918677  1.0000
  H   H2        1.0  0.9251938599339834  0.924770877197318  0.8777984637592907  1.0000
  H   H3        1.0  0.41100259561343916  0.5703410338703987  0.43596710611372896  1.0000
  H   H4        1.0  0.5889986098901546  0.4296601839843888  0.5640335928785944  1.0000
  H   H5        1.0  0.6603650554386744  0.05914851825414048  0.6275816240067228  1.0000
  H   H6        1.0  0.3396367947501771  0.9408514993042443  0.3724198383530107  1.0000
  H   H7        1.0  0.2579679258835553  0.7825663793435849  0.926910430103561  1.0000
  H   H8        1.0  0.7420351706521159  0.21743364577726956  0.07309118120257102  1.0000
  H   H9        1.0  0.17612422360107155  0.29416585382794835  0.3176515217225314  1.0000
  H   H10       1.0  0.8238769819025221  0.7058353640268464  0.6823491772697847  1.0000
  H   H11       1.0  0.39611036886559237  0.329965363119939  0.05042231971500398  1.0000
  H   H12       1.0  0.6038895632576171  0.6700358536995806  0.9495764227960564  1.0000
  H   H13       1.0  0.3012374564818074  0.1292676074987043  0.9501385566614997  1.0000
  H   H14       1.0  0.6987637490217861  0.8707336103560832  0.04986214233081642  1.0000
  H   H15       1.0  0.5265605678626027  0.9381237577959496  0.8476988035570725  1.0000
  H   H16       1.0  0.4734418839878103  0.061877467621307886  0.15230204438164208  1.0000
  H   H17       1.0  0.5534455237834733  0.8048394142209077  0.6381310472664835  1.0000
  H   H18       1.0  0.4465550665417765  0.1951605990386085  0.36186936237942996  1.0000
  H   H19       1.0  0.2229919998545639  0.22279370969335585  0.75684947976346  1.0000
  H   H20       1.0  0.7770054985888276  0.7772026822178616  0.24314991289682544  1.0000
  H   H21       1.0  0.32761354062250786  0.421429365277632  0.8576956326534527  1.0000
  H   H22       1.0  0.6723832996188434  0.5785682301935822  0.14230209287198645  1.0000
  H   H23       1.0  0.6595578967798658  0.9034302522850836  0.4137745174163995  1.0000
  H   H24       1.0  0.34044521327259486  0.0965697695721701  0.5862279976571684  1.0000
  H   H25       1.0  0.904190891008241  0.04346352956467569  0.3103038756407699  1.0000
  H   H26       1.0  0.09580843945340681  0.9565364793959645  0.6896954812913093  1.0000
  C   C1        1.0  0.020383554355262744  0.3432340824680082  0.5861296019219039  1.0000
  C   C2        1.0  0.9796182528098993  0.6567683432456587  0.4138704826493934  1.0000
  C   C3        1.0  0.5185257793602387  0.32631504322804256  0.8258285488425939  1.0000
  C   C4        1.0  0.4814723342615038  0.6736825532784536  0.17417113316410138  1.0000
  C   C5        1.0  0.032440405858416496  0.26564365886086705  0.46608699878873233  1.0000
  C   C6        1.0  0.9675582799179734  0.7343575503961828  0.5339115947759294  1.0000
  C   C7        1.0  0.30487005280111396  0.5061933764211163  0.47885359762769036  1.0000
  C   C8        1.0  0.6951274161353705  0.49380542038178266  0.5211453210115876  1.0000
  C   C9        1.0  0.7627796891494824  0.11393506300925077  0.5785344028138083  1.0000
  C   C10       1.0  0.23722336188914972  0.8860697686313656  0.4214671642177377  1.0000
  C   C11       1.0  0.2730820537784026  0.7306543417028879  0.8349040127092734  1.0000
  C   C12       1.0  0.7269191517251911  0.26934687615190706  0.16509668628305005  1.0000
  C   C13       1.0  0.3015230142984108  0.5862714617399404  0.6018154775778368  1.0000
  C   C14       1.0  0.6984781776884005  0.413729759378448  0.3981843176470503  1.0000
  C   C15       1.0  0.17523419616873775  0.3519222978743883  0.4130508088846624  1.0000
  C   C16       1.0  0.8247651183027854  0.6480801127143394  0.5869489777938454  1.0000
  C   C17       1.0  0.29318540860846537  0.2439653445989194  0.9602474324251558  1.0000
  C   C18       1.0  0.7068151817167843  0.7560346686605965  0.03975297722075055  1.0000
  C   C19       1.0  0.42368411918972965  0.8163526068561849  0.7910322863997691  1.0000
  C   C20       1.0  0.5763177039655573  0.18364741722939468  0.20896736842510677  1.0000
  C   C21       1.0  0.43742982469690617  0.7434403724698129  0.6745717229030602  1.0000
  C   C22       1.0  0.5625701344598683  0.2565608378225122  0.3254288271428649  1.0000
  C   C23       1.0  0.15662194334624488  0.5076601953937538  0.6548345798747518  1.0000
  C   C24       1.0  0.8433767719370592  0.4923386089716146  0.34516448771091746  1.0000
  C   C25       1.0  0.3320383036058485  0.3054333733973067  0.8462025961488493  1.0000
  C   C26       1.0  0.6679567021439111  0.6945630033889713  0.1537964986186466  1.0000
  C   C27       1.0  0.7643274477976616  0.027791909571519096  0.4599404936115974  1.0000
  C   C28       1.0  0.23567192321433308  0.9722080895983322  0.5400615746227756  1.0000
  C   C29       1.0  0.8985729681218969  0.10450450106725379  0.4031318914913484  1.0000
  C   C30       1.0  0.10143070056842857  0.8954991368041546  0.5968686313727573  1.0000
  N   N1        1.0  0.1442611084141844  0.5814362166265994  0.7689223700979751  1.0000
  N   N2        1.0  0.8557394819110653  0.41856379663290966  0.23107803954793127  1.0000
  N   N3        1.0  0.8857449381000887  0.26651209487896915  0.6387019686924518  1.0000
  N   N4        1.0  0.11425255786996036  0.7334866953967348  0.3612987574816912  1.0000
  O   O1        1.0  0.045313735903150035  0.3672005434237846  0.9858756553374093  1.0000
  O   O2        1.0  0.9546837465501168  0.6327982501155133  0.01412416706929775  1.0000
  O   O3        1.0  0.06190466917578158  0.18035487769637368  0.11168483693852237  1.0000
  O   O4        1.0  0.9380946748026486  0.8196451280006727  0.8883154237609927  1.0000
  O   O5        1.0  0.9184829335336246  0.06829001650049087  0.8651518055544045  1.0000
  O   O6        1.0  0.0815157952664619  0.9317087846012767  0.13484816579870074  1.0000
  O   O7        1.0  0.5961113754000067  0.43233075447273706  0.7714598486268115  1.0000
  O   O8        1.0  0.40388672223160416  0.5676692436618465  0.2285402631263053  1.0000
  O   O9        1.0  0.5928193899895147  0.24207824261856095  0.863652681140472  1.0000
  O   O10       1.0  0.4071787371490102  0.7579193506243342  0.13634790463365215  1.0000
