data_image0
_chemical_formula_structural       Gd4H32C20O32
_chemical_formula_sum              "Gd4 H32 C20 O32"
_cell_length_a       9.654013903438731
_cell_length_b       9.6539959675545
_cell_length_c       13.743565265384392
_cell_angle_alpha    99.87392018632333
_cell_angle_beta     99.87401938798172
_cell_angle_gamma    120.8950677921061

_space_group_name_H-M_alt    "P 1"
_space_group_IT_number       1

loop_
  _space_group_symop_operation_xyz
  'x, y, z'

loop_
  _atom_site_type_symbol
  _atom_site_label
  _atom_site_symmetry_multiplicity
  _atom_site_fract_x
  _atom_site_fract_y
  _atom_site_fract_z
  _atom_site_occupancy
  Gd  Gd1       1.0  0.0015137354716329872  0.2513898656641588  0.5024181692202063  1.0000
  Gd  Gd2       1.0  0.24865779328886364  0.49858118189577283  0.9975809671028556  1.0000
  Gd  Gd3       1.0  0.9985472885380561  0.748650731791827  0.49758131634293795  1.0000
  Gd  Gd4       1.0  0.7513730313072599  0.5014701292077035  0.002415530575753221  1.0000
  H   H1        1.0  0.4546839359062247  0.8590438747952193  0.5140950357962808  1.0000
  H   H2        1.0  0.8442503921710909  0.9409463467932753  0.9862941951016921  1.0000
  H   H3        1.0  0.6410040681782405  0.045321739619673486  0.9859318814639193  1.0000
  H   H4        1.0  0.5590332052031924  0.6557730090162224  0.5137052930684973  1.0000
  H   H5        1.0  0.5453565662972438  0.14096515792807202  0.48591441703632643  1.0000
  H   H6        1.0  0.15574000326679993  0.05907581281364571  0.013698597740578605  1.0000
  H   H7        1.0  0.35898973938807904  0.9546968890643656  0.014060169912255623  1.0000
  H   H8        1.0  0.4410051537270618  0.34423369407142007  0.4863160115250409  1.0000
  H   H9        1.0  0.5060177838585247  0.9048230385097967  0.6483072241441192  1.0000
  H   H10       1.0  0.755928476779289  0.8574012272121581  0.8520893252356103  1.0000
  H   H11       1.0  0.5952010009026124  0.9939903170809005  0.8517178988572454  1.0000
  H   H12       1.0  0.6425972361845498  0.7440879332423977  0.6479071861238168  1.0000
  H   H13       1.0  0.49400663662709815  0.0951753182208179  0.3517005803232962  1.0000
  H   H14       1.0  0.24405496412392577  0.1426034471261701  0.1479071818666071  1.0000
  H   H15       1.0  0.40478580394998437  0.006016882378837406  0.1482734698861918  1.0000
  H   H16       1.0  0.3574420529614742  0.25592864666063525  0.3521139166624963  1.0000
  H   H17       1.0  0.8033670016870786  0.9062941995363972  0.3411005323646847  1.0000
  H   H18       1.0  0.06527969699831708  0.46249874475063285  0.15887428781304183  1.0000
  H   H19       1.0  0.5938340746217392  0.6968742063208991  0.15884392457267896  1.0000
  H   H20       1.0  0.037707150339322544  0.4348346393275835  0.34116453365501803  1.0000
  H   H21       1.0  0.1967729298390637  0.09377935857207122  0.658873362059765  1.0000
  H   H22       1.0  0.9347866600350514  0.5376224396814351  0.8411460792304977  1.0000
  H   H23       1.0  0.4062487825876032  0.30327983353889465  0.841118131431017  1.0000
  H   H24       1.0  0.9624088181198901  0.5652362976790786  0.6588615810019931  1.0000
  H   H25       1.0  0.7502917749550305  0.004651121658177694  0.2796348250494631  1.0000
  H   H26       1.0  0.22505090808560618  0.47064171780958475  0.22028387941226413  1.0000
  H   H27       1.0  0.49465973349835907  0.7487579937489598  0.22021874705840358  1.0000
  H   H28       1.0  0.028507211493760582  0.2743568445125391  0.2798485205400567  1.0000
  H   H29       1.0  0.24913362590589833  0.9949230185255049  0.7202753931036128  1.0000
  H   H30       1.0  0.7745951585748827  0.5288522043558359  0.7797932597686242  1.0000
  H   H31       1.0  0.5049246645451717  0.25067528725794125  0.7796855702854584  1.0000
  H   H32       1.0  0.9709971563040368  0.7253010126644456  0.720238474930042  1.0000
  C   C1        1.0  0.2971421127947664  0.6522477943410295  0.5635648540442588  1.0000
  C   C2        1.0  0.588040319997468  0.7333794960334147  0.9365419102323359  1.0000
  C   C3        1.0  0.8477778511412524  0.20287954837697705  0.9364532583139746  1.0000
  C   C4        1.0  0.7666398753065309  0.9119800513552506  0.5634502698041856  1.0000
  C   C5        1.0  0.7029047755096657  0.3477453975519965  0.43643549758115807  1.0000
  C   C6        1.0  0.4119544059485776  0.26666894110987743  0.06346316515545422  1.0000
  C   C7        1.0  0.1522048896052156  0.7971482369296513  0.06353275005007937  1.0000
  C   C8        1.0  0.2334094366677562  0.08803569399858452  0.4365653496227679  1.0000
  C   C9        1.0  0.47047123823183745  0.8064920016280154  0.5769351576520235  1.0000
  C   C10       1.0  0.7287412182021739  0.8933750615119251  0.9232629104769428  1.0000
  C   C11       1.0  0.693550677117898  0.0295421936891884  0.9230817663937003  1.0000
  C   C12       1.0  0.6066314404740609  0.7712924988171539  0.57674317753483  1.0000
  C   C13       1.0  0.5295708728523394  0.1935220880989164  0.4230772514307972  1.0000
  C   C14       1.0  0.2712587982510684  0.10665136016087473  0.0767344034425008  1.0000
  C   C15       1.0  0.30644075239109025  0.9704860790461115  0.07690676171107214  1.0000
  C   C16       1.0  0.3934143404005467  0.22871445007951513  0.42327173964826403  1.0000
  C   C17       1.0  0.07902040118150211  0.42096361727793413  0.749993147623421  1.0000
  C   C18       1.0  0.17116689175981042  0.32881756141809876  0.7499996194216721  1.0000
  C   C19       1.0  0.9209558855030977  0.5790072961892038  0.24999279210251762  1.0000
  C   C20       1.0  0.828802513219358  0.6711481480266102  0.2499892845251636  1.0000
  O   O1        1.0  0.27715347922735833  0.5111981515627234  0.5615419412850642  1.0000
  O   O2        1.0  0.4489161982634543  0.7151943056870423  0.9385093391158819  1.0000
  O   O3        1.0  0.9888548582133367  0.2228902519494937  0.9384948355684628  1.0000
  O   O4        1.0  0.7848217700120658  0.05107993372531891  0.5614558241178287  1.0000
  O   O5        1.0  0.7229039850798741  0.4888269107659299  0.4384888027500793  1.0000
  O   O6        1.0  0.5510477887028317  0.2848221819859661  0.06145062533369134  1.0000
  O   O7        1.0  0.011159765285711469  0.77716960142336  0.061539340887641535  1.0000
  O   O8        1.0  0.21520875795018654  0.9488923318607904  0.43852273811416603  1.0000
  O   O9        1.0  0.17486021572496924  0.6718022524984307  0.5529109909036123  1.0000
  O   O10       1.0  0.6184061699592291  0.6218259210399638  0.9470942996321838  1.0000
  O   O11       1.0  0.8281844967687916  0.3251334814372839  0.9470668170568074  1.0000
  O   O12       1.0  0.8781872154949683  0.8815942120045721  0.5529295705008366  1.0000
  O   O13       1.0  0.825154139886223  0.328169824074223  0.4470372939279486  1.0000
  O   O14       1.0  0.38160343035038846  0.37825397838332014  0.05297145435819323  1.0000
  O   O15       1.0  0.1717585162407432  0.6748693020766441  0.05287529899089805  1.0000
  O   O16       1.0  0.12189640573303248  0.118421825630854  0.4471373617916754  1.0000
  O   O17       1.0  0.004342686846413815  0.4149438634278725  0.6625976305969985  1.0000
  O   O18       1.0  0.2517973404559086  0.34076606565949424  0.8374212839470231  1.0000
  O   O19       1.0  0.08503195895981716  0.4956482860865847  0.8373922542476888  1.0000
  O   O20       1.0  0.15923737412534683  0.24819390295439803  0.6625895817983433  1.0000
  O   O21       1.0  0.9956411660549732  0.5850252034045269  0.3373998877870931  1.0000
  O   O22       1.0  0.748185010964697  0.6592141275041002  0.1625831723250784  1.0000
  O   O23       1.0  0.9149423765167909  0.5043288306820203  0.16260145551952826  1.0000
  O   O24       1.0  0.8407596172826999  0.7517981805339887  0.33741940719136215  1.0000
  O   O25       1.0  0.7791495558305856  0.99633278992048  0.3487631182787254  1.0000
  O   O26       1.0  0.14743343439958065  0.43033381519839503  0.1511624667986666  1.0000
  O   O27       1.0  0.504051169167461  0.7214616331678345  0.151224963346543  1.0000
  O   O28       1.0  0.07015919116412313  0.35287248679865973  0.34883930636102184  1.0000
  O   O29       1.0  0.2212424045099795  0.003913667897457193  0.6512316856382654  1.0000
  O   O30       1.0  0.8527353376841303  0.5699421564021064  0.8488411625450496  1.0000
  O   O31       1.0  0.4961735247233605  0.27889793729385565  0.8487613762052106  1.0000
  O   O32       1.0  0.9301407057356172  0.6473240805110122  0.6511666836957062  1.0000
