data_image0
_chemical_formula_structural       Ag2H8C10S2N2O6
_chemical_formula_sum              "Ag2 H8 C10 S2 N2 O6"
_cell_length_a       6.688570776435125
_cell_length_b       6.9810637010748735
_cell_length_c       7.737299869813965
_cell_angle_alpha    74.04497956037449
_cell_angle_beta     67.77492939493902
_cell_angle_gamma    84.82613679985171

_space_group_name_H-M_alt    "P 1"
_space_group_IT_number       1

loop_
  _space_group_symop_operation_xyz
  'x, y, z'

loop_
  _atom_site_type_symbol
  _atom_site_label
  _atom_site_symmetry_multiplicity
  _atom_site_fract_x
  _atom_site_fract_y
  _atom_site_fract_z
  _atom_site_occupancy
  Ag  Ag1       1.0  0.5099396372347726  0.6244841278364249  0.17695606207819026  1.0000
  Ag  Ag2       1.0  0.4900637670995708  0.3755098453316493  0.823040460067304  1.0000
  H   H1        1.0  0.09380894691516768  0.9576850066434873  0.6332170646933405  1.0000
  H   H2        1.0  0.906201001531649  0.042313352556583105  0.3667840151557228  1.0000
  H   H3        1.0  0.8858850330720145  0.0964144267025659  0.9158454876499884  1.0000
  H   H4        1.0  0.11412493811536  0.9035854367749608  0.08415393172857219  1.0000
  H   H5        1.0  0.9576395214622692  0.4503233499007919  0.893075576002644  1.0000
  H   H6        1.0  0.04235592977052959  0.549678070306406  0.10692176964388982  1.0000
  H   H7        1.0  0.22763007947654756  0.6548558369417421  0.5846693734494648  1.0000
  H   H8        1.0  0.7723703707295257  0.3451544672602012  0.4153293736598299  1.0000
  C   C1        1.0  0.26202653126883035  0.23555238885893465  0.4625852596368388  1.0000
  C   C2        1.0  0.7379655498920314  0.7644400332608257  0.5374205176978462  1.0000
  C   C3        1.0  0.11662784328999008  0.1114265323800012  0.627588958002505  1.0000
  C   C4        1.0  0.883369303339094  0.8885793008960337  0.37241194401436656  1.0000
  C   C5        1.0  0.0038232166177465006  0.18817592087336277  0.7855422717930693  1.0000
  C   C6        1.0  0.9961753755547208  0.8118194689758199  0.21446195150126354  1.0000
  C   C7        1.0  0.04453703326427671  0.38469025850023547  0.7734774236134354  1.0000
  C   C8        1.0  0.955469847644707  0.6153186009027896  0.22651568328352306  1.0000
  C   C9        1.0  0.1925173341023481  0.4998226886077434  0.602213533618318  1.0000
  C   C10       1.0  0.8074846088549351  0.5001801663931218  0.3977865091964997  1.0000
  S   S1        1.0  0.41288190758831433  0.1413367066083282  0.256205577093226  1.0000
  S   S2        1.0  0.5871134736960996  0.8586602150956395  0.7437954545957408  1.0000
  N   N1        1.0  0.297749683127563  0.42722081863499295  0.44717650503253026  1.0000
  N   N2        1.0  0.7022441092632618  0.5727775781476511  0.5528259867257217  1.0000
  O   O1        1.0  0.6305505865200304  0.22808488045353675  0.17549391753016855  1.0000
  O   O2        1.0  0.3694543053853677  0.771901686500904  0.8245000142136404  1.0000
  O   O3        1.0  0.39925871077411296  0.9248179480816817  0.3312642405627172  1.0000
  O   O4        1.0  0.6007303114825006  0.0751849025952964  0.66874004066522  1.0000
  O   O5        1.0  0.29284370966747286  0.21507088361050117  0.12241743631687288  1.0000
  O   O6        1.0  0.7071533618330647  0.7849304941497409  0.8775832656352306  1.0000
