data_image0
_chemical_formula_structural       Ho2H42C54O12
_chemical_formula_sum              "Ho2 H42 C54 O12"
_cell_length_a       7.863631605
_cell_length_b       11.278044130622524
_cell_length_c       13.071
_cell_angle_alpha    94.23370949527508
_cell_angle_beta     90.0
_cell_angle_gamma    90.0

_space_group_name_H-M_alt    "P 1"
_space_group_IT_number       1

loop_
  _space_group_symop_operation_xyz
  'x, y, z'

loop_
  _atom_site_type_symbol
  _atom_site_label
  _atom_site_symmetry_multiplicity
  _atom_site_fract_x
  _atom_site_fract_y
  _atom_site_fract_z
  _atom_site_occupancy
  Ho  Ho1       1.0  0.5147227392273024  0.5411704938859998  0.47452751085456407  1.0000
  Ho  Ho2       1.0  0.0147272921491322  0.4588242800452421  0.5254729978111783  1.0000
  H   H1        1.0  0.6894155617047133  0.1242097105928863  0.6077711827135914  1.0000
  H   H2        1.0  0.1893921377309979  0.8757859524430958  0.39223244279627073  1.0000
  H   H3        1.0  0.352535589057517  0.2643255050106745  0.6027455955778009  1.0000
  H   H4        1.0  0.8525195910420607  0.7356674907110801  0.39727010086707537  1.0000
  H   H5        1.0  0.5545109713974199  0.9554568501167681  0.5973127020781916  1.0000
  H   H6        1.0  0.054510437610972  0.0445343673955065  0.4026921703639985  1.0000
  H   H7        1.0  0.3915837051728204  0.7757527779802658  0.6282627602095586  1.0000
  H   H8        1.0  0.8915931406987596  0.2242375504272616  0.3717367002312955  1.0000
  H   H9        1.0  0.0823945007276308  0.7881931315229239  0.6664914994643993  1.0000
  H   H10       1.0  0.5824090229618548  0.2118096443509927  0.3335087538594052  1.0000
  H   H11       1.0  0.9339781374460756  0.984159818485651  0.6703329851603499  1.0000
  H   H12       1.0  0.4339776036596277  0.0158456247024858  0.329673558486185  1.0000
  H   H13       1.0  0.0980157818570646  0.1668316136894887  0.6379889961280297  1.0000
  H   H14       1.0  0.5979985121645299  0.8331720512891607  0.3620227896163541  1.0000
  H   H15       1.0  0.422107769887063  0.6270162239891803  0.7589330835521082  1.0000
  H   H16       1.0  0.9220943152257419  0.3729821063610218  0.24106612154680818  1.0000
  H   H17       1.0  0.1893018486590208  0.4522875819859493  0.8640253303533854  1.0000
  H   H18       1.0  0.6892871223206285  0.54771430478322  0.1359733362311104  1.0000
  H   H19       1.0  0.1898817334029985  0.453755493914116  0.042927647309951994  1.0000
  H   H20       1.0  0.6898733654499551  0.5462455037503133  0.9570656072732006  1.0000
  H   H21       1.0  0.253442696722054  0.5500962163856187  0.21653742329269926  1.0000
  H   H22       1.0  0.7534508605709291  0.44990833769777794  0.7834591180380599  1.0000
  H   H23       1.0  0.4221357467826081  0.7363094243344221  0.2334543617940668  1.0000
  H   H24       1.0  0.9221439106314833  0.2636977970632017  0.7665492349118351  1.0000
  H   H25       1.0  0.5266714169782105  0.827499563038586  0.07683015558760078  1.0000
  H   H26       1.0  0.0266759699000403  0.1725103256732652  0.9231759061790115  1.0000
  H   H27       1.0  0.4639332287235263  0.7328472504711386  0.9050600071600883  1.0000
  H   H28       1.0  0.9639261324475541  0.2671635273454527  0.09494764134583282  1.0000
  H   H29       1.0  0.6548984309902721  0.8182466499941015  0.7385083757196682  1.0000
  H   H30       1.0  0.154910613974522  0.1817543476703278  0.2614887041255187  1.0000
  H   H31       1.0  0.9516887840017247  0.6695518839258626  0.8150990412446291  1.0000
  H   H32       1.0  0.4516920652464904  0.33045178105279405  0.1848982085040447  1.0000
  H   H33       1.0  0.706541236808107  0.9599130430810163  0.8626122377463332  1.0000
  H   H34       1.0  0.2065356163133742  0.0400932892118604  0.1373867120106382  1.0000
  H   H35       1.0  0.6971231964267446  0.0745460979438377  0.030245364218053804  1.0000
  H   H36       1.0  0.1971086741925276  0.9254584561395589  0.969755767427145  1.0000
  H   H37       1.0  0.8367711422056132  0.9967353159490102  0.1826205202964175  1.0000
  H   H38       1.0  0.3367667933879517  0.0032630144011989  0.8173763896452826  1.0000
  H   H39       1.0  0.9889273036462427  0.8019093503695842  0.16526283582182089  1.0000
  H   H40       1.0  0.4889318565680724  0.198089869085365  0.8347348958067755  1.0000
  H   H41       1.0  0.9998243044601551  0.6866262513810568  0.9962945224945372  1.0000
  H   H42       1.0  0.4998326724131914  0.3133685225501779  0.0037006308043601027  1.0000
  C   C1        1.0  0.6793845729755574  0.3140904756002527  0.5899955660680334  1.0000
  C   C2        1.0  0.1793814958349671  0.6859051874357291  0.41000652933701787  1.0000
  C   C3        1.0  0.6011103059551315  0.19812009864656943  0.6032411439257287  1.0000
  C   C4        1.0  0.10109069701263  0.80188089901786  0.3967620563387015  1.0000
  C   C5        1.0  0.4305796825282471  0.18469461705036852  0.6070420719800111  1.0000
  C   C6        1.0  0.9305738579293459  0.8152957113571588  0.3929665690897153  1.0000
  C   C7        1.0  0.3386132684937735  0.07495864254387641  0.618982529319922  1.0000
  C   C8        1.0  0.8386074438948725  0.9250343531778783  0.3810148058672098  1.0000
  C   C9        1.0  0.4194372480397988  0.9631164874645322  0.6155016257806949  1.0000
  C   C10       1.0  0.9194403251803891  0.0368720627335151  0.3844946611815486  1.0000
  C   C11       1.0  0.3274364987244311  0.8614464711726626  0.6329004049686162  1.0000
  C   C12       1.0  0.8274446625733063  0.1385465245490991  0.3670969302185084  1.0000
  C   C13       1.0  0.1529636763801605  0.8687531339380641  0.6535547952008258  1.0000
  C   C14       1.0  0.6529718402290285  0.1312478637263652  0.34644457980157733  1.0000
  C   C15       1.0  0.0703224703009226  0.9785362309958573  0.6551832487539855  1.0000
  C   C16       1.0  0.5703217324102994  0.021462988459092  0.34481677803182714  1.0000
  C   C17       1.0  0.1618946644436576  0.0808605198177617  0.6372981829745825  1.0000
  C   C18       1.0  0.6618862964906143  0.9191360323229604  0.3627047341173721  1.0000
  C   C19       1.0  0.2573556470668379  0.4980675851242609  0.6759178004316482  1.0000
  C   C20       1.0  0.7573421924055168  0.5019307452259483  0.32408752508651867  1.0000
  C   C21       1.0  0.3320971951864493  0.5553890569115936  0.76921562880986  1.0000
  C   C22       1.0  0.8320862838792635  0.4446181644860303  0.23078337758160927  1.0000
  C   C23       1.0  0.2791776255902079  0.5263322248556008  0.8626543291826961  1.0000
  C   C24       1.0  0.7791667142830221  0.47367766385624327  0.13734255195504366  1.0000
  C   C25       1.0  0.3237117565860359  0.5850744860198063  0.9617591310637721  1.0000
  C   C26       1.0  0.8236995736017789  0.4149327353778177  0.0382421704849136  1.0000
  C   C27       1.0  0.2642150731830952  0.5355904725285328  0.05110880292385641  1.0000
  C   C28       1.0  0.7642092485841943  0.4644105251358965  0.9488867468165124  1.0000
  C   C29       1.0  0.2989420306141142  0.5898107469776122  0.1480917311410224  1.0000
  C   C30       1.0  0.7989501944629822  0.41019469621052457  0.8519071619814511  1.0000
  C   C31       1.0  0.3934785040073123  0.6950185110357978  0.1575298835060011  1.0000
  C   C32       1.0  0.8934879395332516  0.3049895994665661  0.842472239729588  1.0000
  C   C33       1.0  0.4530692915134367  0.7454663140668245  0.0696332337662255  1.0000
  C   C34       1.0  0.953066010268671  0.2545417964355394  0.9303734797837959  1.0000
  C   C35       1.0  0.4185279989346569  0.6914443099750898  0.9727470908063296  1.0000
  C   C36       1.0  0.9185145442733358  0.3085602441083068  0.027256335996085596  1.0000
  C   C37       1.0  0.7723339933852387  0.6734568319504035  0.6439286077376422  1.0000
  C   C38       1.0  0.2723423613382749  0.3265414983998056  0.35606830220405067  1.0000
  C   C39       1.0  0.7567915562341483  0.7525933776744509  0.738194476233275  1.0000
  C   C40       1.0  0.2567986525101205  0.2473933943141162  0.26180705282681765  1.0000
  C   C41       1.0  0.8577995942372212  0.7414555625780537  0.8206569231778785  1.0000
  C   C42       1.0  0.357810505544407  0.2585454350863756  0.1793348013004632  1.0000
  C   C43       1.0  0.8517909200808731  0.8135904084630212  0.9176119797778811  1.0000
  C   C44       1.0  0.351789114617354  0.1864114783061481  0.0823813314397626  1.0000
  C   C45       1.0  0.7674316782798982  0.9241185752941662  0.9286750860613963  1.0000
  C   C46       1.0  0.2674196993998166  0.0758895352081979  0.0713224468597602  1.0000
  C   C47       1.0  0.7628892477854095  0.9892935092629003  0.023194611361475378  1.0000
  C   C48       1.0  0.2628810839365343  0.0107128230299764  0.9768012781858744  1.0000
  C   C49       1.0  0.8420613188173363  0.9456295754092992  0.10866514651635838  1.0000
  C   C50       1.0  0.3420569699996747  0.05437142225513721  0.8913288731191998  1.0000
  C   C51       1.0  0.9272026420164394  0.8365559839351988  0.0989417296901891  1.0000
  C   C52       1.0  0.427198293198785  0.1634432355197504  0.9010537067811909  1.0000
  C   C53       1.0  0.9330485415078158  0.7715891004759641  0.004059816130776995  1.0000
  C   C54       1.0  0.4330505510755032  0.22840922987424517  0.9959340336012942  1.0000
  O   O1        1.0  0.5846191977097348  0.4059483319652628  0.5845760069728883  1.0000
  O   O2        1.0  0.0846161205691445  0.5940437746517588  0.415428922103807  1.0000
  O   O3        1.0  0.8418095267574515  0.3184488670429388  0.5848000034541201  1.0000
  O   O4        1.0  0.3418039062627187  0.6815485742025231  0.41519761490548746  1.0000
  O   O5        1.0  0.2861616760593435  0.5437951310828169  0.5882009310637812  1.0000
  O   O6        1.0  0.7861444063668088  0.4561951973247176  0.41179929442947827  1.0000
  O   O7        1.0  0.1535435611241383  0.4118315380395715  0.6771105003751287  1.0000
  O   O8        1.0  0.6535301064628172  0.5881650141011505  0.3228931817692313  1.0000
  O   O9        1.0  0.6526831695341073  0.6772453072538056  0.5774022737407094  1.0000
  O   O10       1.0  0.1526877224559371  0.3227530230963964  0.42259387114857816  1.0000
  O   O11       1.0  0.9005826259074892  0.604646348693791  0.6316394426263299  1.0000
  O   O12       1.0  0.4005846354751768  0.39535909449434575  0.36835409512929823  1.0000
