data_image0
_chemical_formula_structural       Ga2P2H8C10N2O8
_chemical_formula_sum              "Ga2 P2 H8 C10 N2 O8"
_cell_length_a       4.997959106933371
_cell_length_b       5.7965173073647485
_cell_length_c       11.611393925344709
_cell_angle_alpha    79.34536412475677
_cell_angle_beta     87.83828027301325
_cell_angle_gamma    87.69711356620033

_space_group_name_H-M_alt    "P 1"
_space_group_IT_number       1

loop_
  _space_group_symop_operation_xyz
  'x, y, z'

loop_
  _atom_site_type_symbol
  _atom_site_label
  _atom_site_symmetry_multiplicity
  _atom_site_fract_x
  _atom_site_fract_y
  _atom_site_fract_z
  _atom_site_occupancy
  Ga  Ga1       1.0  0.6674782122811038  0.793714427607071  0.8973366946630963  1.0000
  Ga  Ga2       1.0  0.3325147544138857  0.20628327721102122  0.10266446280635932  1.0000
  P   P1        1.0  0.1451434999246928  0.7232022309322089  0.07767043181412704  1.0000
  P   P2        1.0  0.8548514452495934  0.2767954807642354  0.9223315641036862  1.0000
  H   H1        1.0  0.28697629584345913  0.5493196344073397  0.7780477540566938  1.0000
  H   H2        1.0  0.7130164428416279  0.45068336641080015  0.22195462093996104  1.0000
  H   H3        1.0  0.9675914871070362  0.6180185134353593  0.6182100034466913  1.0000
  H   H4        1.0  0.032411490440018995  0.38198260422392855  0.38178640802858876  1.0000
  H   H5        1.0  0.5713185193961577  0.21938049029456863  0.6882122573837323  1.0000
  H   H6        1.0  0.4286903458601756  0.7806206748616521  0.31178839001088227  1.0000
  H   H7        1.0  0.27079895615695904  0.319954641779553  0.5188914375320266  1.0000
  H   H8        1.0  0.7292099568279867  0.6800464965147983  0.48110748928833413  1.0000
  C   C1        1.0  0.28001513412212375  0.7156363007112532  0.7164793001309634  1.0000
  C   C2        1.0  0.7199757215408978  0.2843666395047962  0.2835187952688187  1.0000
  C   C3        1.0  0.10216604688502427  0.7571100140717067  0.625396333472807  1.0000
  C   C4        1.0  0.89784290232938  0.242889381274189  0.3746036213170356  1.0000
  C   C5        1.0  0.09232597091387619  0.9756079470151136  0.54951578534655  1.0000
  C   C6        1.0  0.9076808911328696  0.024396670297797105  0.45048024708648887  1.0000
  C   C7        1.0  0.26526059607669333  0.14539188184951973  0.5729221953934882  1.0000
  C   C8        1.0  0.7347503678464591  0.8546057774262721  0.4270796258141871  1.0000
  C   C9        1.0  0.4362062126699654  0.0920657430375371  0.6663702947355006  1.0000
  C   C10       1.0  0.5637948712218375  0.9079301523289586  0.33362922248697674  1.0000
  N   N1        1.0  0.4462693002916112  0.8797013993532871  0.736182110222508  1.0000
  N   N2        1.0  0.5537333537883029  0.12030506802979349  0.26381895992848575  1.0000
  O   O1        1.0  0.8502967730965878  0.7154056115673768  0.04529530356782634  1.0000
  O   O2        1.0  0.149700185920473  0.2845938096630718  0.9547039219674858  1.0000
  O   O3        1.0  0.32274199956759725  0.7755047760333227  0.9655646255766684  1.0000
  O   O4        1.0  0.6772530171996181  0.22449289537031805  0.03443478947976081  1.0000
  O   O5        1.0  0.17519348242758073  0.9134972671906854  0.15472268421638094  1.0000
  O   O6        1.0  0.8248035251840803  0.0864986815737865  0.8452794575450187  1.0000
  O   O7        1.0  0.22899994495070083  0.48599095277225496  0.1573720669631982  1.0000
  O   O8        1.0  0.7709930456085983  0.514006738614903  0.8426282302191267  1.0000
