data_image0
_chemical_formula_structural       Ni2H28C28N16O8
_chemical_formula_sum              "Ni2 H28 C28 N16 O8"
_cell_length_a       7.679786434103382
_cell_length_b       8.864289840081602
_cell_length_c       12.900025122608232
_cell_angle_alpha    89.99892767632596
_cell_angle_beta     89.99995218659154
_cell_angle_gamma    99.1509061228772

_space_group_name_H-M_alt    "P 1"
_space_group_IT_number       1

loop_
  _space_group_symop_operation_xyz
  'x, y, z'

loop_
  _atom_site_type_symbol
  _atom_site_label
  _atom_site_symmetry_multiplicity
  _atom_site_fract_x
  _atom_site_fract_y
  _atom_site_fract_z
  _atom_site_occupancy
  Ni  Ni1       1.0  0.9999970429295998  0.9999981729075382  0.9999977394738622  1.0000
  Ni  Ni2       1.0  0.9999997579219978  0.5000058698383112  0.4999956829169534  1.0000
  H   H1        1.0  0.6521973492055508  0.9305133337877151  0.9638905583964714  1.0000
  H   H2        1.0  0.3478072919777447  0.5694840511572605  0.4638892231942222  1.0000
  H   H3        1.0  0.3477939203876232  0.06948131769043897  0.036109506677583204  1.0000
  H   H4        1.0  0.652199259866279  0.4305165712763283  0.5361116170316222  1.0000
  H   H5        1.0  0.670526258102015  0.050826999302351794  0.05732193127097669  1.0000
  H   H6        1.0  0.3294652829463018  0.4491691174975826  0.5573169393010247  1.0000
  H   H7        1.0  0.3294720909796708  0.9491711970930861  0.9426789089716721  1.0000
  H   H8        1.0  0.6705280243833515  0.550830127224664  0.442681575358975  1.0000
  H   H9        1.0  0.271991651121283  0.865411880028354  0.5635329016571262  1.0000
  H   H10       1.0  0.7280242619202753  0.6345845698890215  0.0635344857900222  1.0000
  H   H11       1.0  0.7280145090031169  0.13459443091869613  0.4364725896864385  1.0000
  H   H12       1.0  0.27197393018587945  0.36540451064811197  0.9364671297027556  1.0000
  H   H13       1.0  0.23634610325770208  0.8986525830154332  0.7546431774920705  1.0000
  H   H14       1.0  0.7636624487157564  0.6013496873429034  0.2546513725309936  1.0000
  H   H15       1.0  0.76365449234968  0.101343375533105  0.24536231391811472  1.0000
  H   H16       1.0  0.23634094210973441  0.3986474606924941  0.7453541188711625  1.0000
  H   H17       1.0  0.7491316364784313  0.7633853426910661  0.7960485177641347  1.0000
  H   H18       1.0  0.2508715806422401  0.7366167926400705  0.2960450958205528  1.0000
  H   H19       1.0  0.2508784680570955  0.23661306543890956  0.2039561984365932  1.0000
  H   H20       1.0  0.7491254881846032  0.2633734067540415  0.7039588452421911  1.0000
  H   H21       1.0  0.7689465160756584  0.7417941075936695  0.6021195716020102  1.0000
  H   H22       1.0  0.23106426494046425  0.7582034302052634  0.1021151074207793  1.0000
  H   H23       1.0  0.231060009840931  0.25821448823148063  0.39788359415013735  1.0000
  H   H24       1.0  0.768942887406915  0.24178467260170314  0.8978888336535321  1.0000
  H   H25       1.0  0.5281220839611863  0.7819590796502421  0.5005381607508141  1.0000
  H   H26       1.0  0.47189056538397267  0.7180322692575627  0.0005387744139114  1.0000
  H   H27       1.0  0.4718855652347144  0.21804839731792913  0.4994626794313675  1.0000
  H   H28       1.0  0.5281115452031456  0.28195688184298007  0.999465166654609  1.0000
  C   C1        1.0  0.9988718650098889  0.822513773587559  0.40235971917407193  1.0000
  C   C2        1.0  0.001138933283357274  0.6775048383596525  0.9023567360481337  1.0000
  C   C3        1.0  0.0011267980201096984  0.17750265451341818  0.5976403457605954  1.0000
  C   C4        1.0  0.9988523104043453  0.32249778659868866  0.0976394530139117  1.0000
  C   C5        1.0  0.00478242839199086  0.9398764651772354  0.2436850361891416  1.0000
  C   C6        1.0  0.9952201672021129  0.5601453749298171  0.7436878509756327  1.0000
  C   C7        1.0  0.9952095468718627  0.06013072950406689  0.7563088272669276  1.0000
  C   C8        1.0  0.004775126039341206  0.4398744099415166  0.2563052372077195  1.0000
  C   C9        1.0  0.37520791825185285  0.8502486907836794  0.6185615550823513  1.0000
  C   C10       1.0  0.6247920882413852  0.6497550197817857  0.1185583311789316  1.0000
  C   C11       1.0  0.624786094677127  0.1497630968536754  0.38145091295916694  1.0000
  C   C12       1.0  0.3751959685250554  0.35025210426964276  0.8814378578551257  1.0000
  C   C13       1.0  0.35577378749841415  0.8647398960518087  0.7235488589554463  1.0000
  C   C14       1.0  0.644229942873743  0.6352643114616612  0.2235504633405441  1.0000
  C   C15       1.0  0.6442195716284687  0.1352434016546624  0.2764612836900184  1.0000
  C   C16       1.0  0.3557728733758196  0.3647373828087978  0.7764496016868563  1.0000
  C   C17       1.0  0.48960362405028945  0.8319441574716676  0.7927551107212949  1.0000
  C   C18       1.0  0.5104083678191884  0.6680639252779627  0.2927532443307328  1.0000
  C   C19       1.0  0.5104245579679088  0.16806141115599618  0.2072465046617467  1.0000
  C   C20       1.0  0.4896054982492045  0.3319254376678983  0.7072468207729798  1.0000
  C   C21       1.0  0.6425042768882605  0.7875943220066403  0.7465174712638502  1.0000
  C   C22       1.0  0.3575008058496962  0.7124024215274573  0.24651897092170572  1.0000
  C   C23       1.0  0.35749746792586723  0.2123925442933511  0.2534833690500733  1.0000
  C   C24       1.0  0.6425005731612572  0.28758215985012464  0.753487295752798  1.0000
  C   C25       1.0  0.6560721236450249  0.7772828358393723  0.6407906084459399  1.0000
  C   C26       1.0  0.3439305465934838  0.7227134553394309  0.1407927571633749  1.0000
  C   C27       1.0  0.3439245275951421  0.22272102570349964  0.35920325503046513  1.0000
  C   C28       1.0  0.656070414775911  0.2772847879653354  0.8592189357705636  1.0000
  N   N1        1.0  0.02529416913657915  0.9581008321887196  0.1538711384892579  1.0000
  N   N2        1.0  0.9747121440881372  0.5418940132601476  0.6538749668758683  1.0000
  N   N3        1.0  0.9747047545731745  0.0418928181821556  0.846120399474657  1.0000
  N   N4        1.0  0.025281503139204603  0.4581154898647099  0.3461142454115418  1.0000
  N   N5        1.0  0.97819577914656  0.9356071741865506  0.343001756675541  1.0000
  N   N6        1.0  0.021802586539664  0.56440606798607  0.8430040770517166  1.0000
  N   N7        1.0  0.0218006632906551  0.06440351839192719  0.6569897811807123  1.0000
  N   N8        1.0  0.9781810030808558  0.435597558278971  0.15698668565926968  1.0000
  N   N9        1.0  0.017365543528072194  0.7269157672314319  0.463282856327588  1.0000
  N   N10       1.0  0.9826450322478594  0.773094272283913  0.9632845244421304  1.0000
  N   N11       1.0  0.9826383441706382  0.273100755064874  0.5367125574518496  1.0000
  N   N12       1.0  0.0173626428727331  0.22690523128161286  0.0367147654060389  1.0000
  N   N13       1.0  0.5242378227611866  0.8092748896134124  0.5786176810706536  1.0000
  N   N14       1.0  0.4757708780832742  0.6907255576639882  0.0786170894636271  1.0000
  N   N15       1.0  0.4757631386356423  0.19072335380214156  0.4213862599403981  1.0000
  N   N16       1.0  0.5242164989399143  0.30926104979272395  0.9213829756621195  1.0000
  O   O1        1.0  0.7299286043367347  0.9722180982137086  0.0221006417202574  1.0000
  O   O2        1.0  0.27006612884566294  0.5277837056857492  0.5220963644461705  1.0000
  O   O3        1.0  0.27007047632659464  0.027784667926844992  0.9778963225318336  1.0000
  O   O4        1.0  0.7299362957144595  0.4722236772200362  0.4778998245837728  1.0000
  O   O5        1.0  0.4724793866155678  0.8415343777841426  0.8926044707919305  1.0000
  O   O6        1.0  0.5275195942155192  0.6584672119172764  0.3926027202078473  1.0000
  O   O7        1.0  0.5275223581958174  0.15845248850477123  0.1073971447142767  1.0000
  O   O8        1.0  0.47247371310864145  0.34153203278280836  0.6073973448367269  1.0000
