data_image0
_chemical_formula_structural       Ag4H24C12N28O12
_chemical_formula_sum              "Ag4 H24 C12 N28 O12"
_cell_length_a       6.78691182110761
_cell_length_b       10.316893126117614
_cell_length_c       11.586262800057922
_cell_angle_alpha    89.99966247694769
_cell_angle_beta     89.9999392154437
_cell_angle_gamma    101.37082333725543

_space_group_name_H-M_alt    "P 1"
_space_group_IT_number       1

loop_
  _space_group_symop_operation_xyz
  'x, y, z'

loop_
  _atom_site_type_symbol
  _atom_site_label
  _atom_site_symmetry_multiplicity
  _atom_site_fract_x
  _atom_site_fract_y
  _atom_site_fract_z
  _atom_site_occupancy
  Ag  Ag1       1.0  0.7811891239311848  0.09980027158171367  0.6235629340926039  1.0000
  Ag  Ag2       1.0  0.7188010487504644  0.400203347236875  0.1235622916469552  1.0000
  Ag  Ag3       1.0  0.21880967588463554  0.9002014232367512  0.37643734122941913  1.0000
  Ag  Ag4       1.0  0.281186844462141  0.5997963702365537  0.8764388467748603  1.0000
  H   H1        1.0  0.9988437444174633  0.9366180016045642  0.9092550455611388  1.0000
  H   H2        1.0  0.5011539208480755  0.5633846952839717  0.4092563026302116  1.0000
  H   H3        1.0  0.0011556316677995987  0.06337578367989488  0.0907452297813265  1.0000
  H   H4        1.0  0.49884783400002425  0.4366219429807784  0.5907439726779486  1.0000
  H   H5        1.0  0.9921247650580156  0.957510610898083  0.7570247158600197  1.0000
  H   H6        1.0  0.5078758422459799  0.5424911973344847  0.25702952990963723  1.0000
  H   H7        1.0  0.007875788131158896  0.04248218569664169  0.2429738333024929  1.0000
  H   H8        1.0  0.49212650523436013  0.4575174182893915  0.7429767870306918  1.0000
  H   H9        1.0  0.1588476537884986  0.30426771292706417  0.1409194863308301  1.0000
  H   H10       1.0  0.34114383893197  0.19573459838197482  0.640920452166192  1.0000
  H   H11       1.0  0.8411520268092829  0.6957320045112991  0.8590790628139189  1.0000
  H   H12       1.0  0.6588543846110824  0.8042750059643208  0.3590815493175299  1.0000
  H   H13       1.0  0.20233271142005546  0.4614509262726895  0.0803084914331862  1.0000
  H   H14       1.0  0.2976557639899369  0.03854588637305769  0.5803137581449889  1.0000
  H   H15       1.0  0.797664014150449  0.5385438477286469  0.919687468452203  1.0000
  H   H16       1.0  0.7023344916043825  0.9614567971535805  0.419690832632611  1.0000
  H   H17       1.0  0.02331808756101592  0.5128920041384077  0.6959737189441456  1.0000
  H   H18       1.0  0.47668974811623593  0.9871130121077978  0.1959776331189858  1.0000
  H   H19       1.0  0.9766851161495823  0.4870998037517819  0.3040256933111536  1.0000
  H   H20       1.0  0.5233064093553921  0.012894614854047894  0.8040269576437993  1.0000
  H   H21       1.0  0.9651106796265697  0.3719082914903565  0.6085236652950741  1.0000
  H   H22       1.0  0.5349010598158374  0.12809345741020908  0.1085271519799065  1.0000
  H   H23       1.0  0.03489576724768989  0.628084505072948  0.3914774731387354  1.0000
  H   H24       1.0  0.46510098316031895  0.8719092260751963  0.8914765757027752  1.0000
  C   C1        1.0  0.025335399022544898  0.12743819969854536  0.8523659632755739  1.0000
  C   C2        1.0  0.4746591211859085  0.37257050886616117  0.3523670240305279  1.0000
  C   C3        1.0  0.9746681255666942  0.8725694272448545  0.14763603821157997  1.0000
  C   C4        1.0  0.5253405757813284  0.6274390954776832  0.6476341143616438  1.0000
  C   C5        1.0  0.10542577063908706  0.3093191493125572  0.9673542232955513  1.0000
  C   C6        1.0  0.39456858548932433  0.1906798386425946  0.467352832982499  1.0000
  C   C7        1.0  0.8945747743728562  0.6906687038433219  0.0326391473334198  1.0000
  C   C8        1.0  0.6054228554061254  0.809326799670195  0.5326448530558068  1.0000
  C   C9        1.0  0.034933786440724576  0.33530390108871433  0.7755347766852979  1.0000
  C   C10       1.0  0.46506455357214094  0.1646974474315215  0.2755343389716955  1.0000
  C   C11       1.0  0.96507177145768  0.6646859293849798  0.2244715403029787  1.0000
  C   C12       1.0  0.5349257020321688  0.8353052361136334  0.7244650732594665  1.0000
  N   N1        1.0  0.9931755648189764  0.20234804584922725  0.7595486376211653  1.0000
  N   N2        1.0  0.5068217379938745  0.2976506456049534  0.2595486687207682  1.0000
  N   N3        1.0  0.006824988371860598  0.7976447507485884  0.24044904845027298  1.0000
  N   N4        1.0  0.4931755965916622  0.7023559926856746  0.7404490173156191  1.0000
  N   N5        1.0  0.07147491645476119  0.17731020989936036  0.958801346217207  1.0000
  N   N6        1.0  0.42851682217091286  0.32268982791436673  0.45880356043397796  1.0000
  N   N7        1.0  0.9285265256969313  0.8226855527602907  0.0411989291194317  1.0000
  N   N8        1.0  0.5714790471676635  0.6773217538175657  0.5412001672275011  1.0000
  N   N9        1.0  0.1022642896241948  0.39348975538442227  0.8771817017392181  1.0000
  N   N10       1.0  0.39772598625543065  0.10650493404374121  0.3771798854325609  1.0000
  N   N11       1.0  0.8977377369874944  0.6065030412047674  0.1228168474228184  1.0000
  N   N12       1.0  0.6022551243079021  0.8934918173930906  0.6228178006349196  1.0000
  N   N13       1.0  0.008278506020403082  0.997524387776508  0.8379164175778229  1.0000
  N   N14       1.0  0.4917181630737845  0.5024736811924695  0.337919398097867  1.0000
  N   N15       1.0  0.991720557373448  0.0024585219121106994  0.1620812685198914  1.0000
  N   N16       1.0  0.5082889010043985  0.4975359231205797  0.6620826033829701  1.0000
  N   N17       1.0  0.1428902089711244  0.36309318227871756  0.0727705299994668  1.0000
  N   N18       1.0  0.35710153872509665  0.13690467297816866  0.5727700661534243  1.0000
  N   N19       1.0  0.8571212589984969  0.6369065350998964  0.9272323345967947  1.0000
  N   N20       1.0  0.6428881324225487  0.8631009766436221  0.4272293460701917  1.0000
  N   N21       1.0  0.0073300032032292866  0.41272084143945875  0.687076379604342  1.0000
  N   N22       1.0  0.4926783997053407  0.08727916230656517  0.1870780539519217  1.0000
  N   N23       1.0  0.9926738013484954  0.5872778873073512  0.3129178540862654  1.0000
  N   N24       1.0  0.507317453262111  0.9127225325168024  0.8129239475532088  1.0000
  N   N25       1.0  0.9323685276966673  0.23319478819705344  0.3912796991513616  1.0000
  N   N26       1.0  0.567638580390394  0.26680296108369816  0.8912787467041099  1.0000
  N   N27       1.0  0.06763321078030053  0.7668019631591391  0.6087188500004501  1.0000
  N   N28       1.0  0.4323669938958119  0.7331967563294196  0.10872066552978052  1.0000
  O   O1        1.0  0.006308595055571672  0.3005175915808492  0.3053841393083019  1.0000
  O   O2        1.0  0.4936999354672694  0.19947859996889153  0.8053815335610253  1.0000
  O   O3        1.0  0.99369814814564  0.6994761936820806  0.6946144098496134  1.0000
  O   O4        1.0  0.5063059351408868  0.8005221061345937  0.19461787867019353  1.0000
  O   O5        1.0  0.9319285084127529  0.10986045555937808  0.3956636605997161  1.0000
  O   O6        1.0  0.5680747469341298  0.39013429630655583  0.8956629274823628  1.0000
  O   O7        1.0  0.06807499980202877  0.8901372844692897  0.6043383409132304  1.0000
  O   O8        1.0  0.4319308273487366  0.6098654211003871  0.1043382109336832  1.0000
  O   O9        1.0  0.8556086377054796  0.28727620474094806  0.4740569218400594  1.0000
  O   O10       1.0  0.6443978544145993  0.21271996383357814  0.9740544752267509  1.0000
  O   O11       1.0  0.1443877997286407  0.7127225240243006  0.5259399011261792  1.0000
  O   O12       1.0  0.35560919329579116  0.7872797535770812  0.025944073915589203  1.0000
