data_image0
_chemical_formula_structural       Cd4H44C48S4N4O28
_chemical_formula_sum              "Cd4 H44 C48 S4 N4 O28"
_cell_length_a       7.417798131696774
_cell_length_b       11.90874225
_cell_length_c       15.6453
_cell_angle_alpha    90.0
_cell_angle_beta     90.66072603005261
_cell_angle_gamma    90.0

_space_group_name_H-M_alt    "P 1"
_space_group_IT_number       1

loop_
  _space_group_symop_operation_xyz
  'x, y, z'

loop_
  _atom_site_type_symbol
  _atom_site_label
  _atom_site_symmetry_multiplicity
  _atom_site_fract_x
  _atom_site_fract_y
  _atom_site_fract_z
  _atom_site_occupancy
  Cd  Cd1       1.0  0.6922689654588652  0.5056411393906828  0.8325763005526527  1.0000
  Cd  Cd2       1.0  0.8077313887803115  0.0056420735783433  0.6674236055086737  1.0000
  Cd  Cd3       1.0  0.3077317201001151  0.49435783195324484  0.16742427844820185  1.0000
  Cd  Cd4       1.0  0.1922679485800813  0.9943577374848331  0.3325750486122702  1.0000
  H   H1        1.0  0.5123532123257704  0.6963724485681908  0.7434824631952779  1.0000
  H   H2        1.0  0.987645793714819  0.196371703317368  0.7565187138340974  1.0000
  H   H3        1.0  0.487644776836035  0.3036282022142203  0.2565193794024907  1.0000
  H   H4        1.0  0.012353543645574  0.8036289474650431  0.24348121862603733  1.0000
  H   H5        1.0  0.6988603083469158  0.6927272273442641  0.7003189336040664  1.0000
  H   H6        1.0  0.8011386976936734  0.1927281615319174  0.799682243425309  1.0000
  H   H7        1.0  0.3011376808148896  0.3072725837189054  0.2996829089937024  1.0000
  H   H8        1.0  0.1988619878653068  0.807271649531252  0.20031705723636156  1.0000
  H   H9        1.0  0.36548585113681054  0.5646246982967469  0.9234570953717949  1.0000
  H   H10       1.0  0.1345138175433931  0.0646239530459241  0.576542870858269  1.0000
  H   H11       1.0  0.6345148344221769  0.4353759524856642  0.0765428444594605  1.0000
  H   H12       1.0  0.8654855198170068  0.9353724991402856  0.42345897911063457  1.0000
  H   H13       1.0  0.3095275206169674  0.527227801911657  0.8248551753297166  1.0000
  H   H14       1.0  0.190472148063229  0.027227896380075802  0.6751447909003474  1.0000
  H   H15       1.0  0.6904718167434254  0.4727720091515124  0.17514539630000314  1.0000
  H   H16       1.0  0.8095244928999963  0.9727693955253756  0.3248564051567016  1.0000
  H   H17       1.0  0.9414821259238977  0.7088515162044118  0.7889336375505352  1.0000
  H   H18       1.0  0.5585209247124467  0.2088524503920652  0.7110643657442779  1.0000
  H   H19       1.0  0.0585212560322503  0.2911466154202813  0.21106631702298984  1.0000
  H   H20       1.0  0.4414811090451138  0.7911490401095875  0.2889343031189285  1.0000
  H   H21       1.0  0.023170140902856  0.8916105309105973  0.8509572811440266  1.0000
  H   H22       1.0  0.476828179578753  0.3916114650982578  0.6490413993757187  1.0000
  H   H23       1.0  0.9768305446561243  0.1083876007140887  0.1490426586872289  1.0000
  H   H24       1.0  0.5231711577816398  0.6083900254033949  0.350957893914817  1.0000
  H   H25       1.0  0.8468534153553833  0.7653746977351901  0.0962761336820677  1.0000
  H   H26       1.0  0.6531496352809683  0.2653798305190449  0.4037218696127455  1.0000
  H   H27       1.0  0.1531459220050166  0.2346242736087447  0.9037231596084682  1.0000
  H   H28       1.0  0.3468537466751799  0.7346266982980509  0.5962768066215958  1.0000
  H   H29       1.0  0.7627190825820307  0.5877262143279651  0.0224746235358211  1.0000
  H   H30       1.0  0.7372893608486635  0.0877313471118271  0.4775227700739251  1.0000
  H   H31       1.0  0.2372842993741244  0.4122710775774863  0.9775253310377039  1.0000
  H   H32       1.0  0.2627180657032469  0.9122743419860341  0.5224746499346224  1.0000
  H   H33       1.0  0.9689314491394327  0.9517789336653095  0.09072382295180861  1.0000
  H   H34       1.0  0.5310689050997439  0.4517832267299227  0.4092760831095177  1.0000
  H   H35       1.0  0.0310678882209601  0.0482191979593836  0.9092761095083192  1.0000
  H   H36       1.0  0.4689304322606489  0.5482216226486898  0.59072384935061  1.0000
  H   H37       1.0  0.1613146572389468  0.2456069615580105  0.5998305366126289  1.0000
  H   H38       1.0  0.3386850114412496  0.745608546528075  0.9001694296174351  1.0000
  H   H39       1.0  0.838684680121446  0.7543911700666825  0.4001700350170907  1.0000
  H   H40       1.0  0.6613156741177306  0.2543912645350943  0.0998311493834194  1.0000
  H   H41       1.0  0.0293718543994927  0.37454753040775307  0.35060768659300123  1.0000
  H   H42       1.0  0.4706278142807108  0.8745516345355427  0.1493929188066545  1.0000
  H   H43       1.0  0.9706274829609072  0.625448082059215  0.6493928850367183  1.0000
  H   H44       1.0  0.5293715230796892  0.1254523751238281  0.850607652823065  1.0000
  C   C1        1.0  0.9198624133952009  0.7248985508944087  0.8565539881612665  1.0000
  C   C2        1.0  0.5801406372411506  0.22490032480130404  0.6434440151335536  1.0000
  C   C3        1.0  0.0801396203623668  0.2750987410110426  0.14344595904113086  1.0000
  C   C4        1.0  0.4198627447150045  0.7751011657003488  0.3565540219311957  1.0000
  C   C5        1.0  0.9652778309707628  0.8274501028855495  0.8918479607539284  1.0000
  C   C6        1.0  0.5347211750698264  0.3274510370732031  0.6081500204274946  1.0000
  C   C7        1.0  0.0347228545882174  0.1725480287391363  0.1081519790773342  1.0000
  C   C8        1.0  0.4652795104891538  0.6725512931476842  0.3918486410645841  1.0000
  C   C9        1.0  0.9371409264762605  0.8464218796909506  0.9795352021188393  1.0000
  C   C10       1.0  0.5628580795643359  0.3464253330363221  0.5204634182321755  1.0000
  C   C11       1.0  0.0628584108841395  0.1535770916529842  0.0204647303412955  1.0000
  C   C12       1.0  0.4371412577960569  0.6535786766230487  0.47953587505836043  1.0000
  C   C13       1.0  0.8682196665498694  0.7568120806376514  0.0277371889357809  1.0000
  C   C14       1.0  0.6317820358878947  0.2568163737022715  0.4722620853270811  1.0000
  C   C15       1.0  0.1317810190091109  0.2431860509870418  0.9722633900650663  1.0000
  C   C16       1.0  0.3682213460682604  0.7431893153955897  0.5277372300768519  1.0000
  C   C17       1.0  0.8225602250302018  0.6569627451631206  0.9872268974764822  1.0000
  C   C18       1.0  0.6774455220033246  0.156966198508492  0.5127717597301853  1.0000
  C   C19       1.0  0.1774404605287856  0.3430353864615725  0.0127736815243651  1.0000
  C   C20       1.0  0.3225605563499983  0.8430386508701205  0.4872262920768265  1.0000
  C   C21       1.0  0.9773037623598884  0.952582544978668  0.021024690260240703  1.0000
  C   C22       1.0  0.5226938954821136  0.45258515860480486  0.4789745618892383  1.0000
  C   C23       1.0  0.0226955750005047  0.0474164263652597  0.9789746030303021  1.0000
  C   C24       1.0  0.4773054418782793  0.5474180113353313  0.5210253705708967  1.0000
  C   C25       1.0  0.0063783275114275015  0.5075279885245649  0.5454587381358635  1.0000
  C   C26       1.0  0.493618644771594  0.007530602150701799  0.9545405741823529  1.0000
  C   C27       1.0  0.9936196616503781  0.4924693033808865  0.45453990861395255  1.0000
  C   C28       1.0  0.5063779961916239  0.9924708883509511  0.045459343535519316  1.0000
  C   C29       1.0  0.0676674352411979  0.4147524479337861  0.5960402296372109  1.0000
  C   C30       1.0  0.4323308852404111  0.9147540329038506  0.9039590900521262  1.0000
  C   C31       1.0  0.9323305539206075  0.585245683690907  0.40395905628219714  1.0000
  C   C32       1.0  0.5676671039213943  0.0852474575978022  0.0960408350368667  1.0000
  C   C33       1.0  0.1154152363709287  0.3144143958611565  0.5595298590569656  1.0000
  C   C34       1.0  0.3845844323092678  0.814415980831228  0.9404701071730983  1.0000
  C   C35       1.0  0.8845841009894642  0.6855837357635295  0.4404707125727541  1.0000
  C   C36       1.0  0.6154162532497125  0.18558550967042456  0.05953047182774901  1.0000
  C   C37       1.0  0.1052349888463482  0.3011350757885438  0.4699252616255976  1.0000
  C   C38       1.0  0.3947633316352608  0.8011366607586156  0.0300746972333386  1.0000
  C   C39       1.0  0.8947630003154572  0.6988622161169005  0.5300746634634025  1.0000
  C   C40       1.0  0.6052346575265448  0.19886482974303726  0.9699252278556615  1.0000
  C   C41       1.0  0.0433782895117787  0.3880342611328231  0.4189725051936719  1.0000
  C   C42       1.0  0.4566213791684177  0.8880358461028947  0.08102746103639188  1.0000
  C   C43       1.0  0.9566210478486141  0.6119638704918628  0.5810274272664557  1.0000
  C   C44       1.0  0.5433779581919751  0.11196564439875802  0.9189724714237357  1.0000
  C   C45       1.0  0.1560742093342924  0.19190607639526291  0.4302787694574236  1.0000
  C   C46       1.0  0.343925459345904  0.6919076613653274  0.06972183594223222  1.0000
  C   C47       1.0  0.8439251280261004  0.8080912155101884  0.5697224413418881  1.0000
  C   C48       1.0  0.6560738780144889  0.3080929894170836  0.9302793748570795  1.0000
  S   S1        1.0  0.0722580514272977  0.42374080268636044  0.7096138061565471  1.0000
  S   S2        1.0  0.4277429654514862  0.9237415479371904  0.7903861674446517  1.0000
  S   S3        1.0  0.9277412859331022  0.5762590083768089  0.2903861263035807  1.0000
  S   S4        1.0  0.5722577201074941  0.0762591028452206  0.20961377238661072  1.0000
  N   N1        1.0  0.845792383068023  0.6413280126203063  0.9027828315631723  1.0000
  N   N2        1.0  0.6542133639655034  0.1413297865272014  0.5972158256435023  1.0000
  N   N3        1.0  0.1542109988881322  0.3586701190043797  0.09721712301035271  1.0000
  N   N4        1.0  0.3457913661892392  0.858672543693686  0.4027822187923817  1.0000
  O   O1        1.0  0.1683010223127681  0.1882574962943693  0.34846607614731795  1.0000
  O   O2        1.0  0.3316999945660157  0.6882590812644409  0.1515345366234726  1.0000
  O   O3        1.0  0.8316996632462121  0.811739795611075  0.6515351420231283  1.0000
  O   O4        1.0  0.668302039191552  0.3117415695179702  0.8484666889181014  1.0000
  O   O5        1.0  0.1839212511327659  0.1062312017039417  0.4769165461768452  1.0000
  O   O6        1.0  0.3160784175474305  0.6062327866740063  0.023084698392395405  1.0000
  O   O7        1.0  0.816078086227634  0.8937660902015097  0.5230853037920512  1.0000
  O   O8        1.0  0.6839236162101372  0.3937678641084048  0.9769171663187635  1.0000
  O   O9        1.0  0.1938507337203106  0.5171981953006011  0.7317700394311188  1.0000
  O   O10       1.0  0.3061489349598858  0.0171982897690128  0.7682286484597611  1.0000
  O   O11       1.0  0.8061499518386697  0.48280161576256825  0.2682292612305517  1.0000
  O   O12       1.0  0.6938517505990944  0.9828023610133982  0.2317706522019094  1.0000
  O   O13       1.0  0.1336132208877885  0.3148132625004934  0.7423570747318068  1.0000
  O   O14       1.0  0.3663877959909883  0.8148140077513233  0.7576422596998003  1.0000
  O   O15       1.0  0.8663861164726043  0.6851857088434343  0.257642857728321  1.0000
  O   O16       1.0  0.633612889567992  0.18518664303108778  0.2423570409618705  1.0000
  O   O17       1.0  0.8819146677887417  0.4489861219391146  0.7287529225242082  1.0000
  O   O18       1.0  0.618085686450442  0.9489868671899445  0.7712463443675261  1.0000
  O   O19       1.0  0.118087365968826  0.5510136891240549  0.27124702467818207  1.0000
  O   O20       1.0  0.3819136509099579  0.0510129438732321  0.2287535880926015  1.0000
  O   O21       1.0  0.6072893121719504  0.6428319497804225  0.7258107495844685  1.0000
  O   O22       1.0  0.8927110420672265  0.1428328839680759  0.7741917131552185  1.0000
  O   O23       1.0  0.39271137338703  0.3571678612827469  0.2741917469251547  1.0000
  O   O24       1.0  0.1072896434917538  0.8571677668143352  0.225807587506452  1.0000
  O   O25       1.0  0.4006158616980642  0.5213119798608474  0.8716699762991953  1.0000
  O   O26       1.0  0.0993851551807197  0.021311234610017497  0.6283306364715956  1.0000
  O   O27       1.0  0.5993848238609161  0.4786886709215636  0.1283306027016593  1.0000
  O   O28       1.0  0.9006155303782606  0.9786826984184671  0.3716705816988508  1.0000
