data_image0
_chemical_formula_structural       Zr6H36C55O42
_chemical_formula_sum              "Zr6 H36 C55 O42"
_cell_length_a       14.77595854383616
_cell_length_b       14.778488659014121
_cell_length_c       14.78985411262107
_cell_angle_alpha    59.280101024486605
_cell_angle_beta     59.802986224832544
_cell_angle_gamma    59.91581121023403

_space_group_name_H-M_alt    "P 1"
_space_group_IT_number       1

loop_
  _space_group_symop_operation_xyz
  'x, y, z'

loop_
  _atom_site_type_symbol
  _atom_site_label
  _atom_site_symmetry_multiplicity
  _atom_site_fract_x
  _atom_site_fract_y
  _atom_site_fract_z
  _atom_site_occupancy
  Zr  Zr1       1.0  0.8827389193595967  0.8788420289936595  0.616896993596832  1.0000
  Zr  Zr2       1.0  0.12423077270021574  0.11950195072154203  0.3734330123325548  1.0000
  Zr  Zr3       1.0  0.1225482027163523  0.8770865510968378  0.6170256402973564  1.0000
  Zr  Zr4       1.0  0.8840194998181659  0.1198589330822557  0.3744131584659555  1.0000
  Zr  Zr5       1.0  0.12267198809081506  0.8795891391190268  0.3763480184008047  1.0000
  Zr  Zr6       1.0  0.8840530795039568  0.11887090335925171  0.6139580499773983  1.0000
  H   H1        1.0  0.09584542334563653  0.7148800207730233  0.5939581192248511  1.0000
  H   H2        1.0  0.0985448165843366  0.09465634243436231  0.2111692264795764  1.0000
  H   H3        1.0  0.09809088671816833  0.0927137812160339  0.5886056078667748  1.0000
  H   H4        1.0  0.7210180117980587  0.09399259003843227  0.5894430512906864  1.0000
  H   H5        1.0  0.8453427954955545  0.5908287009614809  0.6311381967913902  1.0000
  H   H6        1.0  0.14270752301241152  0.5946037746083875  0.34552520362321093  1.0000
  H   H7        1.0  0.8496166388446725  0.4216192235828303  0.625528272164459  1.0000
  H   H8        1.0  0.5899412372690949  0.8494607861798401  0.9164871964126674  1.0000
  H   H9        1.0  0.6118152636870064  0.12301656875543189  0.927697792862375  1.0000
  H   H10       1.0  0.4213702155408328  0.8495868507309298  0.08827847030016768  1.0000
  H   H11       1.0  0.13544008404247174  0.8403456364436935  0.09471600198964585  1.0000
  H   H12       1.0  0.8529766514257561  0.13979384630227534  0.08551572089757543  1.0000
  H   H13       1.0  0.13270712113676095  0.8406765437556489  0.9260866742596575  1.0000
  H   H14       1.0  0.6065750963530547  0.43077421643252484  0.6221871914987956  1.0000
  H   H15       1.0  0.5948240419252572  0.41995222104533503  0.3434404146752428  1.0000
  H   H16       1.0  0.43672129088646744  0.6004002149140676  0.6211256577772842  1.0000
  H   H17       1.0  0.10818602975272291  0.3191289465132741  0.9815783545524183  1.0000
  H   H18       1.0  0.17187129905819634  0.37123860652744156  0.011127847038537236  1.0000
  H   H19       1.0  0.16869833890518054  0.5162429327761159  0.8401037433767512  1.0000
  H   H20       1.0  0.08014228247244407  0.47868702792825263  0.826954747007207  1.0000
  H   H21       1.0  0.08647092519078829  0.6207278674993549  0.9705996123192475  1.0000
  H   H22       1.0  0.9421177760217463  0.6884486997586095  0.017954722718307815  1.0000
  H   H23       1.0  0.06106437435989426  0.4776877878694847  0.1437224783844542  1.0000
  H   H24       1.0  0.915295872310935  0.533278053808701  0.1776816324844076  1.0000
  H   H25       1.0  0.8944705960815043  0.3958448782951009  0.03960377200215241  1.0000
  H   H26       1.0  0.8166717079691497  0.4669545331611078  0.1348339912534442  1.0000
  H   H27       1.0  0.8148089478721802  0.6396555275538417  0.9916083352758348  1.0000
  H   H28       1.0  0.8700095059580732  0.570464473525739  0.898409681310099  1.0000
  H   H29       1.0  0.5880934104295787  0.14382512901523378  0.34744727076567733  1.0000
  H   H30       1.0  0.5996927871755844  0.8424105120408927  0.6333299647596179  1.0000
  H   H31       1.0  0.42110566252032555  0.13890516994158025  0.34820443174227483  1.0000
  H   H32       1.0  0.2497326580071828  0.29737773215853747  0.41222891037642023  1.0000
  H   H33       1.0  0.3414522114035138  0.25292733873074263  0.035626319442670265  1.0000
  H   H34       1.0  0.9236528668822146  0.25133628591217433  0.8049998315950759  1.0000
  H   H35       1.0  0.30551871376034984  0.5295689876877888  0.41887808225593665  1.0000
  H   H36       1.0  0.3014591886939115  0.8975798400145294  0.7447763779311457  1.0000
  C   C1        1.0  0.9970443579306477  0.6991154440684397  0.49375239230734286  1.0000
  C   C2        1.0  0.31438214830383543  0.9923943051957734  0.19750634903045494  1.0000
  C   C3        1.0  0.0008533833880833278  0.3086708422697271  0.48776622734448677  1.0000
  C   C4        1.0  0.7046742122594338  0.9932183636318186  0.8049287820576723  1.0000
  C   C5        1.0  0.9965240800507974  0.6978655003197289  0.808057282164469  1.0000
  C   C6        1.0  0.7020534279947839  0.996184716953394  0.49262106275964596  1.0000
  C   C7        1.0  0.9991754973240247  0.30986658461330313  0.19252175556488269  1.0000
  C   C8        1.0  0.3110721034537464  0.9941457682090443  0.49342056315903443  1.0000
  C   C9        1.0  0.31257057270031663  0.6990101486167078  0.4913513298145915  1.0000
  C   C10       1.0  0.9988617709250392  0.9937399048860343  0.8050501969195875  1.0000
  C   C11       1.0  0.7063020851182246  0.30989578876340557  0.4876168917230926  1.0000
  C   C12       1.0  0.9984014428293194  0.9946902785482694  0.1961586381460379  1.0000
  C   C13       1.0  0.00010323784584910303  0.41146110942324304  0.4851937438423591  1.0000
  C   C14       1.0  0.9954139240658932  0.600686393979096  0.490034863509308  1.0000
  C   C15       1.0  0.08335188608820236  0.4603143513884405  0.40460662148777243  1.0000
  C   C16       1.0  0.9115157087098068  0.5534094818871084  0.5686505563799359  1.0000
  C   C17       1.0  0.07957297509694435  0.5552222572513587  0.4075902667742638  1.0000
  C   C18       1.0  0.9140266180651864  0.459753929532518  0.5655313564172103  1.0000
  C   C19       1.0  0.41932726165079254  0.9894834591122361  0.10059947504211657  1.0000
  C   C20       1.0  0.6073930766117287  0.9894106812685382  0.9097958970413342  1.0000
  C   C21       1.0  0.47414125780602506  0.0657126294604069  0.057339690295059045  1.0000
  C   C22       1.0  0.5560162602484695  0.9101831927714772  0.9559385467356804  1.0000
  C   C23       1.0  0.5677243973685084  0.0656106936170103  0.9614041756404532  1.0000
  C   C24       1.0  0.46231254551727846  0.9106686440037423  0.05068580447838394  1.0000
  C   C25       1.0  0.9944768528716281  0.9926891046850701  0.9087632871255593  1.0000
  C   C26       1.0  0.9956567005414458  0.9916071382443049  0.09799045154330355  1.0000
  C   C27       1.0  0.9137654460908422  0.07729379803215866  0.9540623703258431  1.0000
  C   C28       1.0  0.07419946368650457  0.9061398719786737  0.05449491988365208  1.0000
  C   C29       1.0  0.9149320221020503  0.07560904098649966  0.04880644785913551  1.0000
  C   C30       1.0  0.07292031129175329  0.9067632826137599  0.9608095608057282  1.0000
  C   C31       1.0  0.4174157815490391  0.6020231743921372  0.48533644797606706  1.0000
  C   C32       1.0  0.6083460439161142  0.41416278558861563  0.48463945880800446  1.0000
  C   C33       1.0  0.462973063602334  0.5530780343107792  0.404389298147926  1.0000
  C   C34       1.0  0.5653156777961926  0.46529736086547785  0.5622788361039072  1.0000
  C   C35       1.0  0.5584468774717593  0.4593260982233859  0.40486313738166035  1.0000
  C   C36       1.0  0.4705038912980871  0.5588201994974965  0.5622330945939352  1.0000
  C   C37       1.0  0.09945089456889657  0.392203914927336  0.9917779488554003  1.0000
  C   C38       1.0  0.09204667058692459  0.4952017352173784  0.8842646684094858  1.0000
  C   C39       1.0  0.9928020664147114  0.5962566348981044  0.9142095790456252  1.0000
  C   C40       1.0  0.005491863931283297  0.6111408920666432  0.002905196389711801  1.0000
  C   C41       1.0  0.9936270165708053  0.5093743600395727  0.11240486093004858  1.0000
  C   C42       1.0  0.9941747591267572  0.41668061193418304  0.09159765036688584  1.0000
  C   C43       1.0  0.8910563006430298  0.4587036726612156  0.06125500807409879  1.0000
  C   C44       1.0  0.8846649036395887  0.5712679091474442  0.9636923247766374  1.0000
  C   C45       1.0  0.4124647320635759  0.9918819630076996  0.4949881494531709  1.0000
  C   C46       1.0  0.6018492273941196  0.9946979549269059  0.4922125123590177  1.0000
  C   C47       1.0  0.46351148216595595  0.9060860622539197  0.5755314958170954  1.0000
  C   C48       1.0  0.5519608387534946  0.07859657542718429  0.41151436097790384  1.0000
  C   C49       1.0  0.558204263363905  0.9084219077686341  0.5728913295898366  1.0000
  C   C50       1.0  0.45814028417523633  0.07672057955666403  0.4129921904283691  1.0000
  C   C51       1.0  0.17622277267474123  0.42243357031824047  0.3089369081429538  1.0000
  C   C52       1.0  0.444707136922368  0.14225870199591373  0.11394399934928855  1.0000
  C   C53       1.0  0.8213254535999183  0.16961517674394613  0.9095023300636598  1.0000
  C   C54       1.0  0.4189342962388097  0.5967794299444548  0.3120133960388711  1.0000
  C   C55       1.0  0.428714213553896  0.8053361565275025  0.6624686736160965  1.0000
  O   O1        1.0  0.921370123293748  0.7358291591023943  0.5724593657886531  1.0000
  O   O2        1.0  0.2729271768607902  0.07127797958128917  0.2347730970775075  1.0000
  O   O3        1.0  0.07855015843970395  0.26871388739835583  0.411743197775067  1.0000
  O   O4        1.0  0.7412508900389841  0.9184681758509825  0.7639959062207495  1.0000
  O   O5        1.0  0.0757999391495901  0.7354986093677526  0.7665672468165211  1.0000
  O   O6        1.0  0.7404873493706178  0.0749803885292409  0.4157085054159424  1.0000
  O   O7        1.0  0.924726760064381  0.2664777035737417  0.23268806973584324  1.0000
  O   O8        1.0  0.2707464074208233  0.916534444984876  0.5709065687184066  1.0000
  O   O9        1.0  0.26977209045855954  0.737067831366211  0.417006088810993  1.0000
  O   O10       1.0  0.9242554366082987  0.07275673081390718  0.7625204478947792  1.0000
  O   O11       1.0  0.7446297223657226  0.26827662046278544  0.5661818306684551  1.0000
  O   O12       1.0  0.07699226709488749  0.9191619493856533  0.2343145359162263  1.0000
  O   O13       1.0  0.07775764457954909  0.9182830259821774  0.7652220271336246  1.0000
  O   O14       1.0  0.7427681940496172  0.2686843777098035  0.4132610933471382  1.0000
  O   O15       1.0  0.923508250958797  0.07374778452756911  0.23274404638086563  1.0000
  O   O16       1.0  0.27174735195934835  0.7349610949353648  0.5705715317676621  1.0000
  O   O17       1.0  0.9225825643455323  0.737304637090638  0.7646091181370097  1.0000
  O   O18       1.0  0.270299002496465  0.07389362611533554  0.4177482168216499  1.0000
  O   O19       1.0  0.07899370762059732  0.2681213061260976  0.22912639743840654  1.0000
  O   O20       1.0  0.7408285820009369  0.919374339888016  0.5710404326455388  1.0000
  O   O21       1.0  0.7432182030371308  0.07211946459859324  0.762184415666617  1.0000
  O   O22       1.0  0.07616056791646032  0.7371973049798015  0.41867453380550046  1.0000
  O   O23       1.0  0.27122774517498305  0.9187784996735148  0.23447750129160044  1.0000
  O   O24       1.0  0.9257103430171656  0.26703519618046545  0.5671167508241695  1.0000
  O   O25       1.0  0.8013848411285663  0.06715161376822461  0.5622898712585638  1.0000
  O   O26       1.0  0.07106640104961316  0.06601047769787984  0.5623118182112848  1.0000
  O   O27       1.0  0.07175228023721299  0.06671573108836532  0.291976949620512  1.0000
  O   O28       1.0  0.07024568424387222  0.7956281073645785  0.5648567308614362  1.0000
  O   O29       1.0  0.152414901474181  0.9489727568160404  0.4463362965060965  1.0000
  O   O30       1.0  0.953400701696623  0.9494550015067206  0.4462578381983918  1.0000
  O   O31       1.0  0.9549340044407302  0.14863156680653603  0.4439426340800878  1.0000
  O   O32       1.0  0.9536524597444181  0.948632476444381  0.6453955900690005  1.0000
  O   O33       1.0  0.2672056128076221  0.3354633646982492  0.33171639529686553  1.0000
  O   O34       1.0  0.17614948112824888  0.4740240717460793  0.21357233930397965  1.0000
  O   O35       1.0  0.3748151701672312  0.2477146277034237  0.08148418925210876  1.0000
  O   O36       1.0  0.4888180588227088  0.11479627571132062  0.17874833150469982  1.0000
  O   O37       1.0  0.8444345797870199  0.2649309536278964  0.829691514194998  1.0000
  O   O38       1.0  0.7281365250995936  0.1665972385068386  0.9482691533906689  1.0000
  O   O39       1.0  0.33524050613633005  0.5631239616914101  0.33801437062805206  1.0000
  O   O40       1.0  0.4618208564611379  0.6489203131313842  0.21623998528195898  1.0000
  O   O41       1.0  0.3423343266254122  0.8183152619837062  0.7571374308763482  1.0000
  O   O42       1.0  0.48188942544130986  0.7130469842964189  0.6553979942202303  1.0000
