data_image0
_chemical_formula_structural       Al4H64C98N12O28
_chemical_formula_sum              "Al4 H64 C98 N12 O28"
_cell_length_a       6.626155011698785
_cell_length_b       28.367659260760334
_cell_length_c       31.723579392242474
_cell_angle_alpha    101.91734720632468
_cell_angle_beta     89.44529552121737
_cell_angle_gamma    89.76786954315565

_space_group_name_H-M_alt    "P 1"
_space_group_IT_number       1

loop_
  _space_group_symop_operation_xyz
  'x, y, z'

loop_
  _atom_site_type_symbol
  _atom_site_label
  _atom_site_symmetry_multiplicity
  _atom_site_fract_x
  _atom_site_fract_y
  _atom_site_fract_z
  _atom_site_occupancy
  Al  Al1       1.0  0.8978409578537097  0.5004259285852157  0.4993557561073415  1.0000
  Al  Al2       1.0  0.39824966474262163  0.4988455544675929  0.49937092651707354  1.0000
  Al  Al3       1.0  0.2878490735592152  0.9990801855921134  0.9996377017283464  1.0000
  Al  Al4       1.0  0.7884779222303494  0.0015492744743496984  0.9999387892329279  1.0000
  H   H1        1.0  0.8162421700489233  0.3097570807828446  0.3477678179464262  1.0000
  H   H2        1.0  0.4123719123431115  0.3408917839242419  0.30664286977305005  1.0000
  H   H3        1.0  0.7384811259763281  0.1702747488369027  0.1806308017847087  1.0000
  H   H4        1.0  0.723041455559219  0.10480701950528729  0.11378601370405757  1.0000
  H   H5        1.0  0.36739207646837  0.10834426607672039  0.10080390572267817  1.0000
  H   H6        1.0  0.3837710698028474  0.17508373653723908  0.166479770947376  1.0000
  H   H7        1.0  0.6718138482675895  0.23283288103036173  0.6797433203860591  1.0000
  H   H8        1.0  0.6432242295636783  0.1798982607470236  0.7348757444376517  1.0000
  H   H9        1.0  0.4923791870324692  0.2761614145500815  0.8275565521906216  1.0000
  H   H10       1.0  0.7622872261176569  0.17419720240243922  0.8887607582882351  1.0000
  H   H11       1.0  0.7644499609872143  0.116637508110216  0.9386156761513077  1.0000
  H   H12       1.0  0.32354412483595496  0.11246894271656059  0.8332839006787722  1.0000
  H   H13       1.0  0.23664763856294968  0.35473600664038685  0.5390276769816466  1.0000
  H   H14       1.0  0.027668744600326502  0.41939456804087877  0.6900020703814107  1.0000
  H   H15       1.0  0.15324125981034337  0.8263119947963703  0.26829695216564886  1.0000
  H   H16       1.0  0.17246787473484906  0.7737471818328101  0.3235874108697627  1.0000
  H   H17       1.0  0.040195161178822006  0.676239039716492  0.23315034339134397  1.0000
  H   H18       1.0  0.0218557499262317  0.72907868801493  0.1780886557843999  1.0000
  H   H19       1.0  0.32659550680803306  0.620337849305649  0.3449889243907052  1.0000
  H   H20       1.0  0.33486085703734847  0.5681555470770051  0.39922065428476816  1.0000
  H   H21       1.0  0.946270422624174  0.6107345680539922  0.43035557533938357  1.0000
  H   H22       1.0  0.8590182886680537  0.8861657256508478  0.15904752289851123  1.0000
  H   H23       1.0  0.8463920034600675  0.9386384122317466  0.10481665215296943  1.0000
  H   H24       1.0  0.24956530377230726  0.8877806997664595  0.06876123482889082  1.0000
  H   H25       1.0  0.2648230352541034  0.8328857230761955  0.12083585492543138  1.0000
  H   H26       1.0  0.31376854424962625  0.6073552420508508  0.6037118979379554  1.0000
  H   H27       1.0  0.2960206471789988  0.6728723012611936  0.6704307711032554  1.0000
  H   H28       1.0  0.9435432589434287  0.6718396273832425  0.6776580617289196  1.0000
  H   H29       1.0  0.9591441561531794  0.6059654731672381  0.6110386083899115  1.0000
  H   H30       1.0  0.2505193340386853  0.8187599203914003  0.8285085054691945  1.0000
  H   H31       1.0  0.874917053458901  0.899682271380428  0.89193066224162  1.0000
  H   H32       1.0  0.8961107397520891  0.8333134079297295  0.8257961816970222  1.0000
  H   H33       1.0  0.8489137515788842  0.3772359660263263  0.4118868942975665  1.0000
  H   H34       1.0  0.6440889078853758  0.34835204959225047  0.8463182752631437  1.0000
  H   H35       1.0  0.7908561919432201  0.30364306343425085  0.811707388025269  1.0000
  H   H36       1.0  0.8413244778726392  0.36539265911040525  0.8145526029765475  1.0000
  H   H37       1.0  0.6593559263537756  0.3353159021496738  0.7469391105578393  1.0000
  H   H38       1.0  0.513399422746744  0.37755718168715907  0.780782720019161  1.0000
  H   H39       1.0  0.18369000567653865  0.9805282715176133  0.8788024342338189  1.0000
  H   H40       1.0  0.21254931631188612  0.9944854736850814  0.8269106001010583  1.0000
  H   H41       1.0  0.41390753657911006  0.9669091493651366  0.8498699262860256  1.0000
  H   H42       1.0  0.48810720594121887  0.05402251217861929  0.8565506409844089  1.0000
  H   H43       1.0  0.44605042296682024  0.0416240439347746  0.9082965951245823  1.0000
  H   H44       1.0  0.5586353171685872  0.29081376239521717  0.5856818479447269  1.0000
  H   H45       1.0  0.45684659975117364  0.27795433256417107  0.6331931927173355  1.0000
  H   H46       1.0  0.46999204784118115  0.2317698644082427  0.585955474316421  1.0000
  H   H47       1.0  0.11388847667202379  0.2625802796993284  0.5966430287176152  1.0000
  H   H48       1.0  0.2192786570818015  0.2762935626348266  0.5496383340904385  1.0000
  H   H49       1.0  0.30929134686955007  0.5104260875659107  0.6741551881926141  1.0000
  H   H50       1.0  0.29699239325879734  0.5196237451422476  0.6205933476117949  1.0000
  H   H51       1.0  0.16614710135307578  0.5594061998111853  0.6627155979668086  1.0000
  H   H52       1.0  0.9252469025605095  0.5012337724224525  0.618795371479024  1.0000
  H   H53       1.0  0.9321130388707246  0.4938132777820741  0.6726722794586664  1.0000
  H   H54       1.0  0.9344347536032699  0.6665312888928054  0.37904101899487586  1.0000
  H   H55       1.0  0.23120473814800144  0.8855484412743874  0.8943432588109699  1.0000
  H   H56       1.0  0.4086498667497338  0.46019991500674  0.3229869592120451  1.0000
  H   H57       1.0  0.35680359008092216  0.4867684867766187  0.3779131810600019  1.0000
  H   H58       1.0  0.6077906072956977  0.4853126182679545  0.3576653352926442  1.0000
  H   H59       1.0  0.5631882511012591  0.42245834540549515  0.4011796456146257  1.0000
  H   H60       1.0  0.6144104000768065  0.3955580534711912  0.3465591826274944  1.0000
  H   H61       1.0  0.6527893998552443  0.44329271385839053  0.5117990716151012  1.0000
  H   H62       1.0  0.15087741873717417  0.563058940210354  0.5040606483332154  1.0000
  H   H63       1.0  0.5301647930716413  0.0628425672698185  0.001045064861166602  1.0000
  H   H64       1.0  0.032614757900653  0.9384521226530183  0.0013227606453370005  1.0000
  C   C1        1.0  0.6458739525935329  0.5531169528257251  0.44876197377175225  1.0000
  C   C2        1.0  0.644639495814836  0.5641855608863651  0.5638946314213982  1.0000
  C   C3        1.0  0.14583572210901255  0.44793876831618457  0.5519109359105058  1.0000
  C   C4        1.0  0.1487888741354766  0.436033842041482  0.43501748364693066  1.0000
  C   C5        1.0  0.971870751797809  0.36863332905392815  0.3885160362583945  1.0000
  C   C6        1.0  0.9531478026681056  0.3311985769243578  0.3529479310727268  1.0000
  C   C7        1.0  0.11348908893429407  0.32126839052813244  0.323092805162787  1.0000
  C   C8        1.0  0.2894023146603716  0.3490479864573858  0.3301245098703447  1.0000
  C   C9        1.0  0.3112893071737446  0.3867919543390741  0.3658251715889732  1.0000
  C   C10       1.0  0.14744423394263606  0.39670177282823715  0.3954580260459933  1.0000
  C   C11       1.0  0.07357534447514519  0.21506659457866556  0.21617643914427012  1.0000
  C   C12       1.0  0.09824433232797959  0.28269217549755155  0.2844594405882575  1.0000
  C   C13       1.0  0.8750083182289145  0.15663524409433197  0.1627438485015134  1.0000
  C   C14       1.0  0.8665696782323948  0.12040844945150299  0.1258422228069378  1.0000
  C   C15       1.0  0.0445036463597646  0.1030622926909004  0.10358935321278298  1.0000
  C   C16       1.0  0.23111280686741503  0.12257273535461621  0.11848521315502578  1.0000
  C   C17       1.0  0.24014349745399952  0.1592420330382538  0.15487903491960955  1.0000
  C   C18       1.0  0.062032716604932106  0.17650217720559874  0.17744298058162392  1.0000
  C   C19       1.0  0.2678805873508523  0.3336630564657951  0.7073070590854726  1.0000
  C   C20       1.0  0.9528077721113347  0.29592190315634076  0.6730549854528717  1.0000
  C   C21       1.0  0.9446519441017145  0.2656396433965824  0.705719014488956  1.0000
  C   C22       1.0  0.09551192053343271  0.2693023870477518  0.7375924250158191  1.0000
  C   C23       1.0  0.2572960987642503  0.30267047432767663  0.7398414653242397  1.0000
  C   C24       1.0  0.7844331226028133  0.2339275136382355  0.7047506751481973  1.0000
  C   C25       1.0  0.7686427056023816  0.20467147011226672  0.7351870652769106  1.0000
  C   C26       1.0  0.9151149566222899  0.20687175210868256  0.7665721948872103  1.0000
  C   C27       1.0  0.07894204378856531  0.23901641439855575  0.7681637016157266  1.0000
  C   C28       1.0  0.2266893683542079  0.24236231744751538  0.8003715619575971  1.0000
  C   C29       1.0  0.38262558346873016  0.2749522670589712  0.8020611971356428  1.0000
  C   C30       1.0  0.4024469085611102  0.3059846776187598  0.772614841949206  1.0000
  C   C31       1.0  0.898205830709678  0.17512778574751306  0.7981755473345158  1.0000
  C   C32       1.0  0.2158260979446638  0.21160967641630174  0.8329019903163655  1.0000
  C   C33       1.0  0.8859818838685244  0.148590918886164  0.8879338416583449  1.0000
  C   C34       1.0  0.887560888289961  0.11633062387438291  0.9155396221156591  1.0000
  C   C35       1.0  0.046516519401436085  0.0832690399102702  0.9148278161328207  1.0000
  C   C36       1.0  0.2071325712348013  0.081067913755632  0.8846596008341691  1.0000
  C   C37       1.0  0.20189932035604835  0.1133796928180999  0.8568515333790427  1.0000
  C   C38       1.0  0.04576456497802181  0.1467983297656517  0.8587482958522086  1.0000
  C   C39       1.0  0.1815801614986867  0.33713436543445147  0.6008257714434959  1.0000
  C   C40       1.0  0.19083604882001742  0.36884079631618494  0.5724447456656846  1.0000
  C   C41       1.0  0.1389018208816495  0.4174936241182436  0.5852173347800118  1.0000
  C   C42       1.0  0.07549445069469839  0.4368692707100053  0.6277508986002118  1.0000
  C   C43       1.0  0.07330549692168381  0.40568676119345787  0.6565532252354132  1.0000
  C   C44       1.0  0.12571093207534292  0.35721992449158785  0.6435249359006645  1.0000
  C   C45       1.0  0.7366912248703057  0.7931272945524485  0.1705579847572523  1.0000
  C   C46       1.0  0.41482001089860887  0.8303645059243152  0.20501038433459226  1.0000
  C   C47       1.0  0.4275232488518554  0.7985479746237018  0.23660238079678209  1.0000
  C   C48       1.0  0.5917074378460825  0.7662064131415248  0.23523235450598176  1.0000
  C   C49       1.0  0.745524712154271  0.7628810520957005  0.20348528632856494  1.0000
  C   C50       1.0  0.277935282959703  0.8010794320165147  0.26803413297545825  1.0000
  C   C51       1.0  0.2885748728076578  0.771897908946812  0.29872988453520577  1.0000
  C   C52       1.0  0.4487518944483853  0.7399669339562037  0.2981490889808923  1.0000
  C   C53       1.0  0.6022532124035962  0.7365259177384615  0.2663347222609501  1.0000
  C   C54       1.0  0.7661800759896238  0.7041039611079398  0.2649458818949029  1.0000
  C   C55       1.0  0.9156831265304745  0.7015485372204537  0.2334850373064938  1.0000
  C   C56       1.0  0.9054475003014558  0.7308710795165184  0.2028799338278588  1.0000
  C   C57       1.0  0.45835701756841013  0.710088773452071  0.3313141196586713  1.0000
  C   C58       1.0  0.7786953078135709  0.6722643493711544  0.29653271189442876  1.0000
  C   C59       1.0  0.4610842875738825  0.6187294496992664  0.36411795455300217  1.0000
  C   C60       1.0  0.465916876309464  0.589437935599534  0.3942021031545479  1.0000
  C   C61       1.0  0.6412928218638141  0.5860988638150603  0.417815204712049  1.0000
  C   C62       1.0  0.8104932374079609  0.6135801080159383  0.41189760002169606  1.0000
  C   C63       1.0  0.8042369157862765  0.644513552715196  0.38307823899278753  1.0000
  C   C64       1.0  0.6300192364055874  0.6464453343392477  0.3589488105032003  1.0000
  C   C65       1.0  0.7266077566841176  0.886281403270665  0.13897626593731616  1.0000
  C   C66       1.0  0.7194991916102393  0.9155955950459996  0.10886898868399435  1.0000
  C   C67       1.0  0.5473058745088862  0.916270933121332  0.08363418080740097  1.0000
  C   C68       1.0  0.3829542666600574  0.8868362038273575  0.0884029541548017  1.0000
  C   C69       1.0  0.3913467957467062  0.856286408250014  0.11750751806909673  1.0000
  C   C70       1.0  0.5629297510870472  0.8564672233836318  0.1428213619168446  1.0000
  C   C71       1.0  0.45008059934055206  0.6218493584318241  0.6203073405528199  1.0000
  C   C72       1.0  0.44036575170996173  0.6580289687734793  0.6571537876478288  1.0000
  C   C73       1.0  0.6187744038071513  0.6761913231095562  0.677971172207833  1.0000
  C   C74       1.0  0.8066472849636454  0.6573992201721807  0.6612302454934988  1.0000
  C   C75       1.0  0.8152008031550365  0.6210547798249237  0.6243913083598186  1.0000
  C   C76       1.0  0.6370922462377634  0.6030155086248714  0.6036731492532468  1.0000
  C   C77       1.0  0.5867615180799677  0.7829156360738379  0.7849430991696236  1.0000
  C   C78       1.0  0.6078123144288057  0.7146050221811532  0.7169558273249734  1.0000
  C   C79       1.0  0.38621342679143583  0.8367654883130483  0.8426076966975699  1.0000
  C   C80       1.0  0.37562660337008685  0.8735624170034626  0.8790538144247859  1.0000
  C   C81       1.0  0.552209776787457  0.8960937296788529  0.896857269971292  1.0000
  C   C82       1.0  0.739900488660318  0.8815031015541595  0.8776523480058529  1.0000
  C   C83       1.0  0.7515126774476001  0.84486083251403  0.8411378001296511  1.0000
  C   C84       1.0  0.5746116492871425  0.8220406582295539  0.8233466765153067  1.0000
  C   C85       1.0  0.5423493830419375  0.9355698383148762  0.9361112330907772  1.0000
  C   C86       1.0  0.5419833694144387  0.9478615653201742  0.0514770694152489  1.0000
  C   C87       1.0  0.0391151851103828  0.06419997979627111  0.06395436841223298  1.0000
  C   C88       1.0  0.03944213053566158  0.0521518468643194  0.9474557578277396  1.0000
  C   C89       1.0  0.5759561887107054  0.34098260896212923  0.7777305523896343  1.0000
  C   C90       1.0  0.7197716617450425  0.33924014154819543  0.8146698598648711  1.0000
  C   C91       1.0  0.3725418000276548  0.04335346581590469  0.8778234474650047  1.0000
  C   C92       1.0  0.2907029055791099  0.9934265792373085  0.8571145630916133  1.0000
  C   C93       1.0  0.23021122179103773  0.2844426535428751  0.584979426042068  1.0000
  C   C94       1.0  0.4399472197354867  0.2703520416992617  0.5980994208047716  1.0000
  C   C95       1.0  0.021769072160694194  0.4894395265661799  0.642738104650995  1.0000
  C   C96       1.0  0.20940663849656724  0.5215850672580588  0.6504835640023856  1.0000
  C   C97       1.0  0.5015830440446508  0.41623468209588305  0.36857273649027167  1.0000
  C   C98       1.0  0.4663804647231657  0.4649489296040699  0.3559602140299845  1.0000
  N   N1        1.0  0.2644011933084158  0.27270475528343496  0.2587606881126944  1.0000
  N   N2        1.0  0.25137235778403516  0.23865467479747343  0.22391255274742147  1.0000
  N   N3        1.0  0.9075599709129705  0.22492827996419607  0.24178630437479134  1.0000
  N   N4        1.0  0.919571427611082  0.2596419623148519  0.2763655154543229  1.0000
  N   N5        1.0  0.11642969435953178  0.32731814666692577  0.6754350804466965  1.0000
  N   N6        1.0  0.05201055558362098  0.17926822741030432  0.829259952298912  1.0000
  N   N7        1.0  0.5715381615887337  0.8256226134155182  0.17368009200234263  1.0000
  N   N8        1.0  0.6228266417219499  0.6773158802696668  0.32812800063945957  1.0000
  N   N9        1.0  0.7830505621608594  0.7334469776213765  0.7344453930932318  1.0000
  N   N10       1.0  0.7723998564568006  0.7679857727244511  0.7691704738414555  1.0000
  N   N11       1.0  0.41160649410055317  0.7635030136920379  0.7678455197452221  1.0000
  N   N12       1.0  0.42238075514378437  0.728590959447203  0.7334452783634473  1.0000
  O   O1        1.0  0.4758612349478639  0.5494872774883532  0.5473363171393045  1.0000
  O   O2        1.0  0.8170566038649625  0.5428373757768837  0.46259035626867717  1.0000
  O   O3        1.0  0.9774671162494001  0.4527906809461797  0.44971260868653923  1.0000
  O   O4        1.0  0.8183192175531602  0.5491299123548571  0.5494064175315572  1.0000
  O   O5        1.0  0.9771372415655506  0.4597005663452691  0.5381120266620343  1.0000
  O   O6        1.0  0.47680280137355874  0.5375319238183138  0.4593420778077401  1.0000
  O   O7        1.0  0.6498508456886966  0.4702470818023556  0.4972936754304555  1.0000
  O   O8        1.0  0.3187040749892134  0.4590614972547656  0.5392255217986985  1.0000
  O   O9        1.0  0.31784642240736366  0.44932172330012315  0.45207218770408264  1.0000
  O   O10       1.0  0.14862743818777346  0.5287515946840812  0.5030070678802758  1.0000
  O   O11       1.0  0.40027139585428984  0.3637984134912102  0.7067919757049239  1.0000
  O   O12       1.0  0.8245178720669415  0.2938572255302034  0.6450145157522654  1.0000
  O   O13       1.0  0.7598342053421235  0.1462555037138458  0.797395826644461  1.0000
  O   O14       1.0  0.34051228208358  0.2138792318992415  0.8616426652546918  1.0000
  O   O15       1.0  0.864727671959713  0.7901773051709144  0.14186498372656328  1.0000
  O   O16       1.0  0.2766912820674108  0.8595739825494133  0.20595501859848742  1.0000
  O   O17       1.0  0.3312808530716325  0.7135288846443544  0.3602516605239074  1.0000
  O   O18       1.0  0.9158902970652036  0.6427610429787478  0.2953701467749426  1.0000
  O   O19       1.0  0.7111529140775872  0.9632446298343922  0.040732693861620844  1.0000
  O   O20       1.0  0.36808262132999653  0.9506321129517445  0.950182716981942  1.0000
  O   O21       1.0  0.2065027840136437  0.0404751044901062  0.9621138668591553  1.0000
  O   O22       1.0  0.37081207802309973  0.9567339996780079  0.036721452657225484  1.0000
  O   O23       1.0  0.20901095477492496  0.0467551687263992  0.049207118036903794  1.0000
  O   O24       1.0  0.7099642019522534  0.9508087022301908  0.9527025121290505  1.0000
  O   O25       1.0  0.5356993979125804  0.029180260740872696  0.002653467928219299  1.0000
  O   O26       1.0  0.8674866791179738  0.0518493026136326  0.04758854084704468  1.0000
  O   O27       1.0  0.866064200141686  0.0403709486909278  0.959627045829748  1.0000
  O   O28       1.0  0.03705148658615091  0.9710613021304298  0.9966248369921613  1.0000
