data_image0
_chemical_formula_structural       Mn2H16C18O16
_chemical_formula_sum              "Mn2 H16 C18 O16"
_cell_length_a       7.040233468116311
_cell_length_b       7.0719312948956095
_cell_length_c       12.664830672737247
_cell_angle_alpha    104.32858550314614
_cell_angle_beta     88.5741317317894
_cell_angle_gamma    114.42772561284787

_space_group_name_H-M_alt    "P 1"
_space_group_IT_number       1

loop_
  _space_group_symop_operation_xyz
  'x, y, z'

loop_
  _atom_site_type_symbol
  _atom_site_label
  _atom_site_symmetry_multiplicity
  _atom_site_fract_x
  _atom_site_fract_y
  _atom_site_fract_z
  _atom_site_occupancy
  Mn  Mn1       1.0  0.9999966516411906  0.5000009812303361  3.01483589740206e-06  1.0000
  Mn  Mn2       1.0  0.4999958561982254  0.999992162422096  0.9999999316243662  1.0000
  H   H1        1.0  0.9141623525366003  0.09147250292483021  0.9498608978326076  1.0000
  H   H2        1.0  0.08583566004891442  0.9085232832026973  0.050139608465933315  1.0000
  H   H3        1.0  0.9067871994721133  0.11766225372760888  0.0795103407773894  1.0000
  H   H4        1.0  0.09321222916469192  0.8823334787864494  0.9204893590317695  1.0000
  H   H5        1.0  0.5965736588647702  0.38595812254927603  0.1292366134429983  1.0000
  H   H6        1.0  0.40341877275071886  0.6140343430218492  0.870760361477096  1.0000
  H   H7        1.0  0.4936139900051445  0.23805154350225874  0.21190544580208132  1.0000
  H   H8        1.0  0.5063881352843608  0.7619505078691231  0.7880926480070941  1.0000
  H   H9        1.0  0.17232960466242295  0.7303460148412243  0.6364834270532569  1.0000
  H   H10       1.0  0.8276834116674153  0.26967552981149356  0.3635217434703364  1.0000
  H   H11       1.0  0.23515559005436862  0.6826392850604959  0.36283097596656694  1.0000
  H   H12       1.0  0.7648485371964923  0.31736793158819404  0.6371748522571892  1.0000
  H   H13       1.0  0.808233541538158  0.7994451667343301  0.5365693916905984  1.0000
  H   H14       1.0  0.19177356968768328  0.20055517569570472  0.4634276654439731  1.0000
  H   H15       1.0  0.9885933730740817  0.8245248412474381  0.36455454304019963  1.0000
  H   H16       1.0  0.011406133323653464  0.17546746989215475  0.635440783143558  1.0000
  C   C1        1.0  0.38294257898424894  0.7084327821840972  0.16539876483261653  1.0000
  C   C2        1.0  0.617056771891619  0.2915663717044268  0.8346053086019367  1.0000
  C   C3        1.0  0.49995398040214684  0.7303184530062197  0.26844809328528646  1.0000
  C   C4        1.0  0.5000488826698374  0.2696820502642296  0.7315513833174166  1.0000
  C   C5        1.0  0.400223860269982  0.7144358775235772  0.3645145329005146  1.0000
  C   C6        1.0  0.5997789396388883  0.28556774409248215  0.6354829607661117  1.0000
  C   C7        1.0  0.5123898358764052  0.7447079030864358  0.461573715811575  1.0000
  C   C8        1.0  0.48761296403245785  0.25529571852962357  0.5384237778550586  1.0000
  C   C9        1.0  0.41875690788288733  0.7462199155842626  0.5672876526127625  1.0000
  C   C10       1.0  0.5812479031109633  0.2537886819160846  0.4327136026175325  1.0000
  C   C11       1.0  0.7243316378168957  0.781444653131011  0.460996086325288  1.0000
  C   C12       1.0  0.2756741186960454  0.2185526624454894  0.5390045548049187  1.0000
  C   C13       1.0  0.8240277996088778  0.7957230984815593  0.36540101611479514  1.0000
  C   C14       1.0  0.17597014433934532  0.20427591962740616  0.6345998909582137  1.0000
  C   C15       1.0  0.7144309341575977  0.7750196247740389  0.2692141946307984  1.0000
  C   C16       1.0  0.2855670134400797  0.2249793175777057  0.7307851233018425  1.0000
  C   C17       1.0  0.8287397174994525  0.7824765314535754  0.16712163844616876  1.0000
  C   C18       1.0  0.17125264547873806  0.21751916609898098  0.8328757372484077  1.0000
  O   O1        1.0  0.8581990900214651  0.1554758462799413  0.018117179515009206  1.0000
  O   O2        1.0  0.1418010782225423  0.8445183002545775  0.9818831085175006  1.0000
  O   O3        1.0  0.4883097232299037  0.2436027910643759  0.1350852910947538  1.0000
  O   O4        1.0  0.5116841226121381  0.7563896587718801  0.8649116719061497  1.0000
  O   O5        1.0  0.1850219066289185  0.6039734739381402  0.1536772199240914  1.0000
  O   O6        1.0  0.8149752958873792  0.39602716802897214  0.8463238934957573  1.0000
  O   O7        1.0  0.4951175917450358  0.7997153725346421  0.09676581960152933  1.0000
  O   O8        1.0  0.5048755740034636  0.20027562069275717  0.9032341272524604  1.0000
  O   O9        1.0  0.516973804404124  0.7755503359552733  0.6532427882815101  1.0000
  O   O10       1.0  0.48303786998590675  0.2244679166936621  0.3467604042464387  1.0000
  O   O11       1.0  0.2161405365591307  0.7165825277420053  0.561885177556853  1.0000
  O   O12       1.0  0.7838698517552986  0.2834294660719578  0.43812119819224904  1.0000
  O   O13       1.0  0.965340953711838  0.9608232953355225  0.15661403118637202  1.0000
  O   O14       1.0  0.0346549755019439  0.03917082264637631  0.8433847034633433  1.0000
  O   O15       1.0  0.7901916456896246  0.5983412320903341  0.10194204434926493  1.0000
  O   O16       1.0  0.2098083184672177  0.40166257250987764  0.898058651436486  1.0000
