data_image0
_chemical_formula_structural       Na6H24C12N14O18
_chemical_formula_sum              "Na6 H24 C12 N14 O18"
_cell_length_a       9.401804950148836
_cell_length_b       9.401815887505453
_cell_length_c       9.40180905769811
_cell_angle_alpha    103.03649803032923
_cell_angle_beta     103.036799911841
_cell_angle_gamma    103.03637000578969

_space_group_name_H-M_alt    "P 1"
_space_group_IT_number       1

loop_
  _space_group_symop_operation_xyz
  'x, y, z'

loop_
  _atom_site_type_symbol
  _atom_site_label
  _atom_site_symmetry_multiplicity
  _atom_site_fract_x
  _atom_site_fract_y
  _atom_site_fract_z
  _atom_site_occupancy
  Na  Na1       1.0  0.2664296015855427  0.6188478498369747  0.1277774484288158  1.0000
  Na  Na2       1.0  0.12777651938966267  0.26642749744279115  0.6188460303572823  1.0000
  Na  Na3       1.0  0.6188455829574483  0.1277783806227788  0.2664288267189007  1.0000
  Na  Na4       1.0  0.6277781258110197  0.11884785202227022  0.7664311383109562  1.0000
  Na  Na5       1.0  0.11884748322639639  0.7664304254298883  0.6277769013640009  1.0000
  Na  Na6       1.0  0.7664305562156385  0.6277765560515292  0.11884525775320738  1.0000
  H   H1        1.0  0.45829802158674954  0.41683368681989214  0.2791521722634869  1.0000
  H   H2        1.0  0.2791520982058771  0.45829634764290006  0.41683574281218216  1.0000
  H   H3        1.0  0.41683292445432585  0.27915069623859506  0.45829505469041  1.0000
  H   H4        1.0  0.7791519122045402  0.9168338632699075  0.9582970707659368  1.0000
  H   H5        1.0  0.9168360204772059  0.9582972829415937  0.7791521693102011  1.0000
  H   H6        1.0  0.9582947279265425  0.7791506067452828  0.916833090378972  1.0000
  H   H7        1.0  0.392060269008958  0.3209061079986241  0.07858877621453784  1.0000
  H   H8        1.0  0.07858780689120683  0.39206198501769046  0.3209032925515273  1.0000
  H   H9        1.0  0.32090055532449213  0.0785867304687073  0.3920559698347645  1.0000
  H   H10       1.0  0.5785871563356793  0.8209053052070984  0.8920594747672296  1.0000
  H   H11       1.0  0.8209033219120201  0.8920627939263639  0.5785882832168596  1.0000
  H   H12       1.0  0.8920574386852993  0.5785866061602505  0.820900373835613  1.0000
  H   H13       1.0  0.9899227670678388  0.2619387268308556  0.049566828098896544  1.0000
  H   H14       1.0  0.049564486636590584  0.9899241219881105  0.2619293724497708  1.0000
  H   H15       1.0  0.2619296598939941  0.049568534967647786  0.9899189246074369  1.0000
  H   H16       1.0  0.5495662315620178  0.7619364702002966  0.48992186976460056  1.0000
  H   H17       1.0  0.7619307287695848  0.48992369984865297  0.549565455869377  1.0000
  H   H18       1.0  0.48991981259295886  0.5495677513370082  0.761926727577716  1.0000
  H   H19       1.0  0.1245061811130697  0.23118406718236167  0.9484139725135204  1.0000
  H   H20       1.0  0.9484119572680358  0.12450737894167932  0.23117474268438082  1.0000
  H   H21       1.0  0.23117524170608308  0.948415592069736  0.12450199216358011  1.0000
  H   H22       1.0  0.4484148108765994  0.7311831687840923  0.6245049021286987  1.0000
  H   H23       1.0  0.7311766840818948  0.6245071366842154  0.4484120423860529  1.0000
  H   H24       1.0  0.6245020759103497  0.44841441157189615  0.7311730223587245  1.0000
  C   C1        1.0  0.36720449640551334  0.32600509674639266  0.18817661127739876  1.0000
  C   C2        1.0  0.18817685849184326  0.3672055832029244  0.32600542304083996  1.0000
  C   C3        1.0  0.3260029721572835  0.18817734098993097  0.36720264450619305  1.0000
  C   C4        1.0  0.6881769806841334  0.8260041325861635  0.8672032917154692  1.0000
  C   C5        1.0  0.8260044676691507  0.867205376983044  0.6881773702081373  1.0000
  C   C6        1.0  0.8672015014986629  0.6881761106845589  0.8260034472068583  1.0000
  C   C7        1.0  0.0996467926036786  0.23685338606384937  0.05785445827848428  1.0000
  C   C8        1.0  0.057851611615433306  0.099646866571895  0.23684521588731397  1.0000
  C   C9        1.0  0.23684573341003567  0.05785591776818681  0.09964284154862212  1.0000
  C   C10       1.0  0.557853592505019  0.7368522547686993  0.5996452164992616  1.0000
  C   C11       1.0  0.7368481042977351  0.5996477544936808  0.5578524953437591  1.0000
  C   C12       1.0  0.5996424871366061  0.5578549027076605  0.7368448116478133  1.0000
  N   N1        1.0  0.22099176397708928  0.362868019804324  0.17884535077273253  1.0000
  N   N2        1.0  0.1788446736795422  0.2209913671483932  0.36286527064389407  1.0000
  N   N3        1.0  0.3628662460344573  0.17884590433124714  0.22098806904841686  1.0000
  N   N4        1.0  0.6788464874120164  0.8628680310632999  0.7209900203434214  1.0000
  N   N5        1.0  0.8628651111423765  0.7209911036608074  0.678842504586491  1.0000
  N   N6        1.0  0.7209892779851332  0.6788460365636838  0.8628649487537741  1.0000
  N   N7        1.0  0.08839016464754221  0.08839482106348129  0.08838878377551397  1.0000
  N   N8        1.0  0.5883895956298133  0.588393640952887  0.5883891927162208  1.0000
  N   N9        1.0  0.20652307576802534  0.571744555341631  0.8029044530976676  1.0000
  N   N10       1.0  0.8029049363546648  0.20652346781300673  0.5717442256652417  1.0000
  N   N11       1.0  0.5717445101179095  0.8029040221829432  0.20652299457552908  1.0000
  N   N12       1.0  0.3029043802233247  0.0717426635605705  0.7065229017581273  1.0000
  N   N13       1.0  0.07174428761523183  0.7065239149759392  0.30290560802039573  1.0000
  N   N14       1.0  0.706527037483447  0.30290436823133854  0.07174389373453488  1.0000
  O   O1        1.0  0.2224831930265764  0.7057824615353991  0.8808969738894631  1.0000
  O   O2        1.0  0.8808960463110724  0.2224821289988554  0.7057825456683914  1.0000
  O   O3        1.0  0.7057839734443689  0.8808966989060565  0.2224815453810648  1.0000
  O   O4        1.0  0.38089565305230627  0.20578277390592348  0.7224811457893165  1.0000
  O   O5        1.0  0.20578324521602548  0.7224847919560489  0.3808988238525827  1.0000
  O   O6        1.0  0.7224830308721338  0.3808960429270413  0.20578052578478884  1.0000
  O   O7        1.0  0.22457522411580305  0.4696993544716508  0.8675195628243131  1.0000
  O   O8        1.0  0.8675184171676379  0.22457384509269218  0.46969793070771687  1.0000
  O   O9        1.0  0.46969826691287136  0.8675192057267223  0.2245751084620337  1.0000
  O   O10       1.0  0.3675188729620018  0.9696975332651404  0.7245743289910107  1.0000
  O   O11       1.0  0.9696989602174002  0.7245743571733669  0.36751913247379514  1.0000
  O   O12       1.0  0.7245717518332598  0.36751705204368784  0.9696997045294251  1.0000
  O   O13       1.0  0.17184032263591575  0.5377666884404205  0.6575878274275196  1.0000
  O   O14       1.0  0.6575891872189247  0.1718390010381441  0.5377668184315779  1.0000
  O   O15       1.0  0.5377684723139851  0.6575883118522086  0.17184058299243077  1.0000
  O   O16       1.0  0.15758774513354726  0.037767211911607  0.6718401429517655  1.0000
  O   O17       1.0  0.037768895163587377  0.6718427381709445  0.1575909593905321  1.0000
  O   O18       1.0  0.671839866058413  0.1575932192720018  0.03776930965257463  1.0000
