data_image0
_chemical_formula_structural       Hg4H16C28Cl4O4F8
_chemical_formula_sum              "Hg4 H16 C28 Cl4 O4 F8"
_cell_length_a       6.721462821618616
_cell_length_b       11.456442680590296
_cell_length_c       11.45590120914626
_cell_angle_alpha    86.38513206040203
_cell_angle_beta     75.08250592154926
_cell_angle_gamma    75.08382871041277

_space_group_name_H-M_alt    "P 1"
_space_group_IT_number       1

loop_
  _space_group_symop_operation_xyz
  'x, y, z'

loop_
  _atom_site_type_symbol
  _atom_site_label
  _atom_site_symmetry_multiplicity
  _atom_site_fract_x
  _atom_site_fract_y
  _atom_site_fract_z
  _atom_site_occupancy
  Hg  Hg1       1.0  0.05232809027114627  0.2847021544607459  0.5927100431361866  1.0000
  Hg  Hg2       1.0  0.5523757527859913  0.5926836374134015  0.28471389300657546  1.0000
  Hg  Hg3       1.0  0.5078610445676689  0.4836600225762028  0.6410208612493236  1.0000
  Hg  Hg4       1.0  0.007898008317972952  0.641013376033797  0.4836792270904696  1.0000
  H   H1        1.0  0.06541302825939976  0.8968302634317951  0.5797969916992188  1.0000
  H   H2        1.0  0.5653568220813695  0.5798526215566328  0.8968597408793145  1.0000
  H   H3        1.0  0.3747758824374118  0.938857722019563  0.4272183717686389  1.0000
  H   H4        1.0  0.8747126592405791  0.4272617795183891  0.9388661303306524  1.0000
  H   H5        1.0  0.31920450837287007  0.09237471310552078  0.2679004523651258  1.0000
  H   H6        1.0  0.8191622178996737  0.2679196859995798  0.0923718854636562  1.0000
  H   H7        1.0  0.9513261778614962  0.20993498270713223  0.26664323263690887  1.0000
  H   H8        1.0  0.45127248827492394  0.2666599171580515  0.20992509736245785  1.0000
  H   H9        1.0  0.640871997675667  0.16851899398929504  0.4211951108542565  1.0000
  H   H10       1.0  0.14079662234102142  0.42119780449895927  0.16852504479305713  1.0000
  H   H11       1.0  0.5639819364378764  0.7738228073989578  0.7610033765653769  1.0000
  H   H12       1.0  0.06397275521013754  0.7610316095295534  0.7738162247750608  1.0000
  H   H13       1.0  0.37016603019380784  0.8965699695241512  0.7164113877000846  1.0000
  H   H14       1.0  0.8701115660442227  0.7164561935530575  0.8965657844096953  1.0000
  H   H15       1.0  0.4904012012347394  0.9189090303717721  0.8328506703344376  1.0000
  H   H16       1.0  0.9903894139849212  0.8328711042328223  0.9189164704216426  1.0000
  C   C1        1.0  0.7915688854537565  0.24445648339284531  0.7155872589471599  1.0000
  C   C2        1.0  0.29161944607660223  0.7155830325825648  0.24446815246112408  1.0000
  C   C3        1.0  0.5856668232955754  0.3196707179908884  0.7289033372270097  1.0000
  C   C4        1.0  0.08573986804348273  0.7288979694011744  0.319674748661896  1.0000
  C   C5        1.0  0.41773318175396673  0.2903448462684182  0.8140619345602718  1.0000
  C   C6        1.0  0.9178120252933939  0.8140396085061214  0.2903469510708376  1.0000
  C   C7        1.0  0.44670079715608313  0.19039785965613026  0.8890881983122584  1.0000
  C   C8        1.0  0.9467925354568008  0.8890810303487914  0.19041358450696325  1.0000
  C   C9        1.0  0.6506596903521639  0.1157312831661912  0.8758705339497226  1.0000
  C   C10       1.0  0.15075266999726733  0.8758498142936942  0.11573010787723353  1.0000
  C   C11       1.0  0.8205002718832121  0.1434359594886416  0.7892942317356458  1.0000
  C   C12       1.0  0.32057175968699175  0.7892677590985216  0.1434235236816548  1.0000
  C   C13       1.0  0.8333856349728066  0.028373767037940912  0.5081785149785745  1.0000
  C   C14       1.0  0.3333497643544874  0.5082020762102601  0.028384779200706593  1.0000
  C   C15       1.0  0.04059105276130032  0.964377908697195  0.5103330636522686  1.0000
  C   C16       1.0  0.5405314789866792  0.5103570799414572  0.9643931049689556  1.0000
  C   C17       1.0  0.21448254267516373  0.9882014476578509  0.4247299148141012  1.0000
  C   C18       1.0  0.7144230256252585  0.4247655415874334  0.9882096527405295  1.0000
  C   C19       1.0  0.18279385277807592  0.07532319576763769  0.33582162480256983  1.0000
  C   C20       1.0  0.6827393614494354  0.3358553704284049  0.07531647987541852  1.0000
  C   C21       1.0  0.9764765097103519  0.1402497617787475  0.33420458911805184  1.0000
  C   C22       1.0  0.4764062731535291  0.3342265989148245  0.14024141965956013  1.0000
  C   C23       1.0  0.8022087309094629  0.1175329865115131  0.4203731757509673  1.0000
  C   C24       1.0  0.3021597933664708  0.42039197581641463  0.11753477729690331  1.0000
  C   C25       1.0  0.6431959312371092  0.006028254153449098  0.5975664720232887  1.0000
  C   C26       1.0  0.14310635937680163  0.5975932418833239  0.00604345617355762  1.0000
  C   C27       1.0  0.5155903658612857  0.8713784534386451  0.7482502399133324  1.0000
  C   C28       1.0  0.015544670104006359  0.7482706382636339  0.8713922433624506  1.0000
  Cl  Cl1       1.0  0.31847427258002636  0.35604068642396675  0.45335258752508883  1.0000
  Cl  Cl2       1.0  0.818472884375893  0.4533190409133995  0.3560828102945735  1.0000
  Cl  Cl3       1.0  0.4034554452568528  0.6788115032752773  0.561539967712669  1.0000
  Cl  Cl4       1.0  0.9034464808732565  0.5615229671603785  0.6788332458161792  1.0000
  O   O1        1.0  0.46335813452160585  0.0727798257188752  0.614649484140088  1.0000
  O   O2        1.0  0.9633177934242809  0.6146695017763053  0.07279403959165628  1.0000
  O   O3        1.0  0.6906894325376598  0.9009014702871101  0.6584124747719713  1.0000
  O   O4        1.0  0.1906264199589813  0.6584339320712902  0.9009119460226246  1.0000
  F   F1        1.0  0.21544360919862973  0.36075304658515966  0.828108183831148  1.0000
  F   F2        1.0  0.7155185276889926  0.8280948121789465  0.36077431416512706  1.0000
  F   F3        1.0  0.2816455400562106  0.1665222535510722  0.9738841797020612  1.0000
  F   F4        1.0  0.7817481989332151  0.9738759890035595  0.16652931719850275  1.0000
  F   F5        1.0  0.6815760597621011  0.01768900976988871  0.9470733944075819  1.0000
  F   F6        1.0  0.1816833951677666  0.947056947492996  0.017683379411693113  1.0000
  F   F7        1.0  0.016489744125045995  0.06831285636634732  0.7806211228910912  1.0000
  F   F8        1.0  0.5165501223199199  0.7805838688527375  0.06830066368377172  1.0000
