data_image0
_chemical_formula_structural       Cd4H72C88N16O16
_chemical_formula_sum              "Cd4 H72 C88 N16 O16"
_cell_length_a       8.295058386000187
_cell_length_b       18.717332707090982
_cell_length_c       18.717319237090805
_cell_angle_alpha    90.00035670799768
_cell_angle_beta     90.00001297084755
_cell_angle_gamma    90.00002053357575

_space_group_name_H-M_alt    "P 1"
_space_group_IT_number       1

loop_
  _space_group_symop_operation_xyz
  'x, y, z'

loop_
  _atom_site_type_symbol
  _atom_site_label
  _atom_site_symmetry_multiplicity
  _atom_site_fract_x
  _atom_site_fract_y
  _atom_site_fract_z
  _atom_site_occupancy
  Cd  Cd1       1.0  1.3795649849e-06  0.2651678808827356  0.2651670031997284  1.0000
  Cd  Cd2       1.0  0.9999968672377691  0.23483292985319798  0.7651659108974657  1.0000
  Cd  Cd3       1.0  1.6878042288000002e-06  0.7348334845395783  0.7348340134032513  1.0000
  Cd  Cd4       1.0  0.999999356055824  0.7651669927317709  0.23483413772017775  1.0000
  H   H1        1.0  0.07781046364704032  0.6226574917269758  0.1256123445130299  1.0000
  H   H2        1.0  0.07781156876416873  0.3743881338515321  0.12265495169880583  1.0000
  H   H3        1.0  0.07780935045560972  0.3773438861315128  0.8743854743262531  1.0000
  H   H4        1.0  0.07781306748755411  0.6256143125423108  0.8773450042022193  1.0000
  H   H5        1.0  0.9221913630905905  0.12265760456747901  0.37438577211287344  1.0000
  H   H6        1.0  0.9221893190052273  0.877342305564788  0.6256121316231004  1.0000
  H   H7        1.0  0.9221890164745903  0.12561232392310018  0.6226563771773288  1.0000
  H   H8        1.0  0.9221940766958171  0.8743875862160092  0.3773436636169336  1.0000
  H   H9        1.0  0.8690260623369995  0.505711370283592  0.11448542688690823  1.0000
  H   H10       1.0  0.869019958677882  0.38551334993184133  0.005710928917203302  1.0000
  H   H11       1.0  0.8690214321004676  0.4942885313508469  0.8855146085613798  1.0000
  H   H12       1.0  0.8690227136112086  0.6144865516988887  0.9942880380017557  1.0000
  H   H13       1.0  0.1309756705058263  0.0057114258325655  0.3855119616574357  1.0000
  H   H14       1.0  0.13097612571770162  0.9942878234720068  0.6144853282564428  1.0000
  H   H15       1.0  0.13097695034206683  0.11448477699094184  0.5057111370411178  1.0000
  H   H16       1.0  0.13097846249335285  0.8855144723238979  0.49428935846020045  1.0000
  H   H17       1.0  0.6023710113301848  0.6110763569041849  0.3188900128067544  1.0000
  H   H18       1.0  0.6023719912986821  0.18111060088354952  0.1110763295168553  1.0000
  H   H19       1.0  0.6023686033857916  0.3889235020715703  0.6811083930360982  1.0000
  H   H20       1.0  0.6023724455662817  0.8188897923650629  0.8889247476506129  1.0000
  H   H21       1.0  0.3976332171841649  0.11107838814127284  0.18110910025267665  1.0000
  H   H22       1.0  0.39762766429937824  0.8889246436711884  0.8188898192783471  1.0000
  H   H23       1.0  0.3976297935749146  0.31888978480006364  0.6110756999684599  1.0000
  H   H24       1.0  0.39763229344485757  0.6811105756950369  0.38892428808338764  1.0000
  H   H25       1.0  0.6971696532153899  0.6964934273336282  0.3117530434428488  1.0000
  H   H26       1.0  0.697169419809761  0.1882481092460679  0.19649457156462097  1.0000
  H   H27       1.0  0.6971659747915809  0.3035059125467541  0.6882469747238178  1.0000
  H   H28       1.0  0.6971698248095493  0.8117533676962266  0.8035070494025123  1.0000
  H   H29       1.0  0.30283464387947845  0.196494953580121  0.18824766993238745  1.0000
  H   H30       1.0  0.3028302243134534  0.8035075288093764  0.811752842858745  1.0000
  H   H31       1.0  0.3028312030642085  0.31175173969337777  0.6964933537816124  1.0000
  H   H32       1.0  0.30283366512729515  0.6882475371095039  0.30350662473499324  1.0000
  H   H33       1.0  0.7938898720736206  0.6254823945434679  0.3585848542623822  1.0000
  H   H34       1.0  0.7938920294160213  0.1414164368920439  0.1254821247071689  1.0000
  H   H35       1.0  0.7938886378673901  0.37451696080671587  0.6414146393650029  1.0000
  H   H36       1.0  0.7938925082114354  0.8585845212594094  0.8745200402482212  1.0000
  H   H37       1.0  0.20611436800699323  0.12548361375611708  0.1414148827479522  1.0000
  H   H38       1.0  0.20610882378886694  0.874519387424506  0.8585850860551079  1.0000
  H   H39       1.0  0.20610976280045187  0.3585840384797195  0.6254822572938467  1.0000
  H   H40       1.0  0.20611222345701924  0.641415222853368  0.37451824576205445  1.0000
  H   H41       1.0  0.4501212934670918  0.5921507580903764  0.2072986455003658  1.0000
  H   H42       1.0  0.45011511622417544  0.29270014743685385  0.09215195060213692  1.0000
  H   H43       1.0  0.45011292991211604  0.4078506793303164  0.792701882096779  1.0000
  H   H44       1.0  0.45011669607913524  0.7072970158687185  0.907848042717042  1.0000
  H   H45       1.0  0.5498805087771929  0.09215030282869209  0.29270088398904204  1.0000
  H   H46       1.0  0.5498785308210118  0.9078495477540968  0.7072985851050504  1.0000
  H   H47       1.0  0.5498818368543895  0.20729744910812536  0.5921511758860802  1.0000
  H   H48       1.0  0.5498844359659929  0.7927007986910793  0.407850964526098  1.0000
  H   H49       1.0  0.22062318225469116  0.5074704785724579  0.23095133018988187  1.0000
  H   H50       1.0  0.22061700190210598  0.2690479912042037  0.0074704011782529  1.0000
  H   H51       1.0  0.2206160801698332  0.4925319906630391  0.7690481058057373  1.0000
  H   H52       1.0  0.22061623283523352  0.7309496696517215  0.9925285005375599  1.0000
  H   H53       1.0  0.7793833741495108  0.007470447036652698  0.2690498091580622  1.0000
  H   H54       1.0  0.7793790651631627  0.9925289060011622  0.7309523543332619  1.0000
  H   H55       1.0  0.7793823190886331  0.2309501466718089  0.5074703310574905  1.0000
  H   H56       1.0  0.7793801202231095  0.7690465350468755  0.4925323666900639  1.0000
  H   H57       1.0  0.5579299647503788  0.33325182343520515  0.24748094977045554  1.0000
  H   H58       1.0  0.5579264650137717  0.25251885286404985  0.8332526170301906  1.0000
  H   H59       1.0  0.5579302273379201  0.6667458913703967  0.7525158488037462  1.0000
  H   H60       1.0  0.5579252883180531  0.7474842045891136  0.16674631861838662  1.0000
  H   H61       1.0  0.4420720310707227  0.8332514904019135  0.25251740943995327  1.0000
  H   H62       1.0  0.4420718896488581  0.16674727440943823  0.7474825830753957  1.0000
  H   H63       1.0  0.44207181649216665  0.24748131322397168  0.3332520408776248  1.0000
  H   H64       1.0  0.4420696931537763  0.7525174515921691  0.6667495544312346  1.0000
  H   H65       1.0  0.7870640052405805  0.41811483819121514  0.22926547588105  1.0000
  H   H66       1.0  0.7870605050187366  0.2707348718262921  0.9181163337226722  1.0000
  H   H67       1.0  0.7870642089780234  0.5818834475389069  0.7707340170567463  1.0000
  H   H68       1.0  0.7870604759793595  0.72926715375403  0.0818836934909442  1.0000
  H   H69       1.0  0.21293564764212655  0.9181156504343162  0.2707318088780468  1.0000
  H   H70       1.0  0.21293663433687735  0.0818852147696845  0.7292644207527632  1.0000
  H   H71       1.0  0.21293902527923345  0.229264754068538  0.4181161553849151  1.0000
  H   H72       1.0  0.21293807884794091  0.7707329055675273  0.5818854168815832  1.0000
  C   C1        1.0  0.9765407282289691  0.6070453993957939  0.15870628965674172  1.0000
  C   C2        1.0  0.9765394028414607  0.3412936981301158  0.10704421819339421  1.0000
  C   C3        1.0  0.9765384051672541  0.3929555879601023  0.841292153811864  1.0000
  C   C4        1.0  0.9765421416295724  0.6587078234967831  0.892956362335163  1.0000
  C   C5        1.0  0.023461085974226102  0.10704569671166546  0.34129279830129633  1.0000
  C   C6        1.0  0.023459071291398507  0.8929546039280893  0.658706083598922  1.0000
  C   C7        1.0  0.023458763365887605  0.15870666245070447  0.6070436222863478  1.0000
  C   C8        1.0  0.023462599436754803  0.8412936381891497  0.3929552596139274  1.0000
  C   C9        1.0  0.874558298989591  0.5499373394486894  0.15174463976892136  1.0000
  C   C10       1.0  0.8745533699317606  0.3482555084507482  0.0499366977838491  1.0000
  C   C11       1.0  0.8745524087165679  0.45006309733308575  0.8482548619726913  1.0000
  C   C12       1.0  0.8745549267005688  0.6517454625949808  0.9500628039592983  1.0000
  C   C13       1.0  0.1254458804362244  0.04993769641757951  0.34825409264693263  1.0000
  C   C14       1.0  0.12544390805632594  0.9500620862714086  0.6517447995060976  1.0000
  C   C15       1.0  0.12544356163043352  0.15174396233294368  0.549936068785783  1.0000
  C   C16       1.0  0.12544863793630162  0.848255820357899  0.45006335763191174  1.0000
  C   C17       1.0  0.7994051713917403  0.6163728379796467  0.24514817571381536  1.0000
  C   C18       1.0  0.7994025823690692  0.2548524435462268  0.11637273338318718  1.0000
  C   C19       1.0  0.7994015912442053  0.38362651825256927  0.7548513184680061  1.0000
  C   C20       1.0  0.7994053858046755  0.7451485154802314  0.8836272950682229  1.0000
  C   C21       1.0  0.20060026691179195  0.11637369400138907  0.2548515045813105  1.0000
  C   C22       1.0  0.20059467218849394  0.8836277035047287  0.7451484636623179  1.0000
  C   C23       1.0  0.20059679413000717  0.2451474408485552  0.6163726934502165  1.0000
  C   C24       1.0  0.200596939432316  0.7548512853383399  0.38362780904957827  1.0000
  C   C25       1.0  0.7177770799716968  0.6385743873409807  0.3122256883033003  1.0000
  C   C26       1.0  0.7177780602833651  0.18777564108428627  0.13857495207164314  1.0000
  C   C27       1.0  0.7177746533463536  0.3614249558341811  0.6877737976709498  1.0000
  C   C28       1.0  0.7177784951841844  0.8122258391545499  0.861426670967674  1.0000
  C   C29       1.0  0.28222717062045893  0.13857590734581038  0.18777413021589956  1.0000
  C   C30       1.0  0.28222159226098853  0.8614265717439199  0.8122253119740253  1.0000
  C   C31       1.0  0.28222253306962847  0.3122259843231631  0.6385737351634831  1.0000
  C   C32       1.0  0.2822250242742826  0.687774891975657  0.36142624128593337  1.0000
  C   C33       1.0  0.6300573079112795  0.5091747725574366  0.21764336058868855  1.0000
  C   C34       1.0  0.6300523415802745  0.28235601517431513  0.009176369873145504  1.0000
  C   C35       1.0  0.6300550333876489  0.49082402232035344  0.7823555822992178  1.0000
  C   C36       1.0  0.6300527664974285  0.7176443824986976  0.9908236415484739  1.0000
  C   C37       1.0  0.3699456332497563  0.009175292635738698  0.282355118048642  1.0000
  C   C38       1.0  0.3699425216496693  0.9908245291680801  0.7176454014821874  1.0000
  C   C39       1.0  0.3699469802798348  0.21764213332045299  0.5091756414668325  1.0000
  C   C40       1.0  0.36994599676723544  0.7823555514321116  0.49082648085121156  1.0000
  C   C41       1.0  0.4721560790856786  0.535590382263827  0.21750452609820306  1.0000
  C   C42       1.0  0.47214990343591273  0.28249392492405423  0.035591469876983715  1.0000
  C   C43       1.0  0.4721501668138687  0.4644099901517435  0.7824954694467723  1.0000
  C   C44       1.0  0.47214910924063963  0.7175043104343074  0.9644085256609713  1.0000
  C   C45       1.0  0.5278480888215498  0.03559146273057219  0.2824946512633772  1.0000
  C   C46       1.0  0.5278437504042515  0.9644083843327277  0.7175064184088813  1.0000
  C   C47       1.0  0.5278494318872122  0.2175022509659144  0.5355907564828046  1.0000
  C   C48       1.0  0.5278484350227757  0.7824949247787456  0.46441084744598277  1.0000
  C   C49       1.0  0.3450454450818229  0.48858157563603294  0.2298015403504294  1.0000
  C   C50       1.0  0.3450431397140577  0.2701965175510069  0.9885820631358441  1.0000
  C   C51       1.0  0.3450419753588464  0.5114193107064082  0.7701968396218464  1.0000
  C   C52       1.0  0.34504186965163103  0.7298016974721264  0.011416851092533901  1.0000
  C   C53       1.0  0.6549566754519207  0.9885813867247177  0.2701977859100353  1.0000
  C   C54       1.0  0.6549551947696417  0.0114179464101483  0.7298043650704358  1.0000
  C   C55       1.0  0.6549564264991332  0.22980034145398062  0.48858139832083225  1.0000
  C   C56       1.0  0.6549578547954837  0.7701968546227819  0.5114202183885654  1.0000
  C   C57       1.0  0.37556599922432105  0.4156000573821573  0.2400255352520801  1.0000
  C   C58       1.0  0.3755612867714576  0.25997368240975766  0.9155998935409858  1.0000
  C   C59       1.0  0.3755637884230154  0.5844008338407676  0.7599723135245284  1.0000
  C   C60       1.0  0.37556006211698195  0.7400272088158105  0.08439902376429131  1.0000
  C   C61       1.0  0.6244372682504038  0.9155992656753966  0.2599744051684283  1.0000
  C   C62       1.0  0.624434645838413  0.08440006257752229  0.7400277427432869  1.0000
  C   C63       1.0  0.6244370367060983  0.24002432502463478  0.4155992893061011  1.0000
  C   C64       1.0  0.6244372884556385  0.7599728661685176  0.5844017900700038  1.0000
  C   C65       1.0  0.5343086927116191  0.389813805624371  0.23846273917595798  1.0000
  C   C66       1.0  0.5343039850645753  0.26153633750148236  0.8898141625041945  1.0000
  C   C67       1.0  0.534308914483539  0.6101849739344373  0.7615351255555539  1.0000
  C   C68       1.0  0.5343039778357338  0.7384651133806698  0.1101847707642349  1.0000
  C   C69       1.0  0.4656921429858444  0.8898140667807579  0.2615365064435125  1.0000
  C   C70       1.0  0.4656919515544545  0.1101863046046319  0.738464556980894  1.0000
  C   C71       1.0  0.46569553080699694  0.23846204366189033  0.3898129983158826  1.0000
  C   C72       1.0  0.4656921803431616  0.7615356564013354  0.6101875308358515  1.0000
  C   C73       1.0  0.6624018398502474  0.43671897121418357  0.228135023754362  1.0000
  C   C74       1.0  0.6623971321059514  0.2718654227243107  0.9367199566108797  1.0000
  C   C75       1.0  0.66240082368995  0.5632792945766738  0.771864990913244  1.0000
  C   C76       1.0  0.6623958871389918  0.7281355143849025  0.06327952380001992  1.0000
  C   C77       1.0  0.33760023904356024  0.9367187419131254  0.27186397962056225  1.0000
  C   C78       1.0  0.3375987991516709  0.06328107471689039  0.7281365366580488  1.0000
  C   C79       1.0  0.33760240767343674  0.22813271619482126  0.436718715235564  1.0000
  C   C80       1.0  0.3376002471313698  0.77186336058638  0.5632818010315861  1.0000
  C   C81       1.0  0.23866037538969925  0.36495237617332066  0.2521243255391497  1.0000
  C   C82       1.0  0.23865445688432638  0.24787563620643738  0.8649521046285571  1.0000
  C   C83       1.0  0.23865940462360413  0.6350495616803896  0.7478740437396569  1.0000
  C   C84       1.0  0.23865447329603034  0.7521263016497387  0.13504733317878254  1.0000
  C   C85       1.0  0.7613428514204443  0.8649509967792143  0.24787583382250492  1.0000
  C   C86       1.0  0.7613402758399347  0.13504888763382183  0.752125259327521  1.0000
  C   C87       1.0  0.7613426352419382  0.252124727232342  0.3649515894865659  1.0000
  C   C88       1.0  0.7613429030921923  0.7478740886542353  0.6350500379247992  1.0000
  N   N1        1.0  0.9288123429880673  0.6477201745607248  0.21656352398026976  1.0000
  N   N2        1.0  0.928812179203938  0.28343728672189883  0.147719198111453  1.0000
  N   N3        1.0  0.9288123688530734  0.3522797366357793  0.7834359832151706  1.0000
  N   N4        1.0  0.9288149437121619  0.7165642272705951  0.8522813776181765  1.0000
  N   N5        1.0  0.07119070940991182  0.14772118784179605  0.28343635147699336  1.0000
  N   N6        1.0  0.07118628048525723  0.8522801889625313  0.7165630694901355  1.0000
  N   N7        1.0  0.07118721327249493  0.21656279282513677  0.6477189672040569  1.0000
  N   N8        1.0  0.07118977662208442  0.783436446925883  0.3522815222855088  1.0000
  N   N9        1.0  0.7617839435969176  0.5567461620494853  0.20609699000208795  1.0000
  N   N10       1.0  0.7617777723332824  0.2939032250385907  0.05674732730981451  1.0000
  N   N11       1.0  0.7617768146158356  0.4432521196362769  0.7939025003934504  1.0000
  N   N12       1.0  0.761779369269391  0.7060971937051831  0.9432526973567336  1.0000
  N   N13       1.0  0.23822144683317256  0.056747801470336895  0.2939017848080852  1.0000
  N   N14       1.0  0.23821708561548155  0.9432530677879072  0.706097652952174  1.0000
  N   N15       1.0  0.23821916270026833  0.20609628814528239  0.5567465137723815  1.0000
  N   N16       1.0  0.23822057528489893  0.7939029783222437  0.44325345824749723  1.0000
  O   O1        1.0  0.09739797037169501  0.3891556322059627  0.2625462922110202  1.0000
  O   O2        1.0  0.09739204147845731  0.23745380931755727  0.889155317391463  1.0000
  O   O3        1.0  0.09739818039810191  0.6108468173141476  0.737451528601156  1.0000
  O   O4        1.0  0.09739205392129693  0.7625481059424144  0.11084410621207041  1.0000
  O   O5        1.0  0.9026052758710463  0.8891547447872059  0.23745348357189042  1.0000
  O   O6        1.0  0.9026026861707167  0.1108467650161629  0.7625481580514801  1.0000
  O   O7        1.0  0.9026050629848614  0.26254777333274154  0.3891554156056004  1.0000
  O   O8        1.0  0.9026053101304401  0.7374521336800085  0.6108467602774469  1.0000
  O   O9        1.0  0.27032257231893914  0.29780819011404697  0.2501126121156076  1.0000
  O   O10       1.0  0.27031907605060485  0.24988693428507955  0.7978078818313677  1.0000
  O   O11       1.0  0.2703240675617806  0.7021937528078438  0.7498868288760152  1.0000
  O   O12       1.0  0.2703191250705146  0.7501139401078235  0.20219155915650336  1.0000
  O   O13       1.0  0.7296793950449756  0.7978068181798292  0.24988766348531047  1.0000
  O   O14       1.0  0.7296768723478523  0.2021930611633707  0.7501118236873623  1.0000
  O   O15       1.0  0.7296791873888966  0.2501130111340757  0.2978068167178449  1.0000
  O   O16       1.0  0.729679491078386  0.7498868682143041  0.7021942732485726  1.0000
