data_image0
_chemical_formula_structural       Ag4H20C32Cl8O8
_chemical_formula_sum              "Ag4 H20 C32 Cl8 O8"
_cell_length_a       5.085526070029642
_cell_length_b       12.35977735461717
_cell_length_c       15.270177130867713
_cell_angle_alpha    102.24086587238659
_cell_angle_beta     89.9838975418483
_cell_angle_gamma    101.8838492150519

_space_group_name_H-M_alt    "P 1"
_space_group_IT_number       1

loop_
  _space_group_symop_operation_xyz
  'x, y, z'

loop_
  _atom_site_type_symbol
  _atom_site_label
  _atom_site_symmetry_multiplicity
  _atom_site_fract_x
  _atom_site_fract_y
  _atom_site_fract_z
  _atom_site_occupancy
  Ag  Ag1       1.0  0.7956484095981224  0.0014312352565112993  0.44199883378100674  1.0000
  Ag  Ag2       1.0  0.7939332369198127  0.9983486446703509  0.05791875172329948  1.0000
  Ag  Ag3       1.0  0.20434524300667792  0.998568821989032  0.5579990608379075  1.0000
  Ag  Ag4       1.0  0.20606548530272306  0.0016497574863691973  0.9420827976963435  1.0000
  H   H1        1.0  0.02243202792038092  0.45383654672204443  0.2420716828744034  1.0000
  H   H2        1.0  0.568212332958453  0.5467645667053206  0.2581823696566374  1.0000
  H   H3        1.0  0.9775695049260518  0.5461635428451074  0.7579294911849102  1.0000
  H   H4        1.0  0.4317891969576735  0.4532355164495811  0.7418181484500577  1.0000
  H   H5        1.0  0.12343445942028095  0.34887686082277  0.09181214508950569  1.0000
  H   H6        1.0  0.7754292387193829  0.651577695791154  0.40830766841109767  1.0000
  H   H7        1.0  0.8765504892286488  0.6511215216415707  0.9081874370369929  1.0000
  H   H8        1.0  0.22457313249280722  0.3484240682968362  0.5916918184633173  1.0000
  H   H9        1.0  0.4073882477186929  0.20365470489273457  0.0812057803416266  1.0000
  H   H10       1.0  0.20529220513838456  0.7963309172047204  0.41862958273901535  1.0000
  H   H11       1.0  0.5925962744215953  0.7963428242805579  0.9187930054957788  1.0000
  H   H12       1.0  0.794707776097944  0.20366999993938614  0.5813697638795998  1.0000
  H   H13       1.0  0.5363635843220962  0.33276466863667054  0.44972405107358066  1.0000
  H   H14       1.0  0.20357437218129354  0.6671035635860747  0.05012130170980102  1.0000
  H   H15       1.0  0.4636399090612502  0.6672354081710739  0.5502758109998281  1.0000
  H   H16       1.0  0.7964291182717531  0.3328965068094192  0.9498779044109822  1.0000
  H   H17       1.0  0.7042175081035184  0.23545695109324075  0.38376506280413736  1.0000
  H   H18       1.0  0.4686187048184678  0.7646137309705309  0.11593260504572095  1.0000
  H   H19       1.0  0.2957835953039735  0.7645422787706198  0.6162346590134645  1.0000
  H   H20       1.0  0.5313847856345788  0.23538633942496295  0.8840666010750695  1.0000
  C   C1        1.0  0.4028659264368669  0.28542732005163163  0.31102540549668584  1.0000
  C   C2        1.0  0.11773803076192738  0.7145750783346259  0.1888523846454433  1.0000
  C   C3        1.0  0.5971384199637698  0.7145744633382024  0.6889760491549097  1.0000
  C   C4        1.0  0.8822674290189525  0.2854249985382041  0.8111474773472906  1.0000
  C   C5        1.0  0.24690992402827308  0.36743238979194354  0.3135370124289806  1.0000
  C   C6        1.0  0.8792874954719353  0.6328064983546184  0.18648867700111535  1.0000
  C   C7        1.0  0.753091600027247  0.6325676805384575  0.6864621937724777  1.0000
  C   C8        1.0  0.12071641855944652  0.3671944189196665  0.81351066945615  1.0000
  C   C9        1.0  0.1438631854385193  0.3900022899756834  0.23616574997224393  1.0000
  C   C10       1.0  0.7538287441902584  0.6104251153540191  0.2639483083717805  1.0000
  C   C11       1.0  0.8561324452850343  0.6099977929839467  0.7638347683764691  1.0000
  C   C12       1.0  0.24617671559062165  0.3895749615188109  0.7360515536209531  1.0000
  C   C13       1.0  0.20036826604382438  0.3307552123917716  0.1525050460675601  1.0000
  C   C14       1.0  0.870354149698869  0.6695546057057484  0.34752843015090906  1.0000
  C   C15       1.0  0.7996199226679509  0.6692457171862928  0.8474956129403137  1.0000
  C   C16       1.0  0.12965369712756572  0.3304463116987151  0.6524709161450132  1.0000
  C   C17       1.0  0.35633599698716273  0.24915938632329224  0.1460173180433699  1.0000
  C   C18       1.0  0.10841541549437031  0.7508706945282381  0.3538565246601023  1.0000
  C   C19       1.0  0.643649801748744  0.7508406963108883  0.853983200708697  1.0000
  C   C20       1.0  0.8915887676908909  0.24912682888370344  0.6461416044179629  1.0000
  C   C21       1.0  0.4515004508894264  0.22756732148294384  0.22484506987869673  1.0000
  C   C22       1.0  0.2249583071894607  0.7723499680952345  0.27496028443580656  1.0000
  C   C23       1.0  0.5484932075759802  0.7724327485870931  0.7751541366454544  1.0000
  C   C24       1.0  0.7750467260827777  0.22764925548654705  0.7250387812678339  1.0000
  C   C25       1.0  0.5073146597095644  0.2583492389519648  0.3937530212526852  1.0000
  C   C26       1.0  0.24878397957971313  0.7415840250499743  0.10602966502524683  1.0000
  C   C27       1.0  0.49268883074348224  0.741650831443522  0.6062461848680981  1.0000
  C   C28       1.0  0.7512186637166637  0.2584143515879305  0.8939692604225795  1.0000
  C   C29       1.0  0.3203050403263675  0.1623914523100325  0.4263679694646498  1.0000
  C   C30       1.0  0.15728729563616647  0.8373802276286355  0.0734080944316418  1.0000
  C   C31       1.0  0.679696066011431  0.8376077839660782  0.5736324083055634  1.0000
  C   C32       1.0  0.8427157800294579  0.162619015124811  0.9265929392105219  1.0000
  Cl  Cl1       1.0  0.18018884261830695  0.44630175914272036  0.41670332315190706  1.0000
  Cl  Cl2       1.0  0.7330841973609168  0.5540541463763516  0.08339488612943308  1.0000
  Cl  Cl3       1.0  0.8198146536953461  0.5536983240772744  0.5832971948741132  1.0000
  Cl  Cl4       1.0  0.26691311888506425  0.4459493048617063  0.9166042257073386  1.0000
  Cl  Cl5       1.0  0.6386809845435693  0.1233029042954357  0.2177227707957883  1.0000
  Cl  Cl6       1.0  0.516986107383019  0.8763101781915024  0.2819280163098057  1.0000
  Cl  Cl7       1.0  0.36131660085629136  0.8766971530802792  0.7822751236617831  1.0000
  Cl  Cl8       1.0  0.4830197730458963  0.1236907391478752  0.7180713300667845  1.0000
  O   O1        1.0  0.07814104545525423  0.13382346669110493  0.3964443925455683  1.0000
  O   O2        1.0  0.9434571937668963  0.8657776582853529  0.10330757225481338  1.0000
  O   O3        1.0  0.9218624479280988  0.8661766101166389  0.6035554695278333  1.0000
  O   O4        1.0  0.056548277735196016  0.1342224442364852  0.896694913548387  1.0000
  O   O5        1.0  0.4272507987021825  0.12095956377741861  0.4839303187955863  1.0000
  O   O6        1.0  0.30572912773916283  0.8789419600476055  0.01588485619740964  1.0000
  O   O7        1.0  0.5727491942553654  0.8790413790156888  0.5160716516334886  1.0000
  O   O8        1.0  0.6942743627138838  0.1210581103478887  0.9841143499233738  1.0000
