data_image0
_chemical_formula_structural       Zn16H20C96S16N8Cl4O68
_chemical_formula_sum              "Zn16 H20 C96 S16 N8 Cl4 O68"
_cell_length_a       19.61440144745625
_cell_length_b       19.604360528189886
_cell_length_c       33.310910639593885
_cell_angle_alpha    79.15303831447027
_cell_angle_beta     79.15844965998706
_cell_angle_gamma    63.96241245097482

_space_group_name_H-M_alt    "P 1"
_space_group_IT_number       1

loop_
  _space_group_symop_operation_xyz
  'x, y, z'

loop_
  _atom_site_type_symbol
  _atom_site_label
  _atom_site_symmetry_multiplicity
  _atom_site_fract_x
  _atom_site_fract_y
  _atom_site_fract_z
  _atom_site_occupancy
  Zn  Zn1       1.0  0.05411091877171259  0.4008187782436536  0.47703069702285483  1.0000
  Zn  Zn2       1.0  0.9887311462598516  0.48303252554445225  0.5603328967953375  1.0000
  Zn  Zn3       1.0  0.0584262911376214  0.561793186916688  0.4810600962958704  1.0000
  Zn  Zn4       1.0  0.8996568836762935  0.5536047256195998  0.4804657805898601  1.0000
  Zn  Zn5       1.0  0.6931892495051528  0.3493623453446162  0.2713119600961847  1.0000
  Zn  Zn6       1.0  0.6891802150796168  0.1891908251394412  0.26500322289604133  1.0000
  Zn  Zn7       1.0  0.7720131245312913  0.26506858599947225  0.19019887027361906  1.0000
  Zn  Zn8       1.0  0.8470123443909471  0.1955281087774806  0.2742921650075304  1.0000
  Zn  Zn9       1.0  0.2697013448596337  0.7655575019325693  0.688930371664519  1.0000
  Zn  Zn10      1.0  0.34978879629084497  0.6960477104144616  0.7716416090472296  1.0000
  Zn  Zn11      1.0  0.19410951794898781  0.8481638614553686  0.7701912041751842  1.0000
  Zn  Zn12      1.0  0.19195921069113817  0.6863896344244295  0.7647871447548839  1.0000
  Zn  Zn13      1.0  0.5617293683258637  0.059291678940368756  0.9817903469087028  1.0000
  Zn  Zn14      1.0  0.4011090326394751  0.054733965163009664  0.9783915186947786  1.0000
  Zn  Zn15      1.0  0.5555958375751048  0.9001729773713193  0.9774003675509637  1.0000
  Zn  Zn16      1.0  0.48567512864556767  0.982872316715138  0.0599713115711751  1.0000
  H   H1        1.0  0.9433147593017639  0.24726200831104694  0.3574264503263933  1.0000
  H   H2        1.0  0.7506135021760586  0.46529038154528723  0.34351559481950744  1.0000
  H   H3        1.0  0.9902154423292657  0.2980800305597524  0.4049672705404746  1.0000
  H   H4        1.0  0.1053294816108092  0.5893779721180932  0.6969358957942832  1.0000
  H   H5        1.0  0.20282528799977936  0.7045499757996153  0.5964437146942461  1.0000
  H   H6        1.0  0.05551799523519211  0.5482013231877687  0.6462772303480123  1.0000
  H   H7        1.0  0.46239449173388186  0.23658767736824157  0.3419821473395288  1.0000
  H   H8        1.0  0.48488203307254446  0.7014482561502717  0.6018722921439451  1.0000
  H   H9        1.0  0.20447042812525504  0.9790368467227635  0.5999731890923102  1.0000
  H   H10       1.0  0.9514114260860678  0.9638890162549172  0.3439212591076456  1.0000
  H   H11       1.0  0.5511108918450558  0.053729478067190015  0.15147106221414938  1.0000
  H   H12       1.0  0.64963575784801  0.15829240648231732  0.046005013435852525  1.0000
  H   H13       1.0  0.5993451267165568  0.10601826259773614  0.1974241635464153  1.0000
  H   H14       1.0  0.5456941655849405  0.7686330740204496  0.14849731340661523  1.0000
  H   H15       1.0  0.16231225640568434  0.14145030629326522  0.04257072975315172  1.0000
  H   H16       1.0  0.4997504116693746  0.7931054800063817  0.8985771591404089  1.0000
  H   H17       1.0  0.29350945379186305  0.0007989124184887338  0.9023468628483828  1.0000
  H   H18       1.0  0.44728800824216114  0.7495686375879345  0.8503362756265673  1.0000
  H   H19       1.0  0.29807785492025823  0.2822873087823722  0.9030495078835231  1.0000
  H   H20       1.0  0.7874571906551965  0.009118683229580376  0.9062835268893895  1.0000
  C   C1        1.0  0.06419219397881899  0.31721569324589893  0.5595277679068503  1.0000
  C   C2        1.0  0.07244602257331678  0.5709189985862364  0.565676286249044  1.0000
  C   C3        1.0  0.1798874614472723  0.4400249088943087  0.43697711883341855  1.0000
  C   C4        1.0  0.9351679757534157  0.6814605715417197  0.4386292792877243  1.0000
  C   C5        1.0  0.9273635548241541  0.43197579343897985  0.43223374865227293  1.0000
  C   C6        1.0  0.8227175743239031  0.5594567128460423  0.5636666073557635  1.0000
  C   C7        1.0  0.5659952371847936  0.3079019616009119  0.3115573807722357  1.0000
  C   C8        1.0  0.6776898967776503  0.18905795967211245  0.17865926875928312  1.0000
  C   C9        1.0  0.6954019775801115  0.43090016136523696  0.18875901004172152  1.0000
  C   C10       1.0  0.9357406343347777  0.18294399949706258  0.19222241348542476  1.0000
  C   C11       1.0  0.8146467575242085  0.3233158222138853  0.32004400599237226  1.0000
  C   C12       1.0  0.8121740009275981  0.06397058494261645  0.3094481608678735  1.0000
  C   C13       1.0  0.4366266808777369  0.6918481952374615  0.6887870173464565  1.0000
  C   C14       1.0  0.3173571698225786  0.8198598892916136  0.8186235719307791  1.0000
  C   C15       1.0  0.18574489000368288  0.9329157478386493  0.6869271517765089  1.0000
  C   C16       1.0  0.06870249283761612  0.8086746148943076  0.8092858646237745  1.0000
  C   C17       1.0  0.18752559498051374  0.6751893985867665  0.6789383499886412  1.0000
  C   C18       1.0  0.3101057153075076  0.5686155583248433  0.8112886240703221  1.0000
  C   C19       1.0  0.43715558598712084  0.18408660032434898  0.9383316499887188  1.0000
  C   C20       1.0  0.4296279790237634  0.9282615150582886  0.9315402229117922  1.0000
  C   C21       1.0  0.6848816068389496  0.9375928174831574  0.9370074819866406  1.0000
  C   C22       1.0  0.5627351423167115  0.8155014867119802  0.06146124230973269  1.0000
  C   C23       1.0  0.570605672520827  0.07131063416351686  0.06770927017256415  1.0000
  C   C24       1.0  0.3170954560157212  0.06184072133381589  0.06193232598857182  1.0000
  C   C25       1.0  0.8964937615272462  0.40874553076700704  0.4019259761011611  1.0000
  C   C26       1.0  0.8435348866586736  0.35309429446978396  0.3481494172082834  1.0000
  C   C27       1.0  0.8287251807509718  0.45652301631206177  0.3839599050845949  1.0000
  C   C28       1.0  0.9116159712712955  0.30555839104395943  0.3651460926317043  1.0000
  C   C29       1.0  0.8028340331459134  0.42839708263832654  0.35730713556591825  1.0000
  C   C30       1.0  0.937366519479845  0.33377768993319273  0.3914464387917038  1.0000
  C   C31       1.0  0.10253130158181278  0.6009148375226586  0.5930816623078955  1.0000
  C   C32       1.0  0.1577121004232183  0.6489228602753484  0.6495486224347647  1.0000
  C   C33       1.0  0.1442303162536334  0.6458879445725926  0.5790369863812616  1.0000
  C   C34       1.0  0.1159762376602202  0.6048401353404174  0.6639651775850341  1.0000
  C   C35       1.0  0.17109899038381826  0.6696027437269548  0.6073213813924242  1.0000
  C   C36       1.0  0.08866037391121041  0.5819343126014473  0.6358396945808595  1.0000
  C   C37       1.0  0.30580333899868617  0.45295669250297266  0.40208514276587004  1.0000
  C   C38       1.0  0.4459840456281158  0.29369625981029657  0.3496548249087185  1.0000
  C   C39       1.0  0.2582395546605198  0.4150439823047946  0.4149344710729253  1.0000
  C   C40       1.0  0.49123254628644736  0.33336377491357877  0.336972238806574  1.0000
  C   C41       1.0  0.37789068549297167  0.3380501506764019  0.3731479332746234  1.0000
  C   C42       1.0  0.3733514844254914  0.41008080800829555  0.37761700581869934  1.0000
  C   C43       1.0  0.73073750316221  0.5798460175503451  0.6329129556163766  1.0000
  C   C44       1.0  0.5289599686621642  0.6736405113767457  0.6224405181743223  1.0000
  C   C45       1.0  0.7488961854974575  0.5872504986316541  0.590266335014512  1.0000
  C   C46       1.0  0.5127550363447567  0.6655367887263424  0.6648496548098707  1.0000
  C   C47       1.0  0.608763796048521  0.6414114997940668  0.6109408810047017  1.0000
  C   C48       1.0  0.650971037605359  0.6094396870597973  0.6449272203090504  1.0000
  C   C49       1.0  0.07049615607134288  0.2259890084800632  0.6283413029804026  1.0000
  C   C50       1.0  0.17349143508283046  0.023683824844916004  0.620039090489833  1.0000
  C   C51       1.0  0.0825371045005454  0.24308718777192684  0.5858050333075014  1.0000
  C   C52       1.0  0.16073609024187624  0.008566048021656078  0.6623528449246906  1.0000
  C   C53       1.0  0.1408687802259863  0.10331723695425407  0.6078724856245756  1.0000
  C   C54       1.0  0.1046085599053441  0.1465459789054577  0.6412575863029417  1.0000
  C   C55       1.0  0.8371599867982483  0.8024921996385568  0.39851601621882815  1.0000
  C   C56       1.0  0.9052480357367328  0.9454953306651528  0.34940625393731767  1.0000
  C   C57       1.0  0.9062508256527478  0.758100923398288  0.4146155741087583  1.0000
  C   C58       1.0  0.8359169564952182  0.9884829156192083  0.33413337209231747  1.0000
  C   C59       1.0  0.9057776541249466  0.8769092665328344  0.3723108291303348  1.0000
  C   C60       1.0  0.8369366883226875  0.8696155762037634  0.3737419469526416  1.0000
  C   C61       1.0  0.6508316219322411  0.16185275111150307  0.14816019662003305  1.0000
  C   C62       1.0  0.5977676520689669  0.10278534202384296  0.09588247147453192  1.0000
  C   C63       1.0  0.6647235373287189  0.1768301669667663  0.10485312750651597  1.0000
  C   C64       1.0  0.5829681978675296  0.08805015990927247  0.13872160365294664  1.0000
  C   C65       1.0  0.6383398448442891  0.14699680973200902  0.07927494727309178  1.0000
  C   C66       1.0  0.6095753293391794  0.1172266095096076  0.1640720914688104  1.0000
  C   C67       1.0  0.6769079498472267  0.5219732001546261  0.11910308444018379  1.0000
  C   C68       1.0  0.57653028396021  0.724203263363826  0.12828813308929912  1.0000
  C   C69       1.0  0.6669694135498431  0.504346931666639  0.16174065172753427  1.0000
  C   C70       1.0  0.5881581385427096  0.7397117904854792  0.08594257999731524  1.0000
  C   C71       1.0  0.6099578655022598  0.644484694673089  0.1402473120285705  1.0000
  C   C72       1.0  0.6459377692007563  0.6017070173941264  0.10667438376231086  1.0000
  C   C73       1.0  0.08531701150767651  0.11398044756550964  0.180471161767251  1.0000
  C   C74       1.0  0.17114603205353518  0.12364339590141066  0.07482947141225084  1.0000
  C   C75       1.0  0.0122918721296799  0.1530854820004919  0.16821212776374495  1.0000
  C   C76       1.0  0.24284752811953333  0.08525468635333767  0.08791507229209834  1.0000
  C   C77       1.0  0.11386309929179818  0.13511760936740563  0.10889016297852554  1.0000
  C   C78       1.0  0.1435408066687387  0.1049451795940399  0.14694285116668485  1.0000
  C   C79       1.0  0.3420638333857156  0.8502682887503422  0.8485748403441352  1.0000
  C   C80       1.0  0.3998227055258283  0.9000946724952497  0.9030464041004936  1.0000
  C   C81       1.0  0.2982005832807245  0.9215623625539707  0.8638840189257526  1.0000
  C   C82       1.0  0.4435587524688458  0.8287272907084925  0.8886775932635019  1.0000
  C   C83       1.0  0.3274285780419817  0.9457971205776089  0.8907634964679476  1.0000
  C   C84       1.0  0.41442945773336953  0.804787841862378  0.861912105034158  1.0000
  C   C85       1.0  0.40329310527721424  0.4535076942640328  0.8565836186077151  1.0000
  C   C86       1.0  0.3428622435609441  0.3023513302879977  0.8987847857869228  1.0000
  C   C87       1.0  0.33499090783877966  0.49637423977811296  0.8394579082544598  1.0000
  C   C88       1.0  0.4120268267793818  0.2603192795653938  0.9144155251982017  1.0000
  C   C89       1.0  0.34048353030188855  0.3724594248821587  0.8771107908761169  1.0000
  C   C90       1.0  0.4076803267071086  0.3819879228051874  0.8771797098271181  1.0000
  C   C91       1.0  0.9499739704216169  0.7894246551954038  0.8508610955622162  1.0000
  C   C92       1.0  0.8048339451508895  0.9514391574819426  0.8991940433272351  1.0000
  C   C93       1.0  0.9957136615570477  0.8289912359688216  0.8367750665958485  1.0000
  C   C94       1.0  0.7602962035338835  0.9110718024661888  0.91228042155592  1.0000
  C   C95       1.0  0.8734572171396805  0.9071418811199474  0.8761020619768235  1.0000
  C   C96       1.0  0.8793952329057789  0.8341537603466803  0.8724536309518033  1.0000
  S   S1        1.0  0.2980476007162025  0.32568513640474334  0.3981103283447141  1.0000
  S   S2        1.0  0.4518328986137021  0.42412816876240805  0.35290083804637373  1.0000
  S   S3        1.0  0.6679148172493328  0.6326780364291833  0.5650735689097603  1.0000
  S   S4        1.0  0.5932866297232593  0.6182178511406491  0.6909738110020315  1.0000
  S   S5        1.0  0.13364811007409827  0.1613367613783367  0.5616069940074413  1.0000
  S   S6        1.0  0.1105721631154637  0.08996378169842961  0.6876152128136185  1.0000
  S   S7        1.0  0.9698921991951862  0.8000820069366766  0.4002854139281028  1.0000
  S   S8        1.0  0.7718046417996902  0.9459912006889295  0.3466021069431663  1.0000
  S   S9        1.0  0.6170222934541272  0.5858537464162694  0.18628201797803004  1.0000
  S   S10       1.0  0.6398663414666926  0.6587032011479507  0.06047179268298212  1.0000
  S   S11       1.0  0.015378486935901499  0.17626506115264817  0.11534146668698503  1.0000
  S   S12       1.0  0.24153052066508707  0.0637352679944598  0.14121242783564725  1.0000
  S   S13       1.0  0.2748971606353905  0.45014599287566176  0.850316678466257  1.0000
  S   S14       1.0  0.4744856709476295  0.3047492808079752  0.9029146970810874  1.0000
  S   S15       1.0  0.9531728455978126  0.920117690648837  0.8514862373614069  1.0000
  S   S16       1.0  0.8004730368491196  0.820105274414949  0.8964963166014074  1.0000
  N   N1        1.0  0.29475796595591675  0.5259803310460567  0.4130545938441445  1.0000
  N   N2        1.0  0.783390967102392  0.5513166128055856  0.6639879373501716  1.0000
  N   N3        1.0  0.0243361829984821  0.2797177853790345  0.6580708812249797  1.0000
  N   N4        1.0  0.7683177904764024  0.7888475954294306  0.40689900684076025  1.0000
  N   N5        1.0  0.709964352269843  0.46861901649074866  0.0883387266984172  1.0000
  N   N6        1.0  0.10471741146098879  0.079699484261603  0.2218508614066651  1.0000
  N   N7        1.0  0.46417370328209273  0.47673403274510645  0.857301334948396  1.0000
  N   N8        1.0  0.970117284391158  0.7094975025243284  0.8477358440831684  1.0000
  Cl  Cl1       1.0  0.7758894672531937  0.5513166125983417  0.39175813974097207  1.0000
  Cl  Cl2       1.0  0.16352497719260836  0.6762160620139211  0.5278017737799487  1.0000
  Cl  Cl3       1.0  0.7139444199360483  0.23037621681720571  0.08022272167908542  1.0000
  Cl  Cl4       1.0  0.20689213659506583  0.9825118953144877  0.8523875017158676  1.0000
  O   O1        1.0  0.0008966151755985005  0.4988290400144064  0.4996780032236927  1.0000
  O   O2        1.0  0.0635200125177064  0.3153307726307375  0.5213655060447027  1.0000
  O   O3        1.0  0.021621263479417497  0.5469854314403192  0.582957903227758  1.0000
  O   O4        1.0  0.13994252501660037  0.5112473209035214  0.4378001187236223  1.0000
  O   O5        1.0  0.05362446106900621  0.3744715849823804  0.5764577871114087  1.0000
  O   O6        1.0  0.15904864764951296  0.3860356737165701  0.45205643608364454  1.0000
  O   O7        1.0  0.0999380577372904  0.5699699295913944  0.5278657039703136  1.0000
  O   O8        1.0  0.9938801935828179  0.6650006512748803  0.4564568027199273  1.0000
  O   O9        1.0  0.8800943744858499  0.4841709659524724  0.4538435059935325  1.0000
  O   O10       1.0  0.9020384397898056  0.6386127573836899  0.4384906239651302  1.0000
  O   O11       1.0  0.9991734500477917  0.3956283891880474  0.4347102834390811  1.0000
  O   O12       1.0  0.8803405800426346  0.5060178578431972  0.5789409397633707  1.0000
  O   O13       1.0  0.8199870310958913  0.5915970136687035  0.5263384029355934  1.0000
  O   O14       1.0  0.7498396081761598  0.24950177290669728  0.25057615045618326  1.0000
  O   O15       1.0  0.5981222888045963  0.35402722968161965  0.30519551096642783  1.0000
  O   O16       1.0  0.668514346657112  0.16189742362610812  0.21633285406902306  1.0000
  O   O17       1.0  0.751293061128507  0.37394078289361216  0.17417248604418495  1.0000
  O   O18       1.0  0.5915753187089051  0.24304969211371477  0.29835281116173473  1.0000
  O   O19       1.0  0.6614111292544748  0.43295911857602215  0.22561620774485658  1.0000
  O   O20       1.0  0.7071393570032785  0.23661093280594514  0.16538889420109373  1.0000
  O   O21       1.0  0.8798399356216038  0.20261877656380278  0.17144884856974582  1.0000
  O   O22       1.0  0.8538317973895175  0.25346276582728683  0.31401661538934894  1.0000
  O   O23       1.0  0.9315973148652859  0.18908402343835454  0.22992758587110984  1.0000
  O   O24       1.0  0.7534850073475423  0.36969905588225765  0.3045187430831718  1.0000
  O   O25       1.0  0.7450952183252681  0.09262012770501109  0.2984792377639424  1.0000
  O   O26       1.0  0.8602385151017061  0.093766330874807  0.301612434995441  1.0000
  O   O27       1.0  0.25103204232845394  0.7486003844082987  0.7491183875317449  1.0000
  O   O28       1.0  0.3791108697225383  0.7220804865900591  0.6684534006631895  1.0000
  O   O29       1.0  0.35573499893267513  0.7488347598371234  0.8143934556992465  1.0000
  O   O30       1.0  0.16337889324628208  0.9326881159060103  0.725592023603909  1.0000
  O   O31       1.0  0.4354648679782258  0.6821002385212723  0.7279404145064776  1.0000
  O   O32       1.0  0.22697779954194172  0.8750468796526787  0.6676271884268774  1.0000
  O   O33       1.0  0.26158642052444486  0.8664204188482146  0.7991722230885544  1.0000
  O   O34       1.0  0.1039111835442412  0.850547426064388  0.8089952948405711  1.0000
  O   O35       1.0  0.17739056280495893  0.6514895019426773  0.7170609586997829  1.0000
  O   O36       1.0  0.08839925740625182  0.7546738877711405  0.7877322147870702  1.0000
  O   O37       1.0  0.22051545358917218  0.719231030949821  0.6634595106952761  1.0000
  O   O38       1.0  0.36078057170553274  0.5912406623594108  0.793256098715574  1.0000
  O   O39       1.0  0.23887949240302225  0.6000984272616562  0.806698347891974  1.0000
  O   O40       1.0  0.500836117019567  0.9992081654819387  0.999525010603222  1.0000
  O   O41       1.0  0.5046356612670666  0.1557481836109672  0.9488171554514796  1.0000
  O   O42       1.0  0.38658686712827967  0.9942580955288134  0.9427507737758419  1.0000
  O   O43       1.0  0.6526683347486184  0.8914619849806155  0.9444198149632259  1.0000
  O   O44       1.0  0.3898200456959842  0.15342512108891523  0.9464220660279498  1.0000
  O   O45       1.0  0.6587645681903068  0.003699983699185318  0.9488495038582774  1.0000
  O   O46       1.0  0.495660797991178  0.8840507176885166  0.9422532645119478  1.0000
  O   O47       1.0  0.5797024461530854  0.8156080816126445  0.022465982351221214  1.0000
  O   O48       1.0  0.5341873659573935  0.030994741170701324  0.08471004637469551  1.0000
  O   O49       1.0  0.5263692139587877  0.873564615432386  0.08123106448098838  1.0000
  O   O50       1.0  0.5861649218474625  0.08716899776667456  0.029126739887047438  1.0000
  O   O51       1.0  0.3155371849464501  0.07736666500768048  0.023066724651307897  1.0000
  O   O52       1.0  0.37628347159351694  0.02762396052042963  0.08105042840004022  1.0000
  O   O53       1.0  0.3282736410924302  0.5604926073243847  0.38803120282575787  1.0000
  O   O54       1.0  0.25701407651794744  0.5473660747350165  0.4459957968526069  1.0000
  O   O55       1.0  0.7593387057924161  0.5260723756637231  0.6981340150636017  1.0000
  O   O56       1.0  0.8449283471870715  0.556846798960002  0.6555351914851787  1.0000
  O   O57       1.0  0.042878153644025495  0.2592507789880116  0.6936545634760167  1.0000
  O   O58       1.0  0.9696625006036969  0.33874127808731186  0.6470123893062835  1.0000
  O   O59       1.0  0.7242991541456475  0.8185090088085616  0.3797446161272264  1.0000
  O   O60       1.0  0.7561965584742865  0.752744259603858  0.4399336682307793  1.0000
  O   O61       1.0  0.7363204340888104  0.4931214880535461  0.054637510504420644  1.0000
  O   O62       1.0  0.7073667895717006  0.40562896374105145  0.09645170394595946  1.0000
  O   O63       1.0  0.16777389310772858  0.07265602846874228  0.22903650525835678  1.0000
  O   O64       1.0  0.06068104475405531  0.057347198891534376  0.2460643065849625  1.0000
  O   O65       1.0  0.5288197593128743  0.4233367930491312  0.860006543011103  1.0000
  O   O66       1.0  0.44824227063189426  0.5450946994703614  0.8571642748940466  1.0000
  O   O67       1.0  0.9151918388574314  0.6936258752150765  0.847697239591945  1.0000
  O   O68       1.0  0.03777396224501929  0.6631513157410253  0.8472261621655196  1.0000
