data_image0
_chemical_formula_structural       Zn16H36C96S16N8O52F4
_chemical_formula_sum              "Zn16 H36 C96 S16 N8 O52 F4"
_cell_length_a       19.68133495995465
_cell_length_b       19.674038004099582
_cell_length_c       33.372856723879
_cell_angle_alpha    79.18959107751263
_cell_angle_beta     79.16255339814707
_cell_angle_gamma    63.87229862943767

_space_group_name_H-M_alt    "P 1"
_space_group_IT_number       1

loop_
  _space_group_symop_operation_xyz
  'x, y, z'

loop_
  _atom_site_type_symbol
  _atom_site_label
  _atom_site_symmetry_multiplicity
  _atom_site_fract_x
  _atom_site_fract_y
  _atom_site_fract_z
  _atom_site_occupancy
  Zn  Zn1       1.0  0.055566764863669994  0.4006295652451045  0.4781793804146871  1.0000
  Zn  Zn2       1.0  0.9842205152200375  0.48389427063525403  0.5602433787178426  1.0000
  Zn  Zn3       1.0  0.058881909101955905  0.5607178370708611  0.4825152753401267  1.0000
  Zn  Zn4       1.0  0.9009358808436473  0.5558394385080022  0.4794888685629174  1.0000
  Zn  Zn5       1.0  0.6942402034308939  0.3495122836098262  0.2713479408668462  1.0000
  Zn  Zn6       1.0  0.6886537682786766  0.19000878968170562  0.2664684488703201  1.0000
  Zn  Zn7       1.0  0.7685665313812391  0.26634524871887083  0.1905237875508732  1.0000
  Zn  Zn8       1.0  0.848302104142128  0.19411299722938233  0.2721300955231953  1.0000
  Zn  Zn9       1.0  0.26725197499898456  0.7672337108077091  0.6896627475403034  1.0000
  Zn  Zn10      1.0  0.34815701360638934  0.6959343682027495  0.7722397244107455  1.0000
  Zn  Zn11      1.0  0.19260603040827104  0.8488366997761007  0.7716732448020663  1.0000
  Zn  Zn12      1.0  0.19117850554428628  0.6889746705153784  0.767109267084109  1.0000
  Zn  Zn13      1.0  0.5606959226497492  0.05961393620187045  0.9830483051009151  1.0000
  Zn  Zn14      1.0  0.4011013087481102  0.05586790565543258  0.9785358292931645  1.0000
  Zn  Zn15      1.0  0.5552424531746352  0.9010803851791923  0.9782770868020234  1.0000
  Zn  Zn16      1.0  0.48382647129255923  0.9826121826142683  0.06042635003921504  1.0000
  H   H1        1.0  0.9548741913878371  0.2483136222908942  0.351740166756798  1.0000
  H   H2        1.0  0.7471387999859613  0.4544243196554876  0.3502328961738357  1.0000
  H   H3        1.0  0.9998842415220465  0.29918141498091455  0.3999292368522801  1.0000
  H   H4        1.0  0.09718062287100787  0.5972622302794264  0.7002107075254499  1.0000
  H   H5        1.0  0.20163714389735077  0.7014028033554639  0.5977594719038563  1.0000
  H   H6        1.0  0.05066063005573079  0.5502969571637594  0.6507630750234837  1.0000
  H   H7        1.0  0.4629048198990659  0.24090414571820434  0.3407771756759388  1.0000
  H   H8        1.0  0.48004894231255696  0.7009819063780399  0.602064474671664  1.0000
  H   H9        1.0  0.20395675151404188  0.979997963658214  0.6015771192801508  1.0000
  H   H10       1.0  0.9480411514543332  0.9693667916427203  0.34745993973906747  1.0000
  H   H11       1.0  0.5501206362653618  0.05009800679031439  0.15303340390684636  1.0000
  H   H12       1.0  0.6519738344473038  0.15285642011559045  0.04853202020755282  1.0000
  H   H13       1.0  0.5998421782185304  0.09924787638122007  0.19974141018446542  1.0000
  H   H14       1.0  0.5483865975236739  0.7699689769109598  0.1481542895496304  1.0000
  H   H15       1.0  0.16299413741845833  0.14250667298097144  0.0410517085363651  1.0000
  H   H16       1.0  0.5010470490525021  0.7957734382259218  0.8986233093115813  1.0000
  H   H17       1.0  0.2952737666601166  0.003859692127974841  0.8996709470662905  1.0000
  H   H18       1.0  0.4504223189414276  0.7507104000732172  0.8503153530041344  1.0000
  H   H19       1.0  0.30203965293666357  0.27975983273423577  0.9017142476677192  1.0000
  H   H20       1.0  0.7864525196046586  0.009486224252377435  0.9081410980311303  1.0000
  H   H21       1.0  0.3132988460862051  0.5573015299183197  0.39604930973165153  1.0000
  H   H22       1.0  0.23323014766841513  0.5529118257009386  0.42730693119969476  1.0000
  H   H23       1.0  0.7678990890004724  0.521373756054928  0.685574341627756  1.0000
  H   H24       1.0  0.8363171368407122  0.5180808607455848  0.6436232456068537  1.0000
  H   H25       1.0  0.045853708145806096  0.2684434598820502  0.6857089265781156  1.0000
  H   H26       1.0  0.020545686841245497  0.33626844051202914  0.6430780523908978  1.0000
  H   H27       1.0  0.7424224041657935  0.8024139830302488  0.3852693064384241  1.0000
  H   H28       1.0  0.7941714508213591  0.7253413267002675  0.419048443916921  1.0000
  H   H29       1.0  0.72645611717639  0.48174384281278315  0.06446137613188797  1.0000
  H   H30       1.0  0.7326710440196605  0.4128936248495806  0.10673565772103899  1.0000
  H   H31       1.0  0.14531095883494058  0.08487212164184404  0.22746643691696988  1.0000
  H   H32       1.0  0.0471370520353815  0.11550004165027163  0.24013736742262634  1.0000
  H   H33       1.0  0.5168225609064548  0.4364027534539334  0.8544531868277756  1.0000
  H   H34       1.0  0.456301260530978  0.5234489280512734  0.8304648601484954  1.0000
  H   H35       1.0  0.9262412023922125  0.7007632015229035  0.8439900821723895  1.0000
  H   H36       1.0  0.015477855390351198  0.6968838380682529  0.8223057230566864  1.0000
  C   C1        1.0  0.058739964457316794  0.3162613584796149  0.5626633097192624  1.0000
  C   C2        1.0  0.0696229254732756  0.5697875458897885  0.5690790152324964  1.0000
  C   C3        1.0  0.1854231650820992  0.4391732798689817  0.4393057005318253  1.0000
  C   C4        1.0  0.9356346094591212  0.6856493071270012  0.4389062889515997  1.0000
  C   C5        1.0  0.9300038968122448  0.43189758825290203  0.43087789015016387  1.0000
  C   C6        1.0  0.816313079343338  0.5630816530327113  0.5633727090555779  1.0000
  C   C7        1.0  0.5648212940850356  0.31250175032823796  0.3107613948040466  1.0000
  C   C8        1.0  0.682013797398511  0.1804299447277486  0.18038035282921067  1.0000
  C   C9        1.0  0.6881745566565342  0.4338850288194468  0.18746166604174164  1.0000
  C   C10       1.0  0.9365543265060194  0.18633749815622028  0.1896758207386213  1.0000
  C   C11       1.0  0.820162010665534  0.3187882245455571  0.31918348539043967  1.0000
  C   C12       1.0  0.8108444389435902  0.06533873315653703  0.3111429532772476  1.0000
  C   C13       1.0  0.4342519496434889  0.6870773002224981  0.6888778162699436  1.0000
  C   C14       1.0  0.31820781798914055  0.8207618793844417  0.8190905232050839  1.0000
  C   C15       1.0  0.1892389760408335  0.9342066128098879  0.6884014098598213  1.0000
  C   C16       1.0  0.06544699617092678  0.8081846771317772  0.8122188502882038  1.0000
  C   C17       1.0  0.18064574780783  0.6808024210266483  0.6810010422669989  1.0000
  C   C18       1.0  0.31335475183096406  0.5655987726999144  0.8124724755697412  1.0000
  C   C19       1.0  0.4392506444782782  0.18364130560085815  0.9381213406807302  1.0000
  C   C20       1.0  0.43048420508701907  0.9306814829778396  0.9309187948764828  1.0000
  C   C21       1.0  0.6837372336197945  0.9387195001314625  0.9379483065381818  1.0000
  C   C22       1.0  0.5627706275392441  0.8154110858923791  0.061365381391276154  1.0000
  C   C23       1.0  0.5693157921277175  0.06909215598656708  0.06946430652671148  1.0000
  C   C24       1.0  0.3160853079304359  0.06241915617691524  0.0615800115689638  1.0000
  C   C25       1.0  0.9000653467219734  0.4045028070615119  0.4021165015880753  1.0000
  C   C26       1.0  0.8484135597491047  0.3480605884604629  0.3478696601941848  1.0000
  C   C27       1.0  0.8287362497661446  0.4469804370119238  0.3874480020096982  1.0000
  C   C28       1.0  0.9198394422851377  0.30420572997761786  0.3619271283055241  1.0000
  C   C29       1.0  0.8027563118457761  0.41983618004634593  0.3607986188633773  1.0000
  C   C30       1.0  0.9447142908293671  0.3324074207199673  0.3885953324810599  1.0000
  C   C31       1.0  0.09926884614652916  0.5990374261401356  0.5970059773683046  1.0000
  C   C32       1.0  0.15209009355272227  0.6522873006070925  0.6521324860866712  1.0000
  C   C33       1.0  0.14224782615595896  0.6419466101818188  0.5829555557448883  1.0000
  C   C34       1.0  0.1094610622708316  0.6095529568688393  0.6671660835027851  1.0000
  C   C35       1.0  0.16849682839445276  0.6684289069043245  0.6097939845898351  1.0000
  C   C36       1.0  0.08380680923877286  0.5835983952688155  0.6397981469844537  1.0000
  C   C37       1.0  0.3039476756354347  0.45572970469644514  0.4021870759259156  1.0000
  C   C38       1.0  0.445571293495682  0.2978635139340967  0.348690032706834  1.0000
  C   C39       1.0  0.2593253252164017  0.4141734619227791  0.41510208836913165  1.0000
  C   C40       1.0  0.49010006526742694  0.3379861441046829  0.3357891450661511  1.0000
  C   C41       1.0  0.37765871997434175  0.3403698847219091  0.3726982291363611  1.0000
  C   C42       1.0  0.3718465135696718  0.4122525413032249  0.37767814351125384  1.0000
  C   C43       1.0  0.7276465873001143  0.5768140231167467  0.6307566417816729  1.0000
  C   C44       1.0  0.5248403825706303  0.6720092429361421  0.6220272729278944  1.0000
  C   C45       1.0  0.7424900103441059  0.5879950832428025  0.5877362122749971  1.0000
  C   C46       1.0  0.5093999312440542  0.6616570497762955  0.6643634570737048  1.0000
  C   C47       1.0  0.6040864080183608  0.6408703100784979  0.6095302145526986  1.0000
  C   C48       1.0  0.6475407403547918  0.6074975366387887  0.6427493685932505  1.0000
  C   C49       1.0  0.07286385555895687  0.22752689863526848  0.6300349081801713  1.0000
  C   C50       1.0  0.17440055479558228  0.02480719825022962  0.621534405047768  1.0000
  C   C51       1.0  0.0829747211599354  0.24234060684793954  0.5869605776526469  1.0000
  C   C52       1.0  0.1642674476715911  0.009398499588186835  0.6638851287323603  1.0000
  C   C53       1.0  0.14150623093699716  0.10401953154883617  0.6089782830179116  1.0000
  C   C54       1.0  0.10691761621779247  0.147485792060273  0.6421711788109334  1.0000
  C   C55       1.0  0.84112799516555  0.8006155991126462  0.3983173135368716  1.0000
  C   C56       1.0  0.903679288490032  0.9489765039427027  0.35205045103345606  1.0000
  C   C57       1.0  0.9109839622365142  0.7594277278858147  0.41466955581040565  1.0000
  C   C58       1.0  0.8351494934790791  0.9903840488786462  0.33585806157249465  1.0000
  C   C59       1.0  0.9065384335103129  0.8796811548883102  0.37453621707277324  1.0000
  C   C60       1.0  0.8397805629245807  0.8697365335899367  0.3751395886086825  1.0000
  C   C61       1.0  0.6535391717541896  0.15297770905964825  0.15096416749688046  1.0000
  C   C62       1.0  0.5980493250360225  0.09816003553223855  0.09795254222957789  1.0000
  C   C63       1.0  0.6671274056710316  0.16736946333053748  0.10798351185020039  1.0000
  C   C64       1.0  0.5831590073952809  0.08308356997881114  0.14068386805103472  1.0000
  C   C65       1.0  0.6401846049077307  0.14064840626259215  0.08162047214652549  1.0000
  C   C66       1.0  0.6106968254084392  0.11029210028284106  0.16648996965375315  1.0000
  C   C67       1.0  0.6737398477688145  0.5219460266477686  0.11985124408064957  1.0000
  C   C68       1.0  0.5774336113210338  0.7250613396079973  0.12824009319596294  1.0000
  C   C69       1.0  0.6626307906428649  0.5074541130916475  0.16295615302281866  1.0000
  C   C70       1.0  0.5879200597850057  0.7403066891435374  0.08588820999234063  1.0000
  C   C71       1.0  0.6086887874235103  0.6458437907254576  0.14083076802932482  1.0000
  C   C72       1.0  0.6423820367322148  0.6021426116503154  0.10770112087941894  1.0000
  C   C73       1.0  0.08189486430762119  0.12172170898951155  0.17906499085058408  1.0000
  C   C74       1.0  0.1705024287721884  0.1256769375325462  0.07343102449782178  1.0000
  C   C75       1.0  0.0098914456624541  0.16105542265550812  0.16491178746346688  1.0000
  C   C76       1.0  0.24173652386114944  0.08693182713221155  0.08690484681383029  1.0000
  C   C77       1.0  0.11209463698364887  0.1388753863305681  0.1067624546348114  1.0000
  C   C78       1.0  0.14012338638094948  0.10965439080176509  0.14508122412279073  1.0000
  C   C79       1.0  0.3453839538059356  0.8507877895856808  0.8478476917852971  1.0000
  C   C80       1.0  0.40145648783911975  0.9024609483615225  0.9021495444629719  1.0000
  C   C81       1.0  0.3027989610377729  0.9222396079298818  0.8624129652395992  1.0000
  C   C82       1.0  0.44537638638244903  0.830887365452853  0.8882269378612618  1.0000
  C   C83       1.0  0.32985212899460237  0.9482193957232782  0.8891035253188659  1.0000
  C   C84       1.0  0.41728128081899024  0.8060235947786583  0.861524622340738  1.0000
  C   C85       1.0  0.4073430372481254  0.45059018609400453  0.8533874507529474  1.0000
  C   C86       1.0  0.34642183871425647  0.300119573450914  0.8971724847421781  1.0000
  C   C87       1.0  0.3373288163839233  0.4923199851074075  0.8372690487871208  1.0000
  C   C88       1.0  0.4150396804524163  0.25843614571643064  0.9132320873634467  1.0000
  C   C89       1.0  0.34335263038035174  0.3698691683827918  0.875190678092693  1.0000
  C   C90       1.0  0.4098433451985101  0.38002848980153936  0.8750490954364023  1.0000
  C   C91       1.0  0.9470479302593655  0.7918322575798915  0.8496690958195571  1.0000
  C   C92       1.0  0.8035752780384867  0.9524534651013498  0.9004017224116652  1.0000
  C   C93       1.0  0.992324772621721  0.8326781157366127  0.8371573679287038  1.0000
  C   C94       1.0  0.7584360573349257  0.9129444165421037  0.913020697918668  1.0000
  C   C95       1.0  0.8721035710569607  0.9089400006898816  0.8771975296531379  1.0000
  C   C96       1.0  0.8778309886701549  0.8368468255253493  0.8726610345823429  1.0000
  S   S1        1.0  0.3002780996993407  0.32419830966453134  0.3979056681087485  1.0000
  S   S2        1.0  0.449899632780685  0.42746597450294405  0.3528404424573494  1.0000
  S   S3        1.0  0.6603239316458058  0.6353304668352282  0.5629028214530861  1.0000
  S   S4        1.0  0.5909223327054035  0.6143846688518837  0.6892748333119769  1.0000
  S   S5        1.0  0.13268318852492905  0.16012675474444657  0.5622224317591886  1.0000
  S   S6        1.0  0.11457530406984519  0.09090821267153616  0.6887412283082524  1.0000
  S   S7        1.0  0.9725885610819203  0.8047115963333766  0.40218103395779536  1.0000
  S   S8        1.0  0.773664300764018  0.9455795739063508  0.34798145244200634  1.0000
  S   S9        1.0  0.614425562592622  0.5899611939824684  0.18758126374297746  1.0000
  S   S10       1.0  0.635529068725603  0.6585905696279543  0.06109347263132037  1.0000
  S   S11       1.0  0.013925140201848799  0.181723101979216  0.11143184407735156  1.0000
  S   S12       1.0  0.2382427095859754  0.0659395267041845  0.14006952978336068  1.0000
  S   S13       1.0  0.2763495437407996  0.4463046229170118  0.8488008093245653  1.0000
  S   S14       1.0  0.47608140647743363  0.30375430576099677  0.9019156037689553  1.0000
  S   S15       1.0  0.951195222962454  0.9232912995393936  0.85351457757973  1.0000
  S   S16       1.0  0.7989928478483319  0.8226220704402255  0.8969739891165742  1.0000
  N   N1        1.0  0.28635349101655544  0.5257435345922236  0.41256966337073914  1.0000
  N   N2        1.0  0.7818399237304658  0.5439812887725923  0.6571563731788074  1.0000
  N   N3        1.0  0.033786407634039485  0.2816321927597444  0.6562987507840815  1.0000
  N   N4        1.0  0.7826956896062356  0.7789940003412639  0.4047419987261519  1.0000
  N   N5        1.0  0.7070952666833674  0.4676821831424719  0.09364549744380211  1.0000
  N   N6        1.0  0.09407977739314077  0.09669174949095805  0.21911899548683775  1.0000
  N   N7        1.0  0.4632567844474876  0.4750908578239861  0.8499901104370408  1.0000
  N   N8        1.0  0.9673756537677393  0.7192278778608312  0.8421451116832014  1.0000
  O   O1        1.0  0.0001427706177637008  0.4993989468699311  0.500376596782047  1.0000
  O   O2        1.0  0.07491884189667529  0.31753006838680164  0.5235781272579415  1.0000
  O   O3        1.0  0.0350227909528016  0.5281067899942046  0.5864859441513914  1.0000
  O   O4        1.0  0.15741898522147574  0.5063716631916436  0.45102788398488497  1.0000
  O   O5        1.0  0.022769871330027107  0.3754246023003348  0.5824306480650846  1.0000
  O   O6        1.0  0.15305364758124537  0.39319093623936396  0.4471851652903353  1.0000
  O   O7        1.0  0.08073629524943021  0.5886402332319349  0.530710941743706  1.0000
  O   O8        1.0  0.0032772393084811997  0.656138480151448  0.449335121904461  1.0000
  O   O9        1.0  0.8880202494071198  0.49760624586132735  0.4421232061161859  1.0000
  O   O10       1.0  0.8877843608072096  0.6548481355257966  0.44808606311326565  1.0000
  O   O11       1.0  0.9956153203436384  0.3866259300563117  0.44167554877836307  1.0000
  O   O12       1.0  0.875747573588839  0.5285837187112962  0.5829094517973487  1.0000
  O   O13       1.0  0.817110062235315  0.5768946003523541  0.5242404638132214  1.0000
  O   O14       1.0  0.749719602333613  0.24953732397972336  0.25066987011224734  1.0000
  O   O15       1.0  0.5958777430777784  0.35942723691459855  0.30269327835525667  1.0000
  O   O16       1.0  0.6627274387958761  0.16497548691729969  0.21855977169385443  1.0000
  O   O17       1.0  0.7242325758694931  0.3743666048739557  0.16806066776236145  1.0000
  O   O18       1.0  0.5920336285529898  0.2459903465054085  0.29944113750453016  1.0000
  O   O19       1.0  0.6734678096707751  0.4332215629490791  0.22664790204915866  1.0000
  O   O20       1.0  0.7228632530595006  0.21639912924938207  0.16527870838632447  1.0000
  O   O21       1.0  0.8774397108001322  0.22429877944389898  0.1707117574083483  1.0000
  O   O22       1.0  0.8644554596324168  0.2531313959952188  0.30814943297187364  1.0000
  O   O23       1.0  0.9360736037032994  0.16912550323007028  0.229079031507652  1.0000
  O   O24       1.0  0.7542679890633933  0.3619139198473676  0.3082887671654645  1.0000
  O   O25       1.0  0.7446587255778707  0.09299105773530425  0.2992388154299234  1.0000
  O   O26       1.0  0.8577926448970599  0.09616159889795042  0.30389432937441535  1.0000
  O   O27       1.0  0.25032760620911176  0.7499630193903356  0.7498283858455039  1.0000
  O   O28       1.0  0.37634149992998533  0.7234012531171744  0.669143344399984  1.0000
  O   O29       1.0  0.36417341542654214  0.7554066120981417  0.8079595677838325  1.0000
  O   O30       1.0  0.17193151941089008  0.9339316984311598  0.7273566409636203  1.0000
  O   O31       1.0  0.4338641357330743  0.6706568148054973  0.7279035388955107  1.0000
  O   O32       1.0  0.22562825122582095  0.876093954499375  0.6687178079891324  1.0000
  O   O33       1.0  0.25232917387301507  0.8619834771827825  0.808109738637583  1.0000
  O   O34       1.0  0.09631105951919489  0.8554223106132002  0.8032232650905227  1.0000
  O   O35       1.0  0.16394688971351454  0.6645984167378602  0.7193198587981298  1.0000
  O   O36       1.0  0.09399518232677198  0.7407840045223966  0.8007295474991378  1.0000
  O   O37       1.0  0.21929546895097463  0.7188643280490867  0.6647280269658892  1.0000
  O   O38       1.0  0.3599731637096965  0.5978857899397526  0.804863404045129  1.0000
  O   O39       1.0  0.24770008685526068  0.5929484747904895  0.7997581319677136  1.0000
  O   O40       1.0  0.4999935818412381  0.9998858010987494  0.00011331315308637754  1.0000
  O   O41       1.0  0.5058481518591336  0.15579410002692384  0.9495353643406756  1.0000
  O   O42       1.0  0.38702652991285896  0.9964160624973178  0.942057219158009  1.0000
  O   O43       1.0  0.652513709646591  0.891934887028541  0.945997712984031  1.0000
  O   O44       1.0  0.39187820243818544  0.15332493520028134  0.9462034317732771  1.0000
  O   O45       1.0  0.6567807400618617  0.0050759072077754715  0.9494205738750237  1.0000
  O   O46       1.0  0.4961717212408415  0.8865966235570756  0.9418154623991338  1.0000
  O   O47       1.0  0.5789490185734962  0.8156315106002412  0.0223320792154951  1.0000
  O   O48       1.0  0.5312481212223972  0.030600284105702313  0.08601021537154449  1.0000
  O   O49       1.0  0.5269772107815952  0.8735880576601295  0.08100794040290532  1.0000
  O   O50       1.0  0.5854303901223544  0.08523783457108192  0.031034502310191704  1.0000
  O   O51       1.0  0.3155864885434879  0.07914813654091551  0.022697061651229  1.0000
  O   O52       1.0  0.37476689114837564  0.026235477083766116  0.08090759554772829  1.0000
  F   F1        1.0  0.7815825342933705  0.5169822189281845  0.3987732479856376  1.0000
  F   F2        1.0  0.1604325604071164  0.6592048282007357  0.5423093600267349  1.0000
  F   F3        1.0  0.7072292027650275  0.2085187560650257  0.09018804207446608  1.0000
  F   F4        1.0  0.23307506914021295  0.9693530154543666  0.8509156422145949  1.0000
