data_image0
_chemical_formula_structural       K4H36C52N8F8
_chemical_formula_sum              "K4 H36 C52 N8 F8"
_cell_length_a       3.977919087911854
_cell_length_b       11.534666954
_cell_length_c       25.035
_cell_angle_alpha    90.0
_cell_angle_beta     91.98643275154646
_cell_angle_gamma    90.0

_space_group_name_H-M_alt    "P 1"
_space_group_IT_number       1

loop_
  _space_group_symop_operation_xyz
  'x, y, z'

loop_
  _atom_site_type_symbol
  _atom_site_label
  _atom_site_symmetry_multiplicity
  _atom_site_fract_x
  _atom_site_fract_y
  _atom_site_fract_z
  _atom_site_occupancy
  K   K1        1.0  0.5916169222566907  0.1420751900800852  0.022869011022258696  1.0000
  K   K2        1.0  0.0916154896170198  0.35792624238433746  0.5228684838586516  1.0000
  K   K3        1.0  0.4083809122451214  0.8579268078969804  0.977131616156015  1.0000
  K   K4        1.0  0.9083848602735569  0.6420748886409484  0.4771313582921407  1.0000
  H   H1        1.0  0.2409465744584196  0.5118318563981319  0.9673031020317849  1.0000
  H   H2        1.0  0.7409454917093257  0.9881663723326921  0.46730401478210126  1.0000
  H   H3        1.0  0.7590537754321574  0.48816754072360163  0.03269634067822119  1.0000
  H   H4        1.0  0.2590523427924865  0.011833891740813797  0.5326954140738279  1.0000
  H   H5        1.0  0.5230675476192985  0.5468896523113286  0.8806056996952663  1.0000
  H   H6        1.0  0.0230686303683925  0.9531103103230548  0.3806063847080878  1.0000
  H   H7        1.0  0.4769302868825136  0.453109744810412  0.11939372916065588  1.0000
  H   H8        1.0  0.9769292041334194  0.04689168765401059  0.6193930441478412  1.0000
  H   H9        1.0  0.6074689022568689  0.3793122087918448  0.8188360877594006  1.0000
  H   H10       1.0  0.10746746961719818  0.120686622817253  0.3188371583589245  1.0000
  H   H11       1.0  0.3925264168561782  0.6206863213781162  0.18116332724244438  1.0000
  H   H12       1.0  0.8925328802733787  0.8793136412562602  0.6811622843510818  1.0000
  H   H13       1.0  0.4126092807599235  0.1851921697018923  0.8421011800793607  1.0000
  H   H14       1.0  0.9126107133995942  0.3148066619071983  0.3421013078021885  1.0000
  H   H15       1.0  0.5873885537418886  0.8148063604680615  0.1578990476581268  1.0000
  H   H16       1.0  0.08739215187974737  0.6851944691180876  0.6578977493211154  1.0000
  H   H17       1.0  0.9354730818892207  0.6009180869844144  0.8111127877519236  1.0000
  H   H18       1.0  0.4354641030832553  0.899084476505294  0.31111142014450616  1.0000
  H   H19       1.0  0.0645322987788859  0.3990821770890989  0.18888947875172588  1.0000
  H   H20       1.0  0.5645337314185568  0.1009166545199918  0.688888008711416  1.0000
  H   H21       1.0  0.5798977259982294  0.6804522429040034  0.7342332645435191  1.0000
  H   H22       1.0  0.0798912625810289  0.819547719730373  0.23423111190862037  1.0000
  H   H23       1.0  0.42011268544741387  0.3195462872659576  0.2657682307867191  1.0000
  H   H24       1.0  0.9201116026983198  0.18045167739136045  0.76576834465547  1.0000
  H   H25       1.0  0.3849374889506691  0.8855166812127067  0.7375772914160734  1.0000
  H   H26       1.0  0.8849439523678697  0.6144815475181176  0.23757664796549696  1.0000
  H   H27       1.0  0.6150704071062094  0.1144809820054746  0.2624229917377363  1.0000
  H   H28       1.0  0.11506394368900168  0.385517849603616  0.7624220374251819  1.0000
  H   H29       1.0  0.5328800791935107  0.0086365735913532  0.8156455643139466  1.0000
  H   H30       1.0  0.0328836773313768  0.4913639919212898  0.3156450648585007  1.0000
  H   H31       1.0  0.4671227860858309  0.9913628235303804  0.184354691131702  1.0000
  H   H32       1.0  0.9671166725592073  0.5086362721522234  0.6843543778515054  1.0000
  H   H33       1.0  0.9887012235559565  0.0847211283947047  0.8537870204478251  1.0000
  H   H34       1.0  0.4886997909162858  0.4152785701661585  0.3537872921657764  1.0000
  H   H35       1.0  0.0112991263346203  0.9152782687270289  0.14621282170296718  1.0000
  H   H36       1.0  0.5112980435855263  0.5847225608591273  0.6462125361309319  1.0000
  C   C1        1.0  0.2024334570698585  0.23388278229086268  0.9174700515143427  1.0000
  C   C2        1.0  0.7024298589319995  0.2661169162700006  0.4174701515290095  1.0000
  C   C3        1.0  0.7975668928207185  0.7661166148308707  0.0825301900772288  1.0000
  C   C4        1.0  0.2975679755698123  0.7338842147552853  0.5825296767676988  1.0000
  C   C5        1.0  0.1750006271933202  0.3310169262126763  0.951020976092714  1.0000
  C   C6        1.0  0.6750020598329909  0.168982772348194  0.45102190269710707  1.0000
  C   C7        1.0  0.8249972073084919  0.6689824709090572  0.048978452763208176  1.0000
  C   C8        1.0  0.3249982900575858  0.8310183586770916  0.5489779394536782  1.0000
  C   C9        1.0  0.28140408736270917  0.4417682816782928  0.9391436662268828  1.0000
  C   C10       1.0  0.7814055200023873  0.058231416882570386  0.43914459283127627  1.0000
  C   C11       1.0  0.7185937471390955  0.5582311154434406  0.06085576262903909  1.0000
  C   C12       1.0  0.2185948298881897  0.9417679802391631  0.56085484987873  1.0000
  C   C13       1.0  0.4350213946605237  0.46060801072002977  0.8906312506500595  1.0000
  C   C14       1.0  0.9350253426889594  0.0393916878408405  0.39063219110852987  1.0000
  C   C15       1.0  0.5649764398412882  0.5393913864017037  0.10936777876509039  1.0000
  C   C16       1.0  0.0649750072016175  0.9606094431844454  0.6093672516014762  1.0000
  C   C17       1.0  0.4775566186851208  0.36721649761470576  0.8560618482893573  1.0000
  C   C18       1.0  0.9775555359360266  0.1327832009461574  0.35606276103966644  1.0000
  C   C19       1.0  0.5224412158166913  0.6327828995070277  0.1439375805665719  1.0000
  C   C20       1.0  0.022444813954550093  0.8672170631273486  0.6439366816703397  1.0000
  C   C21       1.0  0.3652394795280429  0.2568023863899072  0.8691732139354611  1.0000
  C   C22       1.0  0.865238396778949  0.2431964452191835  0.3691741266857704  1.0000
  C   C23       1.0  0.634760870362534  0.7431970107318264  0.13082662821533117  1.0000
  C   C24       1.0  0.1347644685003928  0.7568046858061022  0.6308257293190991  1.0000
  C   C25       1.0  0.825075184360216  0.8779395226914843  0.8579267552175194  1.0000
  C   C26       1.0  0.3250787824980818  0.6220621738464445  0.3579262557620736  1.0000
  C   C27       1.0  0.1749176193640594  0.12206074138202887  0.1420742436933722  1.0000
  C   C28       1.0  0.674921567392502  0.3779380902270617  0.6420735863887116  1.0000
  C   C29       1.0  0.9231577384933374  0.7610891614825235  0.8540851019744339  1.0000
  C   C30       1.0  0.4231512750761367  0.7389125350554124  0.3540845471026657  1.0000
  C   C31       1.0  0.07684009600847468  0.2389102356392172  0.14591632408541239  1.0000
  C   C32       1.0  0.5768465594256753  0.2610877290181008  0.6459152811940498  1.0000
  C   C33       1.0  0.8421546740779602  0.6897164895811017  0.8111001134168132  1.0000
  C   C34       1.0  0.3421507260495247  0.8102843400050546  0.3110995723991223  1.0000
  C   C35       1.0  0.1578456758126165  0.3102829075406319  0.1889013264971098  1.0000
  C   C36       1.0  0.6578496238410523  0.1897159240684587  0.6889002697516631  1.0000
  C   C37       1.0  0.6489979707752624  0.7351863763226589  0.7683582078769078  1.0000
  C   C38       1.0  0.14899905352435636  0.764812719359945  0.26835689568581234  1.0000
  C   C39       1.0  0.3510048945040792  0.2648130207990746  0.2316424470095271  1.0000
  C   C40       1.0  0.8510063271437502  0.2351866777617957  0.7316421752915756  1.0000
  C   C41       1.0  0.5429340880892184  0.8504918294669963  0.7701567010054049  1.0000
  C   C42       1.0  0.042940201615841986  0.6495063992638279  0.2701558159632497  1.0000
  C   C43       1.0  0.4570687771901305  0.14950670070295757  0.2298439538810299  1.0000
  C   C44       1.0  0.9570676944410366  0.3504921309061331  0.7298432688682153  1.0000
  C   C45       1.0  0.6277177818191362  0.9201071901187062  0.8140999997628879  1.0000
  C   C46       1.0  0.1277238953457598  0.5798927725156773  0.31409951416151927  1.0000
  C   C47       1.0  0.3722800526826759  0.0798922070030343  0.1859002279746065  1.0000
  C   C48       1.0  0.8722814853223468  0.4201066246060562  0.685899956256648  1.0000
  C   C49       1.0  0.9975402996779221  0.0522745912304714  0.895415092540901  1.0000
  C   C50       1.0  0.4975388670382442  0.4477259742821715  0.3954145653772869  1.0000
  C   C51       1.0  0.0024600502126617  0.9477248058912622  0.1045859479322431  1.0000
  C   C52       1.0  0.5024614828523326  0.5522751567431143  0.6045852767734985  1.0000
  N   N1        1.0  0.0856464720764905  0.12612587825914548  0.9342448352086591  1.0000
  N   N2        1.0  0.5856403585498668  0.3738746872534975  0.4342449213692419  1.0000
  N   N3        1.0  0.9143563932028513  0.8738743858143678  0.0657558196777757  1.0000
  N   N4        1.0  0.4143599913407172  0.6261264437717884  0.5657549207815435  1.0000
  N   N5        1.0  0.9236633316352039  0.9415573109576199  0.90329859165751  1.0000
  N   N6        1.0  0.4236644143842979  0.5584435186285289  0.4032980783479871  1.0000
  N   N7        1.0  0.0763319874778432  0.058442953115886084  0.0967024211074659  1.0000
  N   N8        1.0  0.5763334201175141  0.44155674544497703  0.5967017499487213  1.0000
  F   F1        1.0  0.028036523180254794  0.3143072976842873  4.0576953672699966e-05  1.0000
  F   F2        1.0  0.5280379558199257  0.18569240087657587  0.5000415035580658  1.0000
  F   F3        1.0  0.9719587959327922  0.6856947002927711  0.9999588380481725  1.0000
  F   F4        1.0  0.4719623940706512  0.81430786319693  0.4999579391519403  1.0000
  F   F5        1.0  0.1224013327179634  0.7163535828951311  0.8952936860460595  1.0000
  F   F6        1.0  0.6223826422475154  0.7836524484016748  0.3952937029362501  1.0000
  F   F7        1.0  0.8776015325613782  0.2836484150819274  0.10470856660350589  1.0000
  F   F8        1.0  0.3776126768655317  0.21634781567183833  0.6047065109471674  1.0000
