data_image0
_chemical_formula_structural       Zn2H13C40N14O32F9
_chemical_formula_sum              "Zn2 H13 C40 N14 O32 F9"
_cell_length_a       14.652415597915002
_cell_length_b       15.932012211655428
_cell_length_c       17.15489949336471
_cell_angle_alpha    87.73501806766001
_cell_angle_beta     97.51714157374474
_cell_angle_gamma    89.37395055843793

_space_group_name_H-M_alt    "P 1"
_space_group_IT_number       1

loop_
  _space_group_symop_operation_xyz
  'x, y, z'

loop_
  _atom_site_type_symbol
  _atom_site_label
  _atom_site_symmetry_multiplicity
  _atom_site_fract_x
  _atom_site_fract_y
  _atom_site_fract_z
  _atom_site_occupancy
  Zn  Zn1       1.0  0.6000936159539022  0.4963747582715782  0.5054555250961954  1.0000
  Zn  Zn2       1.0  0.408649365323093  0.49474872465970055  0.5038057577064804  1.0000
  H   H1        1.0  0.40106689862678735  0.4340222422242874  0.7466813648076353  1.0000
  H   H2        1.0  0.6717600726256805  0.5376096482227553  0.7546289954006085  1.0000
  H   H3        1.0  0.5789078773104065  0.49401625633299057  0.026845396030608995  1.0000
  H   H4        1.0  0.4007518206881144  0.46295656683037106  0.8885691356079022  1.0000
  H   H5        1.0  0.5294179001578527  0.07361354865754778  0.3905539711788322  1.0000
  H   H6        1.0  0.3833533232868547  0.06071864665315021  0.41990308289125267  1.0000
  H   H7        1.0  0.3605044647737117  0.9199508314942549  0.4439563906631462  1.0000
  H   H8        1.0  0.6259217252134376  0.945533784606212  0.5769039305326231  1.0000
  H   H9        1.0  0.6260708451063124  0.05947449319764789  0.4635071892732228  1.0000
  H   H10       1.0  0.08283498864233955  0.5461550774288496  0.3777728771729372  1.0000
  H   H11       1.0  0.060182387426983994  0.4371997855287049  0.3786131091493274  1.0000
  H   H12       1.0  0.07262369588152501  0.6224580277449049  0.5010272661492579  1.0000
  H   H13       1.0  0.9204888088551684  0.3960705148659827  0.5743635042346185  1.0000
  C   C1        1.0  0.5053327900822707  0.3366325004174015  0.48699502196841127  1.0000
  C   C2        1.0  0.531987689826046  0.47526250808887477  0.6547669620907328  1.0000
  C   C3        1.0  0.4967544681745649  0.6551156338890961  0.5219076270305294  1.0000
  C   C4        1.0  0.47769130794514325  0.5317186809906502  0.3552935110492186  1.0000
  C   C5        1.0  0.5359471365422266  0.4841759494350412  0.741661031369155  1.0000
  C   C6        1.0  0.46022193261772754  0.4625941665502467  0.7800843495124283  1.0000
  C   C7        1.0  0.4599104885758507  0.4792421162708819  0.8588940711983639  1.0000
  C   C8        1.0  0.5347079020460013  0.5187584283919121  0.9013979831907761  1.0000
  C   C9        1.0  0.6111097461073598  0.536797381114475  0.8623959613630062  1.0000
  C   C10       1.0  0.6125226795276288  0.5202963922545577  0.7835444284795798  1.0000
  C   C11       1.0  0.5383679392025087  0.6116755142326014  0.156259071148817  1.0000
  C   C12       1.0  0.539877886947572  0.5989758496345485  0.23715146747575494  1.0000
  C   C13       1.0  0.3990580057990343  0.5233306049924024  0.2157888744394469  1.0000
  C   C14       1.0  0.3990937986966543  0.5347863875227857  0.1346936257152294  1.0000
  C   C15       1.0  0.46874655322966413  0.5784079787755942  0.10311384072829809  1.0000
  C   C16       1.0  0.5325002945171988  0.5334202045644502  0.9852293147646307  1.0000
  C   C17       1.0  0.47315911333200933  0.5822585289240578  0.017512917390185092  1.0000
  C   C18       1.0  0.4702363287533515  0.5541219629738733  0.2684670190456018  1.0000
  C   C19       1.0  0.5536170238142333  0.04353961442380688  0.4482404728933247  1.0000
  C   C20       1.0  0.3966556542546797  0.0459542102182198  0.4835372273388216  1.0000
  C   C21       1.0  0.394889523775383  0.9491947464028171  0.4963200918737982  1.0000
  C   C22       1.0  0.4942353544474614  0.7458675989437326  0.5220278581206941  1.0000
  C   C23       1.0  0.49533866194026627  0.0797782727234662  0.509893797620407  1.0000
  C   C24       1.0  0.5435094818795746  0.9485883576275285  0.44324775921141674  1.0000
  C   C25       1.0  0.4953375286048498  0.9125254280739694  0.514444353225862  1.0000
  C   C26       1.0  0.5539864930135607  0.9504443614123302  0.5879230629099226  1.0000
  C   C27       1.0  0.5363953933642165  0.04448582620047859  0.5937639328289563  1.0000
  C   C28       1.0  0.4954213924773257  0.8218412281541916  0.5193207284824624  1.0000
  C   C29       1.0  0.4971450232150757  0.1704239753271892  0.5020223905799597  1.0000
  C   C30       1.0  0.5025904587483438  0.24569493949104526  0.49107274615444396  1.0000
  C   C31       1.0  0.053382664387193295  0.40709571658540256  0.533989840588809  1.0000
  C   C32       1.0  0.04925465612746651  0.4955574646687352  0.40797431440257975  1.0000
  C   C33       1.0  0.9468908616121751  0.516959048853714  0.4025530087841957  1.0000
  C   C34       1.0  0.091482995914383  0.48672963502588823  0.49583170292871864  1.0000
  C   C35       1.0  0.9468177511767806  0.40747518733380156  0.518114098180483  1.0000
  C   C36       1.0  0.9108806291820953  0.4953791878343168  0.4823766034872036  1.0000
  C   C37       1.0  0.9560547079577404  0.5608333783782057  0.543189618249606  1.0000
  C   C38       1.0  0.06076133168400589  0.5662149121372408  0.537512963899182  1.0000
  C   C39       1.0  0.8116478191295043  0.5012806860343771  0.4813584612377326  1.0000
  C   C40       1.0  0.1912828387112597  0.4852440434155766  0.5025685058366989  1.0000
  N   N1        1.0  0.7359555617471899  0.5050400670686345  0.4933188076604936  1.0000
  N   N2        1.0  0.2704045311859673  0.49018736730064916  0.5074114545680358  1.0000
  N   N3        1.0  0.48672725877538164  0.9230089885663019  0.3638863355853772  1.0000
  N   N4        1.0  0.3362225122665948  0.9227989325910853  0.5597569963555031  1.0000
  N   N5        1.0  0.6330490862482776  0.0886836313642547  0.6178764875770851  1.0000
  N   N6        1.0  0.48074983886456113  0.0733611619467851  0.6600897757126845  1.0000
  N   N7        1.0  0.6158167980708029  0.6353231940084427  0.28982220111426227  1.0000
  N   N8        1.0  0.6397431925351853  0.9089811402602378  0.4369907439034861  1.0000
  N   N9        1.0  0.5599098465546106  0.8977823556606876  0.6661567160160047  1.0000
  N   N10       1.0  0.9062268269088137  0.33745556650735137  0.46565821710326816  1.0000
  N   N11       1.0  0.09670612278353019  0.3230361326749004  0.5074817677404011  1.0000
  N   N12       1.0  0.8908794935563051  0.47411146089074657  0.3309254492625371  1.0000
  N   N13       1.0  0.4091651417529362  0.6424248983603462  0.9704263448193089  1.0000
  N   N14       1.0  0.6914691199006597  0.577030371597381  0.9049357807022956  1.0000
  O   O1        1.0  0.5843694314403578  0.3687291052275938  0.5018577282723982  1.0000
  O   O2        1.0  0.4279249535545232  0.3744886344530371  0.4705807202432766  1.0000
  O   O3        1.0  0.605351129639473  0.4898462092678029  0.6245429386452629  1.0000
  O   O4        1.0  0.4542088155386992  0.4568200309120201  0.6175313801020721  1.0000
  O   O5        1.0  0.5724589348458194  0.6227824042655143  0.5086912741533922  1.0000
  O   O6        1.0  0.42346385450466767  0.6175710536614432  0.5339982480445328  1.0000
  O   O7        1.0  0.5571993491081102  0.5067008668622105  0.3861593038615466  1.0000
  O   O8        1.0  0.4057294532260299  0.5383387270266198  0.388217308981872  1.0000
  O   O9        1.0  0.4894995224362404  0.847996569185014  0.3509401717080678  1.0000
  O   O10       1.0  0.4425235580171714  0.978735212202437  0.3228412682986814  1.0000
  O   O11       1.0  0.3523633329391558  0.9559200490822377  0.6235734811725847  1.0000
  O   O12       1.0  0.27655818136144455  0.8707705214258324  0.5411748626863684  1.0000
  O   O13       1.0  0.6984202470571717  0.06135000822220601  0.5874191454739872  1.0000
  O   O14       1.0  0.6335582997000628  0.14750427648592523  0.6613750870178947  1.0000
  O   O15       1.0  0.4967526616786698  0.033930350278289695  0.7233422387225872  1.0000
  O   O16       1.0  0.43101794260223864  0.1356228893869016  0.6444965295831082  1.0000
  O   O17       1.0  0.6950252717058232  0.6132391632256784  0.28138608521575037  1.0000
  O   O18       1.0  0.5940866577661197  0.6858771516918836  0.33717111082913925  1.0000
  O   O19       1.0  0.6782482510614399  0.8656741701023449  0.4926603671738902  1.0000
  O   O20       1.0  0.6700759127935143  0.9288805404580032  0.375414674659595  1.0000
  O   O21       1.0  0.4969024311557746  0.8508713805348618  0.6773530919857789  1.0000
  O   O22       1.0  0.6331454285538882  0.9060473433589777  0.7092203870524613  1.0000
  O   O23       1.0  0.8383387380263225  0.30312735382334205  0.48576468759585356  1.0000
  O   O24       1.0  0.9441003088056235  0.32406217829677075  0.4068560059472119  1.0000
  O   O25       1.0  0.0725797207736889  0.25973066005226997  0.5414760586905557  1.0000
  O   O26       1.0  0.15153176577941  0.32920977398377715  0.4593557527642389  1.0000
  O   O27       1.0  0.8124431603328972  0.4520612912058084  0.3390666079260356  1.0000
  O   O28       1.0  0.930152109086741  0.4709824705446835  0.27232762363492913  1.0000
  O   O29       1.0  0.3503922547041255  0.6759875559408072  0.0056136891875837895  1.0000
  O   O30       1.0  0.41805916464392817  0.6561905941645776  0.9002879400462334  1.0000
  O   O31       1.0  0.6880126170543477  0.5922724284575622  0.9753084319266276  1.0000
  O   O32       1.0  0.7578834313675245  0.5928914054798186  0.8695332979477541  1.0000
  F   F1        1.0  0.3318859268673009  0.4996995387818686  0.0859196896458911  1.0000
  F   F2        1.0  0.3270369022434067  0.0850974099538533  0.5164418685694017  1.0000
  F   F3        1.0  0.9306207560885438  0.6013624916954114  0.38357689094752345  1.0000
  F   F4        1.0  0.10937764683271918  0.5734253747931886  0.610990431932997  1.0000
  F   F5        1.0  0.33155837167935687  0.47699511570961317  0.2414319486086072  1.0000
  F   F6        1.0  0.9414669931996612  0.5334994778773915  0.616991998044071  1.0000
  F   F7        1.0  0.0791856123128127  0.404311540901915  0.6138868844378392  1.0000
  F   F8        1.0  0.9146227191463296  0.6375189476116461  0.5289694123312785  1.0000
  F   F9        1.0  0.6044030125069779  0.6573797088524812  0.1278451562601646  1.0000
