data_image0
_chemical_formula_structural       Zn3H42C54N10O12
_chemical_formula_sum              "Zn3 H42 C54 N10 O12"
_cell_length_a       10.512623658481777
_cell_length_b       10.60776097924635
_cell_length_c       12.307242517778858
_cell_angle_alpha    79.95364605428017
_cell_angle_beta     83.63070243238911
_cell_angle_gamma    76.9525917370486

_space_group_name_H-M_alt    "P 1"
_space_group_IT_number       1

loop_
  _space_group_symop_operation_xyz
  'x, y, z'

loop_
  _atom_site_type_symbol
  _atom_site_label
  _atom_site_symmetry_multiplicity
  _atom_site_fract_x
  _atom_site_fract_y
  _atom_site_fract_z
  _atom_site_occupancy
  Zn  Zn1       1.0  0.2775361053341996  0.6527889835702965  0.16566149238372666  1.0000
  Zn  Zn2       1.0  0.7224640812185826  0.34720822663631173  0.8343404218856135  1.0000
  Zn  Zn3       1.0  0.49999903783736954  0.5000008448089092  7.241054120809981e-07  1.0000
  H   H1        1.0  0.4511204178089018  0.019006564655356308  0.8794737712169507  1.0000
  H   H2        1.0  0.548885334920982  0.9809916012597525  0.12052507035961209  1.0000
  H   H3        1.0  0.4812691991691765  0.09886572724398954  0.6760608451723511  1.0000
  H   H4        1.0  0.5187315610669003  0.9011334446018895  0.3239382924487159  1.0000
  H   H5        1.0  0.37834795091178125  0.7530366991131461  0.6047642916971866  1.0000
  H   H6        1.0  0.621646455887948  0.24696544277217924  0.3952349745638842  1.0000
  H   H7        1.0  0.3422213226772755  0.6764849094530875  0.8082383875036355  1.0000
  H   H8        1.0  0.6577757513893728  0.323518193201899  0.19176131318572934  1.0000
  H   H9        1.0  0.3538686421587587  0.18748033271537423  0.02970154850292766  1.0000
  H   H10       1.0  0.6461278763959654  0.812520816442685  0.9702984883672838  1.0000
  H   H11       1.0  0.2334598964699808  0.025531505378282308  0.9902104552520112  1.0000
  H   H12       1.0  0.7665368173852728  0.9744686616642683  0.009790521003679858  1.0000
  H   H13       1.0  0.8668410539257393  0.27314614090646944  0.08040607931445716  1.0000
  H   H14       1.0  0.13315645324588127  0.7268501031022442  0.9195970275048777  1.0000
  H   H15       1.0  0.9896176997591513  0.4359352677774312  0.12247958957686216  1.0000
  H   H16       1.0  0.01037634077206915  0.5640639357813344  0.8775217657396792  1.0000
  H   H17       1.0  0.513770549329095  0.6301101354555245  0.4402241995487228  1.0000
  H   H18       1.0  0.4862342391164347  0.3698880330513462  0.5597755399051536  1.0000
  H   H19       1.0  0.6967374324865219  0.6059192735232913  0.56382915179298  1.0000
  H   H20       1.0  0.303264982171072  0.39408575338512736  0.43617060426382165  1.0000
  H   H21       1.0  0.9772791045476265  0.4584447676290823  0.3096871536078182  1.0000
  H   H22       1.0  0.022725605051242253  0.541558279008328  0.6903159394218858  1.0000
  H   H23       1.0  0.7935629144163415  0.48401498856446085  0.18660201576234667  1.0000
  H   H24       1.0  0.20644360134429712  0.5159792407462406  0.8134030238235608  1.0000
  H   H25       1.0  0.28815899186424326  0.904136227267536  0.3603733842520993  1.0000
  H   H26       1.0  0.7118401939573928  0.09586588266018482  0.6396270870464065  1.0000
  H   H27       1.0  0.24002584319328696  0.04346909613927611  0.2591357867143316  1.0000
  H   H28       1.0  0.7599718228320785  0.9565310628832793  0.7408659186423278  1.0000
  H   H29       1.0  0.3320674899587672  0.89633708452962  0.21693379290512377  1.0000
  H   H30       1.0  0.6679314945052114  0.10366600479949993  0.7830665524970326  1.0000
  H   H31       1.0  0.9728771409745891  0.6934426463335799  0.19981997483535696  1.0000
  H   H32       1.0  0.02712265497713417  0.3065565281040606  0.8001800606630239  1.0000
  H   H33       1.0  0.8192993154366801  0.9090831957106931  0.2860939890703305  1.0000
  H   H34       1.0  0.18070007779973452  0.0909179375297455  0.7139057946353728  1.0000
  H   H35       1.0  0.8834022793644394  0.13081442854097966  0.3049759459846156  1.0000
  H   H36       1.0  0.11659447083355451  0.8691857547862725  0.695020149336237  1.0000
  H   H37       1.0  0.04894209373109249  0.12531001902051037  0.32402612111812346  1.0000
  H   H38       1.0  0.9510538328649148  0.8746940737699805  0.6759719110847867  1.0000
  H   H39       1.0  0.9079130526170829  0.13573598193301714  0.4995185711704551  1.0000
  H   H40       1.0  0.09208253193889959  0.8642651833873886  0.5004782961313692  1.0000
  H   H41       1.0  0.8583593660805776  0.9907558281596067  0.4868921815839115  1.0000
  H   H42       1.0  0.14163718275976583  0.009245334569037303  0.513103787840599  1.0000
  C   C1        1.0  0.38313931816012575  0.7931497961145124  0.9769904464279617  1.0000
  C   C2        1.0  0.6168612286040441  0.20685034970453842  0.02301019227505211  1.0000
  C   C3        1.0  0.39645038090792895  0.8418101051399133  0.8556347254904109  1.0000
  C   C4        1.0  0.6035530587093092  0.15819003290386044  0.1443632195806686  1.0000
  C   C5        1.0  0.43436885696048905  0.9619653989584626  0.8187634592315901  1.0000
  C   C6        1.0  0.5656361388998193  0.038031792861126214  0.18123559262949124  1.0000
  C   C7        1.0  0.4531523919947277  0.005575884308335302  0.7063168256012273  1.0000
  C   C8        1.0  0.5468495217691114  0.9944223001161564  0.293683167017157  1.0000
  C   C9        1.0  0.4372368038930149  0.9275770902771187  0.6292435941302513  1.0000
  C   C10       1.0  0.5627635354563836  0.07242403222921474  0.3707577321655647  1.0000
  C   C11       1.0  0.3927121743861051  0.8109062556277852  0.6657833474835043  1.0000
  C   C12       1.0  0.6072852963387235  0.18909488551028633  0.33421741848767533  1.0000
  C   C13       1.0  0.37259999032265506  0.7686315325026813  0.7784676258270762  1.0000
  C   C14       1.0  0.6273995982142893  0.23136861862224123  0.22153309726410694  1.0000
  C   C15       1.0  0.2512264076817345  0.41410862834204915  0.10985715979406759  1.0000
  C   C16       1.0  0.7487699276867088  0.5858935083597602  0.8901403107123824  1.0000
  C   C17       1.0  0.17847364624786624  0.3194423211703851  0.08227253996285808  1.0000
  C   C18       1.0  0.8215213585677078  0.6805568797966263  0.9177279174763695  1.0000
  C   C19       1.0  0.24753517228309352  0.20502793493117377  0.04200808116534917  1.0000
  C   C20       1.0  0.7524619442874682  0.7949702733085788  0.9579931468830194  1.0000
  C   C21       1.0  0.18070829496535623  0.11544651416405577  0.01885271237863858  1.0000
  C   C22       1.0  0.8192897677181892  0.8845516833415846  0.9811500582598496  1.0000
  C   C23       1.0  0.0433766077535012  0.1387541197031581  0.0355575442626517  1.0000
  C   C24       1.0  0.9566224010430275  0.8612440670683768  0.9644467689659493  1.0000
  C   C25       1.0  0.9735218654738772  0.254994204210732  0.07214459582031907  1.0000
  C   C26       1.0  0.026475843055401058  0.7450010603965896  0.9278586368953581  1.0000
  C   C27       1.0  0.041247485372871  0.34458987417288983  0.09511531358536017  1.0000
  C   C28       1.0  0.9587490696286451  0.6554063778558189  0.9048870641330069  1.0000
  C   C29       1.0  0.5389471608105367  0.5705888973878076  0.22970065201068465  1.0000
  C   C30       1.0  0.4610586404803881  0.4294043768261846  0.7702989034357514  1.0000
  C   C31       1.0  0.6438995753608765  0.5577606244105555  0.30643306935606046  1.0000
  C   C32       1.0  0.35610519491328324  0.4422375359539644  0.6935691105652423  1.0000
  C   C33       1.0  0.6152586259688064  0.5927611927139511  0.41252779737231987  1.0000
  C   C34       1.0  0.38474308643737504  0.4072379711119398  0.5874720693497223  1.0000
  C   C35       1.0  0.7161626405963304  0.5797044764700277  0.48080894376349886  1.0000
  C   C36       1.0  0.2838401828336998  0.4202985943497098  0.5191902505968428  1.0000
  C   C37       1.0  0.8463511125562634  0.5310354727392907  0.443506571420741  1.0000
  C   C38       1.0  0.15365206502803366  0.4689705309787728  0.5564921608624118  1.0000
  C   C39       1.0  0.8754078629608985  0.49445057263769615  0.33735966578375803  1.0000
  C   C40       1.0  0.12459707222411959  0.5055515054547755  0.6626402991857319  1.0000
  C   C41       1.0  0.774558306493887  0.5087086368090894  0.26996174410833607  1.0000
  C   C42       1.0  0.2254495337624931  0.4912885255222933  0.7300411220339312  1.0000
  C   C43       1.0  0.2547209656530712  0.9363992945610139  0.2764749800191949  1.0000
  C   C44       1.0  0.7452782201685721  0.06360281536670702  0.7235254912793108  1.0000
  C   C45       1.0  0.13436595379032923  0.8913942526003782  0.26403047462658685  1.0000
  C   C46       1.0  0.8656357646729734  0.10860491393962952  0.7359685786063179  1.0000
  C   C47       1.0  0.0006691076958986386  0.7731044412823922  0.22906847585697673  1.0000
  C   C48       1.0  0.9993314390682712  0.22689570453665922  0.770932162846037  1.0000
  C   C49       1.0  0.9244729794734641  0.8782992030212426  0.27170935445335687  1.0000
  C   C50       1.0  0.0755297032741922  0.12169996092701041  0.7282888009022412  1.0000
  C   C51       1.0  0.9703466852091156  0.0705001807115622  0.3442455218987844  1.0000
  C   C52       1.0  0.029651767971436965  0.9295009659771057  0.6557519057276692  1.0000
  C   C53       1.0  0.9411894432521565  0.04090036691856372  0.4694587038498738  1.0000
  C   C54       1.0  0.05880709347393774  0.9591007903818468  0.5305388925529186  1.0000
  N   N1        1.0  0.463345808689553  0.9589405008374072  0.5140270556085935  1.0000
  N   N2        1.0  0.5366507280365412  0.041060656463002915  0.4859705407941987  1.0000
  N   N3        1.0  0.9672220743375703  0.05110155175846392  0.0181072198420509  1.0000
  N   N4        1.0  0.03277562813458699  0.9488937101347406  0.9818968263627709  1.0000
  N   N5        1.0  0.942169999082459  0.5251688660642986  0.5169946132244191  1.0000
  N   N6        1.0  0.057835217467285795  0.4748410257711485  0.4830074297545649  1.0000
  N   N7        1.0  0.13038258738256298  0.7824965136144543  0.2240521416383103  1.0000
  N   N8        1.0  0.8696177459097072  0.21750460617776218  0.775949998146643  1.0000
  N   N9        1.0  0.009712439055824971  0.9518494432490318  0.29329098555304967  1.0000
  N   N10       1.0  0.9902848484827234  0.04815268543278963  0.7067072140543684  1.0000
  O   O1        1.0  0.34553230578578814  0.680340499351182  0.005163838729629304  1.0000
  O   O2        1.0  0.6544691931484935  0.31965963844787393  0.9948375290743524  1.0000
  O   O3        1.0  0.40471866728686484  0.8570917218450377  0.04590230472714295  1.0000
  O   O4        1.0  0.5952791575922378  0.14291235219135254  0.9540979991668548  1.0000
  O   O5        1.0  0.3749320455527752  0.39042434411049254  0.0924409607505652  1.0000
  O   O6        1.0  0.6250643079870387  0.6095778007336679  0.9075540692884656  1.0000
  O   O7        1.0  0.18323856752464  0.513656763162679  0.15109155180047645  1.0000
  O   O8        1.0  0.8167566082589135  0.4863463582464009  0.8489058771978006  1.0000
  O   O9        1.0  0.57668713453846  0.5387506579187973  0.13505667560625054  1.0000
  O   O10       1.0  0.4233196249796904  0.4612426109893235  0.8649427954520161  1.0000
  O   O11       1.0  0.4202277257052601  0.611703292534486  0.26604298630269335  1.0000
  O   O12       1.0  0.579777324773211  0.3882890102980951  0.7339559659391097  1.0000
