data_image0
_chemical_formula_structural       Zn8H10C72I14Br12O26
_chemical_formula_sum              "Zn8 H10 C72 I14 Br12 O26"
_cell_length_a       18.15977786950696
_cell_length_b       18.161052769957312
_cell_length_c       18.313259286547606
_cell_angle_alpha    90.6411479162234
_cell_angle_beta     120.01455163256011
_cell_angle_gamma    119.33317208780065

_space_group_name_H-M_alt    "P 1"
_space_group_IT_number       1

loop_
  _space_group_symop_operation_xyz
  'x, y, z'

loop_
  _atom_site_type_symbol
  _atom_site_label
  _atom_site_symmetry_multiplicity
  _atom_site_fract_x
  _atom_site_fract_y
  _atom_site_fract_z
  _atom_site_occupancy
  Zn  Zn1       1.0  0.9096882856646219  0.9519645751978559  0.5437814772812787  1.0000
  Zn  Zn2       1.0  0.08862402111338948  0.5376665630070646  0.1353406645930448  1.0000
  Zn  Zn3       1.0  0.09230659331107935  0.9563256491465139  0.5493776100043278  1.0000
  Zn  Zn4       1.0  0.9097150326248594  0.9490790042971398  0.3724882905737842  1.0000
  Zn  Zn5       1.0  0.91407088066655  0.5470258930695735  0.9625188627072915  1.0000
  Zn  Zn6       1.0  0.904539436460837  0.3684930321696811  0.9517079690648487  1.0000
  Zn  Zn7       1.0  0.08732281477994518  0.1297241673398872  0.5438514784513231  1.0000
  Zn  Zn8       1.0  0.08737261342961496  0.5451843380288397  0.9616261301691297  1.0000
  H   H1        1.0  0.5987514869946863  0.738457346256041  0.3976769857144404  1.0000
  H   H2        1.0  0.8873475939807275  0.6502546745834366  0.14535716097633156  1.0000
  H   H3        1.0  0.8897389113469173  0.751722480703677  0.23994406856274253  1.0000
  H   H4        1.0  0.2640127974208537  0.18864697066663888  0.9646781290151978  1.0000
  H   H5        1.0  0.2963857633838244  0.3105494978201406  0.0642547085588205  1.0000
  H   H6        1.0  0.7998416427562061  0.7066302802824963  0.5218263127298782  1.0000
  H   H7        1.0  0.9876938862651128  0.2400375880265813  0.053125812090470986  1.0000
  H   H8        1.0  0.6050122257903254  0.19647638512979165  0.7805172546540289  1.0000
  H   H9        1.0  0.8208397056104175  0.5097276593671792  0.7070716476755123  1.0000
  H   H10       1.0  0.01809692919046309  0.06519356371529028  0.2610677982503091  1.0000
  C   C1        1.0  0.9876541381221599  0.1293936014444981  0.3580198493258494  1.0000
  C   C2        1.0  0.44758508724648743  0.29253464624076736  0.7524831507607389  1.0000
  C   C3        1.0  0.959429720273263  0.7146867159610579  0.19404357441733558  1.0000
  C   C4        1.0  0.13896395071596146  0.17932591802284747  0.8461160430799453  1.0000
  C   C5        1.0  0.16989045265376754  0.31140877600548583  0.9595949958985985  1.0000
  C   C6        1.0  0.21758611437908829  0.2154063423349939  0.9364838833412179  1.0000
  C   C7        1.0  0.23496653502918718  0.283440394274308  0.9928575900625346  1.0000
  C   C8        1.0  0.0897469728442672  0.278827801702171  0.8655749557558963  1.0000
  C   C9        1.0  0.4424049343256727  0.7327238787642614  0.15371267912544076  1.0000
  C   C10       1.0  0.07813865468932586  0.21415308261062188  0.8056948854040442  1.0000
  C   C11       1.0  0.007039157486694593  0.18924507043682576  0.7110660917908261  1.0000
  C   C12       1.0  0.019558068905759375  0.3045486399215919  0.826519096584832  1.0000
  C   C13       1.0  0.9433383214104794  0.21898408263999866  0.6765484283789859  1.0000
  C   C14       1.0  0.9476309793903465  0.27508889097258293  0.7346609265441726  1.0000
  C   C15       1.0  0.039736713521897206  0.8928131151332153  0.3733240253566806  1.0000
  C   C16       1.0  0.034954970028899086  0.6615129986491725  0.15114506958796178  1.0000
  C   C17       1.0  0.276877011479769  0.1388532542401677  0.6553802808697071  1.0000
  C   C18       1.0  0.271888914297385  0.6245879197538357  0.13322392645527256  1.0000
  C   C19       1.0  0.7185373514509408  0.8591437313183193  0.36248167857092994  1.0000
  C   C20       1.0  0.5450419564389364  0.8105415603049194  0.21738093122390714  1.0000
  C   C21       1.0  0.7230489297850297  0.3696079885703226  0.8504443869848474  1.0000
  C   C22       1.0  0.5835116341485431  0.8865504814141757  0.19081283385576597  1.0000
  C   C23       1.0  0.5822438516225005  0.44197281815989  0.7756430706814683  1.0000
  C   C24       1.0  0.5344427046842313  0.8789626230185092  0.10101722273857658  1.0000
  C   C25       1.0  0.5335359440166201  0.4780947696461695  0.7838190473455029  1.0000
  C   C26       1.0  0.5483798651557662  0.3515517822732761  0.7722992490099615  1.0000
  C   C27       1.0  0.45001198492442296  0.7913491851739354  0.03562676731899479  1.0000
  C   C28       1.0  0.4507063799754292  0.42408606521093617  0.7922584045992238  1.0000
  C   C29       1.0  0.6025355805803372  0.8065434173116729  0.3042496855469635  1.0000
  C   C30       1.0  0.606994106316847  0.31446332695453094  0.7884651652024814  1.0000
  C   C31       1.0  0.9896092676411639  0.6261813722856431  0.853824858973205  1.0000
  C   C32       1.0  0.5529897741699444  0.7410331408403011  0.33182757821489883  1.0000
  C   C33       1.0  0.5580134679769841  0.2224372170315547  0.764585561252922  1.0000
  C   C34       1.0  0.44412082740893777  0.6794790468331016  0.2766043873127799  1.0000
  C   C35       1.0  0.4500824890874782  0.16296572329106598  0.7218711911496882  1.0000
  C   C36       1.0  0.3868420577976223  0.673864601448436  0.1872493511551951  1.0000
  C   C37       1.0  0.3934766811971429  0.19670530365620215  0.7151594006865593  1.0000
  C   C38       1.0  0.8055661001898782  0.6644214355050834  0.563222279647718  1.0000
  C   C39       1.0  0.99486565607161  0.2030957784700362  0.09979440943101968  1.0000
  C   C40       1.0  0.7227804329145895  0.5758090828348017  0.5290237002770795  1.0000
  C   C41       1.0  0.00955362550556056  0.13735606064904715  0.08800687322111138  1.0000
  C   C42       1.0  0.7289164498328092  0.5181457256364368  0.5803878444512947  1.0000
  C   C43       1.0  0.019650900858096097  0.0878191639607167  0.1477398289699181  1.0000
  C   C44       1.0  0.9858318163188072  0.8449816661157925  0.6248553563199195  1.0000
  C   C45       1.0  0.9718249258735482  0.3476912973023687  0.12688441304065634  1.0000
  C   C46       1.0  0.815768932642328  0.5537696628412121  0.6676441074672042  1.0000
  C   C47       1.0  0.4047221178938756  0.7198673586186429  0.061364020991916755  1.0000
  C   C48       1.0  0.011717722557555996  0.1043129504007538  0.2164513890426818  1.0000
  C   C49       1.0  0.9006721262132087  0.6452633863847764  0.7052445722872847  1.0000
  C   C50       1.0  0.9922429921856946  0.16883178852724262  0.22802741303513602  1.0000
  C   C51       1.0  0.8977499566783607  0.7005589912766298  0.6505036948931603  1.0000
  C   C52       1.0  0.9850151222704681  0.2202837172578072  0.16917115201573546  1.0000
  C   C53       1.0  0.4074235889420733  0.33289041545018694  0.7745931526012768  1.0000
  C   C54       1.0  0.9892538593120573  0.7878495937859284  0.6835367333345131  1.0000
  C   C55       1.0  0.9668917141319752  0.28611270811953193  0.18158746081975607  1.0000
  C   C56       1.0  0.08036013222044149  0.8186921333938173  0.766974259471091  1.0000
  C   C57       1.0  0.9489751972668046  0.29555016979788457  0.24536686560188067  1.0000
  C   C58       1.0  0.08014955562674697  0.766392653638924  0.8243069064336412  1.0000
  C   C59       1.0  0.9548395641010426  0.2436276572856073  0.3030993528017232  1.0000
  C   C60       1.0  0.9911749799145753  0.6823001683935104  0.7943802556630362  1.0000
  C   C61       1.0  0.9790150424597711  0.18342851324154447  0.2961362663473393  1.0000
  C   C62       1.0  0.24220653333034645  0.9696379439653099  0.37989066968059143  1.0000
  C   C63       1.0  0.23718289405393736  0.8558542857953739  0.26984000860341695  1.0000
  C   C64       1.0  0.33496234307011724  0.9894796061594988  0.3962437265472545  1.0000
  C   C65       1.0  0.33243351251658027  0.9311422265576181  0.3406918414685761  1.0000
  C   C66       1.0  0.14511770532652685  0.8232156309863965  0.2655815277712037  1.0000
  C   C67       1.0  0.1472011955802513  0.8824296454453843  0.32214907253414526  1.0000
  C   C68       1.0  0.9986520585045822  0.13211580499749687  0.6428471826484027  1.0000
  C   C69       1.0  0.01597860699726539  0.3631267484447136  0.8814633801459948  1.0000
  C   C70       1.0  0.05260960992440288  0.8517506922396763  0.3126762114110803  1.0000
  C   C71       1.0  0.0499482979160248  0.737269663667412  0.2050562275914842  1.0000
  C   C72       1.0  0.9607989170688709  0.771657347154267  0.24708618466438273  1.0000
  I   I1        1.0  0.6131817204433715  0.3794982639752503  0.5267167764195406  1.0000
  I   I2        1.0  0.22402868052295594  0.8067381536973031  0.15564812194004676  1.0000
  I   I3        1.0  0.2404244939215444  0.07594351685894202  0.42526171430688453  1.0000
  I   I4        1.0  0.47816371196685736  0.10902296035072105  0.49656362174440727  1.0000
  I   I5        1.0  0.4700796136924836  0.9606005234708803  0.36044212055801234  1.0000
  I   I6        1.0  0.5837265489788592  0.9917000651752232  0.061995763299087576  1.0000
  I   I7        1.0  0.5808310797550644  0.6092444582178087  0.7855495766007365  1.0000
  I   I8        1.0  0.04396877183278755  0.9883051237799165  0.1340339355053004  1.0000
  I   I9        1.0  0.38709844485646966  0.6046236273476565  0.3447711072469061  1.0000
  I   I10       1.0  0.3896239228497364  0.026538582567333404  0.6741047403832637  1.0000
  I   I11       1.0  0.21801164842608503  0.9407741339054354  0.8062081615595957  1.0000
  I   I12       1.0  0.9081878142292935  0.3846294331949309  0.2519829961764515  1.0000
  I   I13       1.0  0.2149793242636235  0.8155645991200798  0.9542484491046038  1.0000
  I   I14       1.0  0.9234729185551274  0.2532792365766738  0.3979966965178362  1.0000
  Br  Br1       1.0  0.8483962084387782  0.18289218548234484  0.550442021149223  1.0000
  Br  Br2       1.0  0.6830641201279305  0.5073517425538938  0.752851871398434  1.0000
  Br  Br3       1.0  0.6928005495730786  0.0009258058399125998  0.28200299422478275  1.0000
  Br  Br4       1.0  0.4014931540439833  0.7730202435076663  0.914277507391482  1.0000
  Br  Br5       1.0  0.4009645063675435  0.4764035341666428  0.8281087486803287  1.0000
  Br  Br6       1.0  0.30883038295485216  0.60158103844266  0.9775919547329365  1.0000
  Br  Br7       1.0  0.3085518327098384  0.262755024786884  0.797805830740984  1.0000
  Br  Br8       1.0  0.8554076092046329  0.3109235366499874  0.6870943522862516  1.0000
  Br  Br9       1.0  0.6022607752200669  0.5341725805530473  0.412169369902422  1.0000
  Br  Br10      1.0  0.0127646209364443  0.11351551348899849  0.9890059629383714  1.0000
  Br  Br11      1.0  0.1145410674249732  0.07517663316170338  0.7855061381007503  1.0000
  Br  Br12      1.0  0.1953171896435038  0.391553215472669  0.05104747747439829  1.0000
  O   O1        1.0  0.00035874119205913144  0.9975151340960123  0.5038240951801997  1.0000
  O   O2        1.0  0.9593205904039195  0.6283779304179617  0.06876796634527677  1.0000
  O   O3        1.0  0.9649320574857044  0.9016020143546868  0.33314693877789375  1.0000
  O   O4        1.0  0.06336867896808228  0.17191730786955617  0.4403222318826039  1.0000
  O   O5        1.0  0.03810948192677442  0.5909052192486257  0.8647420911668817  1.0000
  O   O6        1.0  0.03281611942050951  0.8554093416686896  0.5887467430569018  1.0000
  O   O7        1.0  0.04906843185665365  0.429120241281545  0.170435256744554  1.0000
  O   O8        1.0  0.9985636450761457  0.49938224206410803  0.0038249614702221537  1.0000
  O   O9        1.0  0.9185189186574121  0.04531147744071969  0.3210462201199178  1.0000
  O   O10       1.0  0.9387052493568434  0.6179331965061154  0.885622001893694  1.0000
  O   O11       1.0  0.9340493564623672  0.8766635749502498  0.6162125357950503  1.0000
  O   O12       1.0  0.9008044167620284  0.3124704224429565  0.042796447714287915  1.0000
  O   O13       1.0  0.06365603809447144  0.17354827453461744  0.6241283113339335  1.0000
  O   O14       1.0  0.07055085701924924  0.446414906095761  0.8953593084258885  1.0000
  O   O15       1.0  0.09557560699818184  0.9055153959752928  0.4567288384662618  1.0000
  O   O16       1.0  0.08941136124958143  0.6314244214410463  0.1922078832774971  1.0000
  O   O17       1.0  0.23446018331246418  0.1741555505861854  0.6054915236687322  1.0000
  O   O18       1.0  0.22775916586107312  0.6432895389561679  0.0634538376317266  1.0000
  O   O19       1.0  0.7620402933899725  0.8667327404987546  0.32307122916385833  1.0000
  O   O20       1.0  0.7687467385425677  0.4456009058670958  0.9059686776801429  1.0000
  O   O21       1.0  0.2295376986065634  0.0581141136497578  0.6534575930562028  1.0000
  O   O22       1.0  0.22361123418006915  0.5702325677305852  0.1615408742597424  1.0000
  O   O23       1.0  0.7619430826964545  0.8839886267099358  0.4464623491634895  1.0000
  O   O24       1.0  0.9243502477552495  0.04980189293205228  0.6085467510112751  1.0000
  O   O25       1.0  0.7674107467801221  0.3332831157476903  0.848409573384643  1.0000
  O   O26       1.0  0.9542722645097185  0.3217142813533158  0.9033127338536673  1.0000
