data_image0
_chemical_formula_structural       Dy4H40C16O32F4
_chemical_formula_sum              "Dy4 H40 C16 O32 F4"
_cell_length_a       7.030208040027125
_cell_length_b       7.349737797751374
_cell_length_c       17.234684999195697
_cell_angle_alpha    100.92588050952934
_cell_angle_beta     90.00031481680901
_cell_angle_gamma    89.9999937643759

_space_group_name_H-M_alt    "P 1"
_space_group_IT_number       1

loop_
  _space_group_symop_operation_xyz
  'x, y, z'

loop_
  _atom_site_type_symbol
  _atom_site_label
  _atom_site_symmetry_multiplicity
  _atom_site_fract_x
  _atom_site_fract_y
  _atom_site_fract_z
  _atom_site_occupancy
  Dy  Dy1       1.0  0.9511522170168617  0.13516709393755386  0.8001377047026705  1.0000
  Dy  Dy2       1.0  0.45114925433268377  0.3648376931494185  0.6998599195570562  1.0000
  Dy  Dy3       1.0  0.04884623268322489  0.8648344893894163  0.19986376166522038  1.0000
  Dy  Dy4       1.0  0.5488506177847086  0.6351638455479219  0.3001392223791584  1.0000
  H   H1        1.0  0.4508761677180857  0.2636107685679789  0.9126059025517889  1.0000
  H   H2        1.0  0.9508691323255787  0.2363898724236364  0.5873919801843357  1.0000
  H   H3        1.0  0.5491265492751509  0.7363866466043237  0.0873946607224596  1.0000
  H   H4        1.0  0.0491350070666385  0.7636102136638813  0.41260356777674184  1.0000
  H   H5        1.0  0.5660767051554743  0.17439622377459335  0.9907351208189894  1.0000
  H   H6        1.0  0.0660654808516554  0.3256110388807161  0.5092647350503015  1.0000
  H   H7        1.0  0.4339260118567338  0.8256081643597286  0.009268303538966915  1.0000
  H   H8        1.0  0.9339415034098623  0.6743876726993251  0.4907312866923093  1.0000
  H   H9        1.0  0.7560388188765756  0.4936339568953799  0.007665695870656504  1.0000
  H   H10       1.0  0.2560270446038757  0.006366331046116601  0.4923332500257516  1.0000
  H   H11       1.0  0.2439638981127317  0.5063634471193482  0.9923342862952608  1.0000
  H   H12       1.0  0.743968560226925  0.9936283239478104  0.5076676796884669  1.0000
  H   H13       1.0  0.6197773498771679  0.5311043627047952  0.9241187101114434  1.0000
  H   H14       1.0  0.11976985581965491  0.9688969277017495  0.5758802339516079  1.0000
  H   H15       1.0  0.3802239446758549  0.46889441581807045  0.0758807982745822  1.0000
  H   H16       1.0  0.8802300163206452  0.031103292274657704  0.42412228730450596  1.0000
  H   H17       1.0  0.0917990173361503  0.1690658557547877  0.9735578819477625  1.0000
  H   H18       1.0  0.5918011053312001  0.3309331387064063  0.5264425515287101  1.0000
  H   H19       1.0  0.9082008547897547  0.830937090924039  0.026442529535181326  1.0000
  H   H20       1.0  0.4081973443544982  0.6690628684824561  0.4735567421938711  1.0000
  H   H21       1.0  0.2207948102897248  0.020135848782956597  0.9147486519772483  1.0000
  H   H22       1.0  0.7207891429762723  0.47987020292863053  0.5852531969138184  1.0000
  H   H23       1.0  0.7792064842731106  0.9798671090540909  0.0852523406156749  1.0000
  H   H24       1.0  0.27920930670745037  0.5201299501017119  0.414745837690674  1.0000
  H   H25       1.0  0.11935284482363072  0.7338622224335086  0.7493180814216416  1.0000
  H   H26       1.0  0.6193480132229611  0.7661473481120926  0.7506797623203881  1.0000
  H   H27       1.0  0.8806456048528946  0.26613929394804364  0.2506798982962692  1.0000
  H   H28       1.0  0.3806532813398817  0.23385560972495514  0.24932123027252823  1.0000
  H   H29       1.0  0.0467794996065436  0.7831447361840704  0.8398933913166287  1.0000
  H   H30       1.0  0.5467706041340179  0.7168620302450253  0.6601058136186069  1.0000
  H   H31       1.0  0.953221794944511  0.21685818818026098  0.16010585795130078  1.0000
  H   H32       1.0  0.4532321128565968  0.28313814510240587  0.3398943832074721  1.0000
  H   H33       1.0  0.7460818867771694  0.9979670015927199  0.657682350578682  1.0000
  H   H34       1.0  0.246086577038696  0.5020343594967829  0.8423145605197034  1.0000
  H   H35       1.0  0.2539208302023254  0.002034525948346298  0.34231621025248415  1.0000
  H   H36       1.0  0.7539132950832722  0.49796857602446937  0.15768526985491596  1.0000
  H   H37       1.0  0.90300183008128  0.838281285826412  0.6532293796032818  1.0000
  H   H38       1.0  0.4030079863047149  0.6617188774852067  0.8467701107013494  1.0000
  H   H39       1.0  0.09699946447370418  0.16172164969549396  0.3467704507729791  1.0000
  H   H40       1.0  0.596993308244386  0.33827988988008445  0.15322881657634468  1.0000
  C   C1        1.0  0.5646221720526726  0.991713210913851  0.8776939825215847  1.0000
  C   C2        1.0  0.0646153535377536  0.508289425963895  0.6223055227070802  1.0000
  C   C3        1.0  0.4353777001033307  0.008287053692832601  0.1223108631678471  1.0000
  C   C4        1.0  0.9353845185554305  0.4917106601216761  0.3776900252490733  1.0000
  C   C5        1.0  0.5741613891538293  0.18446586911822044  0.9278855308345725  1.0000
  C   C6        1.0  0.0741510153277005  0.3155358359377161  0.572112752154581  1.0000
  C   C7        1.0  0.425838482986471  0.8155343508581867  0.07211699042154152  1.0000
  C   C8        1.0  0.9258531240677925  0.6844628756410246  0.42788326958474693  1.0000
  C   C9        1.0  0.7495403523297738  0.466892563381947  0.9426328784788538  1.0000
  C   C10       1.0  0.2495298086761295  0.03310653045059551  0.5573655945464466  1.0000
  C   C11       1.0  0.2504609422271784  0.5331062262984787  0.057367211015502996  1.0000
  C   C12       1.0  0.7504700634465066  0.966889487896488  0.44263428028610713  1.0000
  C   C13       1.0  0.920357259524394  0.5523899783999016  0.9094954088420408  1.0000
  C   C14       1.0  0.4203499653256698  0.9476115641011448  0.5905030666090879  1.0000
  C   C15       1.0  0.07964545746884262  0.4476074367724011  0.09050515443220769  1.0000
  C   C16       1.0  0.5796499068067789  0.052388633560127615  0.4094982924303635  1.0000
  O   O1        1.0  0.6893151319320836  0.9468942230588553  0.8236531275595025  1.0000
  O   O2        1.0  0.18930761668073603  0.5531057340071474  0.6763452885273296  1.0000
  O   O3        1.0  0.3106747831817174  0.05309909089640292  0.17635001925138738  1.0000
  O   O4        1.0  0.8106851432585102  0.4468929998815342  0.3236518954155301  1.0000
  O   O5        1.0  0.7474235746163058  0.2721760604703222  0.9119188709950092  1.0000
  O   O6        1.0  0.2474120033084333  0.22782440593805842  0.5880791233662775  1.0000
  O   O7        1.0  0.2525777199439148  0.7278213547013339  0.0880816922775978  1.0000
  O   O8        1.0  0.7525878688030758  0.7721729646026677  0.4119191154713704  1.0000
  O   O9        1.0  0.4311681886409461  0.8879191307786344  0.8923179703111328  1.0000
  O   O10       1.0  0.9311571731334067  0.6120865785894198  0.6076808520727397  1.0000
  O   O11       1.0  0.5688274162186387  0.11207837365097363  0.1076872418215444  1.0000
  O   O12       1.0  0.0688412765182562  0.3879120995140186  0.39231342633503624  1.0000
  O   O13       1.0  0.0198302200775444  0.4464897705638295  0.8574658131351638  1.0000
  O   O14       1.0  0.5198282163011072  0.05351460044001751  0.6425296536100191  1.0000
  O   O15       1.0  0.9801739193637501  0.5535146064135719  0.14253703011610946  1.0000
  O   O16       1.0  0.4801773455319776  0.9464855079632885  0.3574670565693552  1.0000
  O   O17       1.0  0.9557688815524086  0.7218355745431568  0.9333246026111013  1.0000
  O   O18       1.0  0.4557598605581746  0.778163251268012  0.5666749021087795  1.0000
  O   O19       1.0  0.044232413028090896  0.2781715849232144  0.0666790364053682  1.0000
  O   O20       1.0  0.5442400115625006  0.2218286100800314  0.433324650733546  1.0000
  O   O21       1.0  0.07655354454289659  0.835386316414095  0.792517528219804  1.0000
  O   O22       1.0  0.576545294829742  0.664623248529729  0.7074819600815586  1.0000
  O   O23       1.0  0.9234449051375575  0.1646152111250246  0.20748103260643797  1.0000
  O   O24       1.0  0.42345315487099816  0.33537972046359243  0.29251961361640605  1.0000
  O   O25       1.0  0.1163953506168909  0.11180516745677951  0.9171246526169339  1.0000
  O   O26       1.0  0.6163896607529225  0.3882021522962092  0.5828759004800901  1.0000
  O   O27       1.0  0.8836045215122824  0.8881964047132699  0.08287623264426708  1.0000
  O   O28       1.0  0.38360452163437486  0.6118035433975777  0.41712356343979445  1.0000
  O   O29       1.0  0.8825715273967489  0.9751247240037421  0.669479887521895  1.0000
  O   O30       1.0  0.3825774782706972  0.5248740238323537  0.8305188672000554  1.0000
  O   O31       1.0  0.1174283447389683  0.024874099148746595  0.3305219452958141  1.0000
  O   O32       1.0  0.617422393846695  0.47512751486498683  0.16948027473615918  1.0000
  F   F1        1.0  0.22544077317729716  0.20179866895033174  0.7495620732876771  1.0000
  F   F2        1.0  0.7254330900808625  0.2981990506885596  0.7504379801247438  1.0000
  F   F3        1.0  0.7745605213855383  0.7982042888867158  0.250438919305239  1.0000
  F   F4        1.0  0.274562514763673  0.7017997947771236  0.24956501490469657  1.0000
