data_image0
_chemical_formula_structural       Cu2H30C52N10O8
_chemical_formula_sum              "Cu2 H30 C52 N10 O8"
_cell_length_a       8.141815890271502
_cell_length_b       10.11647849998504
_cell_length_c       13.377942740568386
_cell_angle_alpha    92.08200509527508
_cell_angle_beta     103.60401330455815
_cell_angle_gamma    101.90797834157583

_space_group_name_H-M_alt    "P 1"
_space_group_IT_number       1

loop_
  _space_group_symop_operation_xyz
  'x, y, z'

loop_
  _atom_site_type_symbol
  _atom_site_label
  _atom_site_symmetry_multiplicity
  _atom_site_fract_x
  _atom_site_fract_y
  _atom_site_fract_z
  _atom_site_occupancy
  Cu  Cu1       1.0  0.5382969352880663  0.07534453510403687  0.7672898988935444  1.0000
  Cu  Cu2       1.0  0.4616991738847318  0.9246626312130887  0.2327099562260813  1.0000
  H   H1        1.0  0.1217510469666507  0.16303405161797707  0.15564890716935054  1.0000
  H   H2        1.0  0.8782560548296773  0.8369619461152878  0.8443411179778834  1.0000
  H   H3        1.0  0.2039050007220453  0.22085835738547388  0.9874895973431492  1.0000
  H   H4        1.0  0.7960892832112165  0.7791325623806244  0.01249912174726122  1.0000
  H   H5        1.0  0.9661848862915862  0.19300002924140355  0.8266040664589485  1.0000
  H   H6        1.0  0.03380458151947604  0.8069919055080844  0.1733861948245021  1.0000
  H   H7        1.0  0.5902044968634427  0.06576207659215778  0.9840470448795671  1.0000
  H   H8        1.0  0.4097890575300057  0.9342359598586185  0.015951455814743627  1.0000
  H   H9        1.0  0.639357780335139  0.3064248671491825  0.6317226086584  1.0000
  H   H10       1.0  0.3606470888789842  0.6935772278176131  0.3682747042880337  1.0000
  H   H11       1.0  0.7596214217662053  0.31856934129123715  0.4722429117888609  1.0000
  H   H12       1.0  0.2403818825756687  0.6814317399401091  0.5277548884168725  1.0000
  H   H13       1.0  0.8293652731958971  0.10976474896856561  0.4000993993859936  1.0000
  H   H14       1.0  0.17063548802267545  0.890236331904596  0.5998987654410755  1.0000
  H   H15       1.0  0.4886201631437785  0.7965441627672617  0.8618828275478451  1.0000
  H   H16       1.0  0.5113710238588426  0.2034680732940828  0.13811790491396891  1.0000
  H   H17       1.0  0.5477246740064458  0.5710066286114779  0.8180690184554251  1.0000
  H   H18       1.0  0.45226750455040593  0.4290005478853087  0.1819369730911973  1.0000
  H   H19       1.0  0.6598187857379754  0.5366556872540116  0.6637802829185873  1.0000
  H   H20       1.0  0.3401795015346423  0.46334642753672733  0.33622874793817203  1.0000
  H   H21       1.0  0.6743308394186371  0.5387020101850268  0.038861300310024716  1.0000
  H   H22       1.0  0.3256668324721304  0.4613021251091922  0.9611439492631463  1.0000
  H   H23       1.0  0.861512866037863  0.372779303214152  0.0776207418647274  1.0000
  H   H24       1.0  0.1384734969879204  0.6272156873853162  0.9223773494308175  1.0000
  H   H25       1.0  0.9791944795223415  0.5066545833781575  0.4007453060335778  1.0000
  H   H26       1.0  0.020812558289833326  0.49333737531244287  0.5992535818904942  1.0000
  H   H27       1.0  0.0033345394373255803  0.3480332760025319  0.2608646732236792  1.0000
  H   H28       1.0  0.9966554819257212  0.6519566439591743  0.7391323504073526  1.0000
  H   H29       1.0  0.7181707942690138  0.5405703023262516  0.4792385101434037  1.0000
  H   H30       1.0  0.28182884958131627  0.4594318047844934  0.5207662394396877  1.0000
  C   C1        1.0  0.7941518422285938  0.0697735254166005  0.17909518042145584  1.0000
  C   C2        1.0  0.20584242624719448  0.9302173957784203  0.8208942839349547  1.0000
  C   C3        1.0  0.8507334594613312  0.10763012553562128  0.08215184794251941  1.0000
  C   C4        1.0  0.14926778613188663  0.8923679062740034  0.9178425778237838  1.0000
  C   C5        1.0  0.024755829918007108  0.154288165183516  0.0829573416575045  1.0000
  C   C6        1.0  0.9752412827204252  0.8457037692115889  0.9170310804959385  1.0000
  C   C7        1.0  0.0693265491920627  0.1868191821864116  0.9910920427802452  1.0000
  C   C8        1.0  0.9306684545238896  0.8131788380108416  0.0088977050444115  1.0000
  C   C9        1.0  0.9369617974224695  0.17109984012709836  0.9006571718437328  1.0000
  C   C10       1.0  0.06303147734480774  0.8288920958741174  0.09933291514071392  1.0000
  C   C11       1.0  0.7276108916216233  0.097467428174312  0.9884917947157916  1.0000
  C   C12       1.0  0.2723891961866514  0.9025265479809335  0.011503105579038182  1.0000
  C   C13       1.0  0.6747198101573205  0.2197743450185357  0.5980778794517293  1.0000
  C   C14       1.0  0.32527968722833117  0.7802267349610758  0.40192009505301474  1.0000
  C   C15       1.0  0.7415799273788791  0.2249303735782746  0.510279269871944  1.0000
  C   C16       1.0  0.2584187441760974  0.7750676607310181  0.48971701104769494  1.0000
  C   C17       1.0  0.7816336298029684  0.11067697963066077  0.4702522026360825  1.0000
  C   C18       1.0  0.21837373616205727  0.8893251199810878  0.5297469814870155  1.0000
  C   C19       1.0  0.753577839391852  0.9908040566521521  0.5200870004761882  1.0000
  C   C20       1.0  0.2464294956582407  0.009198045817441897  0.47991367417890274  1.0000
  C   C21       1.0  0.6848927483876182  0.9929532310370773  0.6078543794625233  1.0000
  C   C22       1.0  0.3151085685372265  0.007049879806658097  0.3921446659992824  1.0000
  C   C23       1.0  0.6457472844925292  0.8726885063328922  0.6601529959817825  1.0000
  C   C24       1.0  0.35425357897260307  0.12731765071654166  0.3398482980087962  1.0000
  C   C25       1.0  0.5412798903987054  0.7798659632577412  0.7959465390975069  1.0000
  C   C26       1.0  0.45871794772276786  0.22014728725541488  0.20405297686232873  1.0000
  C   C27       1.0  0.5732690575337998  0.6534369104484907  0.7701434724223546  1.0000
  C   C28       1.0  0.4267244466858386  0.346570261226148  0.2298597283826069  1.0000
  C   C29       1.0  0.6362169908823532  0.635282562974673  0.6842176197207266  1.0000
  C   C30       1.0  0.36378432008678635  0.36472563404780084  0.3157897717665747  1.0000
  C   C31       1.0  0.673844669921337  0.7460085593276772  0.6260183463875961  1.0000
  C   C32       1.0  0.3261593365914807  0.2539955790053767  0.3739871095312282  1.0000
  C   C33       1.0  0.7341399502491299  0.7458240992958165  0.5345640624873056  1.0000
  C   C34       1.0  0.2658576193950708  0.2541749598221301  0.4654380579223627  1.0000
  C   C35       1.0  0.7755395097714911  0.8623817825386907  0.48347151578175135  1.0000
  C   C36       1.0  0.22445998545988025  0.13761525268255778  0.5165323404358304  1.0000
  C   C37       1.0  0.7965037496598553  0.6966429653076743  0.385709692638919  1.0000
  C   C38       1.0  0.2035123085609314  0.3033591548481667  0.6142982764004756  1.0000
  C   C39       1.0  0.8097379346732225  0.6097088264304203  0.2991017367228679  1.0000
  C   C40       1.0  0.19027132380975337  0.3902872073841124  0.7009065554529883  1.0000
  C   C41       1.0  0.7202450963182656  0.6174477810342082  0.19577430368089213  1.0000
  C   C42       1.0  0.2797599017487826  0.3825512977342881  0.8042364113227407  1.0000
  C   C43       1.0  0.5880904224331402  0.7042602628437747  0.16177631907486764  1.0000
  C   C44       1.0  0.41192038166320794  0.2957459170722315  0.8382346954203399  1.0000
  C   C45       1.0  0.7446219509836071  0.5325226716531118  0.11794176849399213  1.0000
  C   C46       1.0  0.2553745631222171  0.4674774079867347  0.8820639556076983  1.0000
  C   C47       1.0  0.8483170725824818  0.43864318264282776  0.14004877443629482  1.0000
  C   C48       1.0  0.1516769911448392  0.5613568880652977  0.8599528426907456  1.0000
  C   C49       1.0  0.911747771339009  0.5127896988188139  0.32072701308478463  1.0000
  C   C50       1.0  0.088254990599772  0.4872053062546725  0.6792750429330567  1.0000
  C   C51       1.0  0.9300725950230201  0.42650029973593456  0.2424015227407992  1.0000
  C   C52       1.0  0.06992261483318879  0.5734946971183915  0.7575979008110636  1.0000
  N   N1        1.0  0.7688865534943617  0.12754301080087768  0.8993767141158671  1.0000
  N   N2        1.0  0.2311110066480779  0.8724509635672673  0.10061780553429857  1.0000
  N   N3        1.0  0.5764358667817006  0.8856864378749232  0.7416042603544497  1.0000
  N   N4        1.0  0.4235642134237382  0.11432580015451069  0.2583955685656889  1.0000
  N   N5        1.0  0.6461212957616382  0.10646212234266268  0.6451269210746844  1.0000
  N   N6        1.0  0.35388157057798963  0.8935420036654518  0.35487238239382185  1.0000
  N   N7        1.0  0.7518950963756907  0.6412451457353328  0.4718116119570227  1.0000
  N   N8        1.0  0.2481128540562523  0.358754936230781  0.5281928439816497  1.0000
  N   N9        1.0  0.8173936000431328  0.8302213625669879  0.393476180059274  1.0000
  N   N10       1.0  0.1826203530565991  0.1697777124539073  0.6065306503386836  1.0000
  O   O1        1.0  0.8985954959337833  0.10506360731292119  0.264997891837382  1.0000
  O   O2        1.0  0.10139919673391505  0.8949110948387964  0.7349942319224425  1.0000
  O   O3        1.0  0.6347724770809221  0.003287612897153699  0.1585412437951703  1.0000
  O   O4        1.0  0.36521480287320424  0.9967235904945537  0.8414506520892928  1.0000
  O   O5        1.0  0.5219819974001608  0.7447487871937566  0.23382932900391043  1.0000
  O   O6        1.0  0.47802518307527464  0.2552533295650718  0.7661787983111666  1.0000
  O   O7        1.0  0.549607789967169  0.7253029852235784  0.0688912523122127  1.0000
  O   O8        1.0  0.45039639392526004  0.27470217738277103  0.931119488152973  1.0000
