data_image0
_chemical_formula_structural       Co4H52C72N12O16
_chemical_formula_sum              "Co4 H52 C72 N12 O16"
_cell_length_a       11.299821712011193
_cell_length_b       14.307022975015814
_cell_length_c       16.80263707800458
_cell_angle_alpha    89.99993007428328
_cell_angle_beta     90.00004588492344
_cell_angle_gamma    89.99984474445608

_space_group_name_H-M_alt    "P 1"
_space_group_IT_number       1

loop_
  _space_group_symop_operation_xyz
  'x, y, z'

loop_
  _atom_site_type_symbol
  _atom_site_label
  _atom_site_symmetry_multiplicity
  _atom_site_fract_x
  _atom_site_fract_y
  _atom_site_fract_z
  _atom_site_occupancy
  Co  Co1       1.0  0.9999992662208541  0.86383410801902  0.0275829849012155  1.0000
  Co  Co2       1.0  3.616479559999998e-07  0.13616669179842233  0.972416933146853  1.0000
  Co  Co3       1.0  0.9999977428114377  0.3638317949945886  0.4724175851080901  1.0000
  Co  Co4       1.0  0.9999981936764613  0.636166538485  0.5275831896510468  1.0000
  H   H1        1.0  0.9999975486241297  0.9002832049665201  0.2152850502653152  1.0000
  H   H2        1.0  2.9642131949e-06  0.09971829380740622  0.7847148677826254  1.0000
  H   H3        1.0  0.9999993351546906  0.4002860547984427  0.2847160771670687  1.0000
  H   H4        1.0  0.9999992562333304  0.5997164724250227  0.7152817218672141  1.0000
  H   H5        1.0  0.9999991852734952  0.030450087882790907  0.4474633413410771  1.0000
  H   H6        1.0  0.9999985211470988  0.9695517403829046  0.5525362431273635  1.0000
  H   H7        1.0  0.9999980843492153  0.5304481712491694  0.0525369785217222  1.0000
  H   H8        1.0  1.5435200709000003e-06  0.46955192961170406  0.9474617492373554  1.0000
  H   H9        1.0  0.9999987638910853  0.20077008867686896  0.2372402993050855  1.0000
  H   H10       1.0  1.7489474402000008e-06  0.7992307111396287  0.7627596187432175  1.0000
  H   H11       1.0  0.9999979204826845  0.7007699663415181  0.2627616297371276  1.0000
  H   H12       1.0  0.9999989009674622  0.29923186192598183  0.7372367644417324  1.0000
  H   H13       1.0  0.1920384946822935  0.8020940259385655  0.9136835961722198  1.0000
  H   H14       1.0  0.19203637106360116  0.19790603403522775  0.08631497048185112  1.0000
  H   H15       1.0  0.8079586055181308  0.3020965032577934  0.5863217112181829  1.0000
  H   H16       1.0  0.807962244600269  0.6979022405765108  0.4136807485137552  1.0000
  H   H17       1.0  0.8079620181578021  0.19790607492007686  0.08631691702111513  1.0000
  H   H18       1.0  0.8079597169256232  0.8020947657868549  0.9136837572759404  1.0000
  H   H19       1.0  0.1920410223552622  0.6979028986422194  0.4136817776986632  1.0000
  H   H20       1.0  0.19204446302913422  0.3020964623619378  0.5863179792479016  1.0000
  H   H21       1.0  0.4105658354331396  0.8001709655249982  0.906798425569761  1.0000
  H   H22       1.0  0.410563713642631  0.19982862748669564  0.0932020408372622  1.0000
  H   H23       1.0  0.5894295014391987  0.30017040511205556  0.5932039080884267  1.0000
  H   H24       1.0  0.5894331254704639  0.6998288056881351  0.4067966518896284  1.0000
  H   H25       1.0  0.5894337924360401  0.19982983429201792  0.0932020876229842  1.0000
  H   H26       1.0  0.5894332593182341  0.8001714733761532  0.9067978772104723  1.0000
  H   H27       1.0  0.4105692414654313  0.6998275988757643  0.40679720025020316  1.0000
  H   H28       1.0  0.41057358215726236  0.30017129516431856  0.5932032661606499  1.0000
  H   H29       1.0  0.4123669400034231  0.930501913757695  0.1396800818629842  1.0000
  H   H30       1.0  0.4123688606618074  0.06949697644397901  0.8603197903429987  1.0000
  H   H31       1.0  0.5876308764203558  0.43050167168813397  0.3603201575890226  1.0000
  H   H32       1.0  0.5876316936899926  0.5694961450448732  0.6396786160140735  1.0000
  H   H33       1.0  0.5876318029036085  0.06949469231526  0.8603210264763703  1.0000
  H   H34       1.0  0.5876298822412594  0.9305017265016958  0.1396807228505992  1.0000
  H   H35       1.0  0.4123714063640733  0.5694949343827532  0.6396785701725562  1.0000
  H   H36       1.0  0.4123758989090193  0.43050325684877316  0.3603218971814782  1.0000
  H   H37       1.0  0.19426350424968325  0.925964517949012  0.1357961130065775  1.0000
  H   H38       1.0  0.19426541407770512  0.074032741434948  0.864204240248  1.0000
  H   H39       1.0  0.805732557821685  0.42596799797825463  0.3642077020065742  1.0000
  H   H40       1.0  0.8057351246921414  0.5740293527003644  0.635792971127259  1.0000
  H   H41       1.0  0.8057361236246622  0.07403348603785531  0.8642049953322868  1.0000
  H   H42       1.0  0.8057324438568472  0.9259652625542428  0.1357962729457256  1.0000
  H   H43       1.0  0.19426795501829733  0.5740328018365303  0.6357945966204284  1.0000
  H   H44       1.0  0.1942742378468765  0.4259686512786729  0.3642045663460962  1.0000
  H   H45       1.0  0.9999986417246023  0.8558922636944503  0.4305768743490503  1.0000
  H   H46       1.0  0.9999990646995941  0.14410746769895874  0.5694227101204774  1.0000
  H   H47       1.0  2.9709478681999995e-06  0.3558929970306083  0.06942463260166681  1.0000
  H   H48       1.0  0.9999984268608414  0.6441071038283683  0.9305740951578727  1.0000
  H   H49       1.0  0.9999977809026674  0.8082094557496121  0.3362482533063016  1.0000
  H   H50       1.0  0.9999990405514508  0.19179027564517537  0.6637507360183151  1.0000
  H   H51       1.0  1.3407068025000002e-06  0.30820935436387487  0.1637515175541253  1.0000
  H   H52       1.0  0.9999991721313605  0.691791445453049  0.836247805349494  1.0000
  C   C1        1.0  0.9999971722673209  0.058161882737685695  0.1283455614328375  1.0000
  C   C2        1.0  3.3405572708000002e-06  0.9418466056113886  0.8716531663221261  1.0000
  C   C3        1.0  0.9999964622468339  0.5581637005454922  0.3716529443158407  1.0000
  C   C4        1.0  0.9999941644100404  0.4418416225149144  0.6283466401489406  1.0000
  C   C5        1.0  4.530183159999998e-08  0.0510097569930039  0.2170504272389735  1.0000
  C   C6        1.0  3.2739523306e-06  0.9489907133330036  0.7829480389547924  1.0000
  C   C7        1.0  0.9999981901449148  0.5510113330043396  0.2829496097802675  1.0000
  C   C8        1.0  0.9999977463397443  0.44898909734710196  0.717051760122466  1.0000
  C   C9        1.0  2.707957805000003e-07  0.9626158721772314  0.2525890198852068  1.0000
  C   C10       1.0  3.0484558735e-06  0.03738669501978361  0.747411231741502  1.0000
  C   C11       1.0  2.416927956e-07  0.46261737778758066  0.24741211505714486  1.0000
  C   C12       1.0  0.9999993861708489  0.5373862178600107  0.7525872078447976  1.0000
  C   C13       1.0  0.9999993026672556  0.952653901230498  0.3362356805302369  1.0000
  C   C14       1.0  1.2101733091e-06  0.04734550067156821  0.6637636423741072  1.0000
  C   C15       1.0  0.9999993226034007  0.45265659565984623  0.163764535996755  1.0000
  C   C16       1.0  1.3417400524e-06  0.5473445736268587  0.8362333350512756  1.0000
  C   C17       1.0  0.9999973682039852  0.0348207152433204  0.38277468366428014  1.0000
  C   C18       1.0  1.3746959482000006e-06  0.9651793856180718  0.6172246392392396  1.0000
  C   C19       1.0  0.9999998863923026  0.5348235982018893  0.11722563167314351  1.0000
  C   C20       1.0  3.2813510343999995e-06  0.4651792984849125  0.8827730960854154  1.0000
  C   C21       1.0  0.9999980799557165  0.1229005603767632  0.3470356051508645  1.0000
  C   C22       1.0  1.5479144011000002e-06  0.8770988415271008  0.6529625274638989  1.0000
  C   C23       1.0  7.934296775e-07  0.6229030624091295  0.1529625720387315  1.0000
  C   C24       1.0  3.4107952942000003e-06  0.3770974079146541  0.8470376795892918  1.0000
  C   C25       1.0  0.9999988988346831  0.1317836700669943  0.26404803178645153  1.0000
  C   C26       1.0  1.6140010715e-06  0.8682185276647943  0.7359512911164501  1.0000
  C   C27       1.0  0.9999989075485161  0.6317877800611527  0.2359515880648999  1.0000
  C   C28       1.0  7.203146595000002e-07  0.3682165145430075  0.7640489251260334  1.0000
  C   C29       1.0  0.999998847817196  0.2088506205957757  0.3969318951713916  1.0000
  C   C30       1.0  2.5499935603000005e-06  0.7911480823487692  0.603066237444196  1.0000
  C   C31       1.0  0.9999997302241896  0.7088566892322635  0.1030667882166085  1.0000
  C   C32       1.0  1.8190899595999998e-06  0.2911451790083531  0.8969346536993541  1.0000
  C   C33       1.0  0.24527206013824096  0.8298145856774326  0.9623634545279033  1.0000
  C   C34       1.0  0.24527174208143518  0.1701846615842584  0.0376357351199275  1.0000
  C   C35       1.0  0.7547267147470579  0.32981794577005275  0.537640633886852  1.0000
  C   C36       1.0  0.7547278538046598  0.6701830086879356  0.4623617979959675  1.0000
  C   C37       1.0  0.7547284527002844  0.17018621413906496  0.0376364635203927  1.0000
  C   C38       1.0  0.7547252308766589  0.8298168371938743  0.9623635877824057  1.0000
  C   C39       1.0  0.24527379809125452  0.6701842519587303  0.4623628550287791  1.0000
  C   C40       1.0  0.2452761989139276  0.3298170921673461  0.5376381200536143  1.0000
  C   C41       1.0  0.3680819612635986  0.8294034696580894  0.959358601394321  1.0000
  C   C42       1.0  0.3680807605057764  0.17059551517784402  0.0406406524992207  1.0000
  C   C43       1.0  0.6319159300655174  0.32940568993987546  0.5406437020122041  1.0000
  C   C44       1.0  0.6319188339705094  0.6705927311163934  0.4593568801920966  1.0000
  C   C45       1.0  0.6319176666076132  0.17059593224449537  0.0406413166544652  1.0000
  C   C46       1.0  0.6319162124535254  0.8294052846428669  0.9593586704034749  1.0000
  C   C47       1.0  0.36808281283503413  0.6705951098767997  0.4593585966143365  1.0000
  C   C48       1.0  0.36808787366129536  0.3294045739071905  0.540641847570285  1.0000
  C   C49       1.0  0.4345832595647894  0.8657330837734206  0.0230377161342616  1.0000
  C   C50       1.0  0.4345842155833779  0.13426505999798624  0.97696335798328  1.0000
  C   C51       1.0  0.5654165493542892  0.36573342024870215  0.47696378063253775  1.0000
  C   C52       1.0  0.5654170011866029  0.6342630460385905  0.5230349813501362  1.0000
  C   C53       1.0  0.5654163683083553  0.13426561917087554  0.9769633922042402  1.0000
  C   C54       1.0  0.5654136423515368  0.8657329439907713  0.0230377503551225  1.0000
  C   C55       1.0  0.43458750336790075  0.634264583734293  0.5230361374181314  1.0000
  C   C56       1.0  0.4345879365093738  0.3657321621146039  0.4769637464128635  1.0000
  C   C57       1.0  0.3690317614474666  0.9011632595113073  0.0875025616726717  1.0000
  C   C58       1.0  0.36903364521097615  0.09883572328960351  0.9124996684419314  1.0000
  C   C59       1.0  0.6309652708151532  0.40116564557177986  0.4124988984278701  1.0000
  C   C60       1.0  0.630967693304278  0.5988313796032758  0.5874993027010049  1.0000
  C   C61       1.0  0.6309687513997204  0.09883334655890513  0.9124997369564982  1.0000
  C   C62       1.0  0.6309642127234696  0.9011629796557302  0.0875026301854618  1.0000
  C   C63       1.0  0.3690343570556962  0.5988337563312316  0.5875004244762465  1.0000
  C   C64       1.0  0.36903989929771086  0.40116522646279407  0.4124982347726132  1.0000
  C   C65       1.0  0.24630770381379818  0.8991902347808818  0.08615333761257199  1.0000
  C   C66       1.0  0.24630869748154535  0.10080761235067831  0.9138470428674523  1.0000
  C   C67       1.0  0.7536928751093299  0.3991916576945514  0.4138487196758263  1.0000
  C   C68       1.0  0.7536926342544634  0.6008051052312169  0.5861513310892619  1.0000
  C   C69       1.0  0.7536919240597086  0.10080846816298819  0.9138483658706065  1.0000
  C   C70       1.0  0.7536882754832918  0.8991903916394506  0.0861534703260389  1.0000
  C   C71       1.0  0.2463111776120215  0.6008070452454464  0.5861517935191571  1.0000
  C   C72       1.0  0.24631053349727955  0.3991928987535829  0.4138473966718195  1.0000
  N   N1        1.0  0.18392444055314172  0.8644815177538591  0.0245302740654481  1.0000
  N   N2        1.0  0.183924505471353  0.13551716164042202  0.9754694786345367  1.0000
  N   N3        1.0  0.8160727177557805  0.3644834176302396  0.4754730094290451  1.0000
  N   N4        1.0  0.8160740520867832  0.6355153088682928  0.5245288594023734  1.0000
  N   N5        1.0  0.8160760722881477  0.13551788414735463  0.9754702391282493  1.0000
  N   N6        1.0  0.8160724674891497  0.8644829392228602  0.0245298442685211  1.0000
  N   N7        1.0  0.18392602514717282  0.6355159842715777  0.5245292891982132  1.0000
  N   N8        1.0  0.18393000063264253  0.36448409302999357  0.4754704635029015  1.0000
  N   N9        1.0  1.3935107219000004e-06  0.8662589140556991  0.3704628291294441  1.0000
  N   N10       1.0  1.0407727870999998e-06  0.133742954184406  0.6295380176420764  1.0000
  N   N11       1.0  0.999995758691078  0.3662602198574164  0.12953926223669038  1.0000
  N   N12       1.0  3.292947994e-07  0.6337433757926692  0.8704618460983511  1.0000
  O   O1        1.0  0.9999902468213194  0.983740911328688  0.0868611180220427  1.0000
  O   O2        1.0  6.726136057e-06  0.0162605874503043  0.9131370145909443  1.0000
  O   O3        1.0  0.9999966155153714  0.48374357631781356  0.413137542463943  1.0000
  O   O4        1.0  0.9999913562424326  0.5162554561294287  0.5868608517140429  1.0000
  O   O5        1.0  1.5893333866999998e-06  0.13940349528604662  0.09616578519979413  1.0000
  O   O6        1.0  0.9999980385326522  0.86059870244668  0.903833537702873  1.0000
  O   O7        1.0  0.9999963423742032  0.6394069941857835  0.4038329700558663  1.0000
  O   O8        1.0  0.999998709140016  0.3605934361674699  0.5961672095572794  1.0000
  O   O9        1.0  0.9999933795673642  0.28898541530161753  0.36304788672241983  1.0000
  O   O10       1.0  6.2483062493000005e-06  0.71101258868611  0.6369520313270912  1.0000
  O   O11       1.0  3.1531853465999997e-06  0.7889879403716407  0.1369519040297362  1.0000
  O   O12       1.0  0.9999964746853963  0.21101216048751334  0.863049204308048  1.0000
  O   O13       1.0  4.3612626257e-06  0.20561266558590316  0.4729452987369172  1.0000
  O   O14       1.0  0.9999979215225351  0.7943839404841241  0.5270546193140149  1.0000
  O   O15       1.0  0.9999968828178896  0.7056167067838147  0.027053983148263704  1.0000
  O   O16       1.0  4.5149919217000005e-06  0.29438339407388264  0.9729465300452986  1.0000
