data_image0
_chemical_formula_structural       Cu8H72C112N8O40
_chemical_formula_sum              "Cu8 H72 C112 N8 O40"
_cell_length_a       13.23189794016178
_cell_length_b       13.955926696210696
_cell_length_c       25.702548200165513
_cell_angle_alpha    89.99938150415417
_cell_angle_beta     90.06556939056924
_cell_angle_gamma    89.99988489386625

_space_group_name_H-M_alt    "P 1"
_space_group_IT_number       1

loop_
  _space_group_symop_operation_xyz
  'x, y, z'

loop_
  _atom_site_type_symbol
  _atom_site_label
  _atom_site_symmetry_multiplicity
  _atom_site_fract_x
  _atom_site_fract_y
  _atom_site_fract_z
  _atom_site_occupancy
  Cu  Cu1       1.0  0.9404860907697666  0.8264430516549977  0.21030754098937618  1.0000
  Cu  Cu2       1.0  0.440448040976932  0.673542855981367  0.7896875962092124  1.0000
  Cu  Cu3       1.0  0.0595044230133581  0.8264566935634148  0.2896925851664562  1.0000
  Cu  Cu4       1.0  0.5595676064585076  0.6735413851558503  0.7103062763091755  1.0000
  Cu  Cu5       1.0  0.05965807761626251  0.17353270107696522  0.789665286557323  1.0000
  Cu  Cu6       1.0  0.5599604416972711  0.32656617497904966  0.21010789413799094  1.0000
  Cu  Cu7       1.0  0.9403473257404257  0.17353983864756364  0.7103299570565936  1.0000
  Cu  Cu8       1.0  0.43997680082646445  0.32654614588906133  0.28993911062012495  1.0000
  H   H1        1.0  0.7896807983762244  0.6682613927249291  0.6685748196736512  1.0000
  H   H2        1.0  0.2894500487304015  0.831695416305969  0.33144655892019154  1.0000
  H   H3        1.0  0.2103189955039255  0.6682674762245993  0.8314241369899803  1.0000
  H   H4        1.0  0.7105540566344145  0.8317002281151672  0.168553151399685  1.0000
  H   H5        1.0  0.21020952361394762  0.33170647752510957  0.33147457954043347  1.0000
  H   H6        1.0  0.7105263401419534  0.1682867854822233  0.6685234959240489  1.0000
  H   H7        1.0  0.7897798109572137  0.3317068436175176  0.16853350365881425  1.0000
  H   H8        1.0  0.2894805909850291  0.1682783903235787  0.8314760586601153  1.0000
  H   H9        1.0  0.5080295006341943  0.6773251572336177  0.5994744895438727  1.0000
  H   H10       1.0  0.007987553627351898  0.8226558218642879  0.4003420160150384  1.0000
  H   H11       1.0  0.4919740495677445  0.6773243285542774  0.9005220807229575  1.0000
  H   H12       1.0  0.9920127897282071  0.8226578990072679  0.0996550227214854  1.0000
  H   H13       1.0  0.49184119224645434  0.32266349255502297  0.40059318997882076  1.0000
  H   H14       1.0  0.9919911229085867  0.1773220804912441  0.5996463256405419  1.0000
  H   H15       1.0  0.5081481634157471  0.32266002303983027  0.0994161134353888  1.0000
  H   H16       1.0  0.008014279548369502  0.17732143616565568  0.900355509918917  1.0000
  H   H17       1.0  0.8627353388890596  0.6899336845254495  0.3957177504057582  1.0000
  H   H18       1.0  0.36271314882326067  0.8099527679196113  0.604288190366212  1.0000
  H   H19       1.0  0.1373076176527164  0.689973798447859  0.10428085669286698  1.0000
  H   H20       1.0  0.6372848222709777  0.809952482007496  0.8957087681760498  1.0000
  H   H21       1.0  0.1372062071472584  0.3098156420229187  0.6041818738549977  1.0000
  H   H22       1.0  0.6369351789320348  0.1901311836442616  0.3956230188954279  1.0000
  H   H23       1.0  0.8628026859275836  0.30981565225727087  0.8958207424923116  1.0000
  H   H24       1.0  0.36300607908598437  0.19018735753252256  0.10436953896756758  1.0000
  H   H25       1.0  0.6159033662253536  0.48626344595634663  0.3965384582745343  1.0000
  H   H26       1.0  0.11613147008783639  0.013889782340861198  0.6033019371936632  1.0000
  H   H27       1.0  0.3840546206375778  0.4862121178776276  0.1034473114137668  1.0000
  H   H28       1.0  0.8838720200793873  0.0138797044394252  0.8966985212551464  1.0000
  H   H29       1.0  0.38375635255164303  0.5137660479590521  0.6034217768730059  1.0000
  H   H30       1.0  0.8837216273887664  0.9864456754231412  0.3965750935436744  1.0000
  H   H31       1.0  0.6162543541847755  0.5137715161850877  0.8965730305740536  1.0000
  H   H32       1.0  0.11630556032558559  0.9864077423740696  0.10341710260190239  1.0000
  H   H33       1.0  0.7528845989406605  0.5728831549579921  0.2518121727654759  1.0000
  H   H34       1.0  0.25324754295152724  0.9268000037788011  0.7481235966426424  1.0000
  H   H35       1.0  0.24713971172757002  0.5728850931220889  0.2481797227048617  1.0000
  H   H36       1.0  0.74676226492938  0.9268073908308307  0.7518730696134667  1.0000
  H   H37       1.0  0.24689600752033408  0.4268941165434369  0.7481189185923397  1.0000
  H   H38       1.0  0.7464408130626552  0.07327893219362379  0.25176389131658533  1.0000
  H   H39       1.0  0.7531118701909635  0.42689146012323675  0.7518798987748382  1.0000
  H   H40       1.0  0.2535770262037786  0.07326509357412188  0.24822470524986068  1.0000
  H   H41       1.0  0.7780449538282357  0.7292117115584559  0.466560095721178  1.0000
  H   H42       1.0  0.2782509345699324  0.7707207560989174  0.5334752048866704  1.0000
  H   H43       1.0  0.2219601271666534  0.7292072185341354  0.0334363248693634  1.0000
  H   H44       1.0  0.7217388108490111  0.7707160392428776  0.9665235374474503  1.0000
  H   H45       1.0  0.22177123450899222  0.27059207139435426  0.5334262534463504  1.0000
  H   H46       1.0  0.7215940157304174  0.2294391475388479  0.4665504473957042  1.0000
  H   H47       1.0  0.7782211222170831  0.270598713401725  0.9665804785722898  1.0000
  H   H48       1.0  0.2784015790213488  0.22944314810084168  0.03344967751985449  1.0000
  H   H49       1.0  0.8629494990917053  0.6372569450276514  0.4873322453022553  1.0000
  H   H50       1.0  0.36308486226248954  0.8627298211827535  0.5128240467272249  1.0000
  H   H51       1.0  0.1370482212296125  0.6372616210586556  0.012660821352802998  1.0000
  H   H52       1.0  0.6369084636494976  0.8627248509788216  0.9871768808894853  1.0000
  H   H53       1.0  0.13688861503814562  0.36261275963725126  0.5126622805014449  1.0000
  H   H54       1.0  0.6368348747998808  0.1373433811596882  0.4871724477567908  1.0000
  H   H55       1.0  0.8631050496954417  0.36261883135365736  0.9873419672674115  1.0000
  H   H56       1.0  0.3631669717771189  0.13734906763645677  0.012832109395674298  1.0000
  H   H57       1.0  0.5824810972520992  0.6671983829178102  0.5097970672552136  1.0000
  H   H58       1.0  0.08268171644002112  0.8327423307878161  0.4900970387873968  1.0000
  H   H59       1.0  0.41752323085670895  0.6671959090606093  0.9901995625942701  1.0000
  H   H60       1.0  0.9173155814197217  0.832739882383315  0.0098995508888038  1.0000
  H   H61       1.0  0.4173261313408502  0.3327651878126546  0.49028732358534194  1.0000
  H   H62       1.0  0.9173354938030511  0.16721909116353834  0.5098827547562407  1.0000
  H   H63       1.0  0.5826632048175854  0.33276981253909804  0.0097242549960512  1.0000
  H   H64       1.0  0.08267673163074112  0.16722440537792238  0.9901183638644042  1.0000
  H   H65       1.0  0.877034500159759  0.6584004101237679  0.5822366489085339  1.0000
  H   H66       1.0  0.3770517360046526  0.8415505033496941  0.4178846857943768  1.0000
  H   H67       1.0  0.12296985024249099  0.6583927575627228  0.917762755990452  1.0000
  H   H68       1.0  0.6229478146095176  0.8415493144950544  0.08211613264923297  1.0000
  H   H69       1.0  0.12281806688791619  0.34158394032470335  0.4178419191728722  1.0000
  H   H70       1.0  0.6229375049787435  0.1584123517686109  0.5820892635421515  1.0000
  H   H71       1.0  0.8771697389152562  0.34158514519629785  0.08216999635241248  1.0000
  H   H72       1.0  0.37706944904363127  0.1584135400633571  0.9179115160910313  1.0000
  C   C1        1.0  0.7466109561618097  0.6686917181613692  0.6323039053517973  1.0000
  C   C2        1.0  0.24652010457279522  0.8312458241383637  0.3677031393160775  1.0000
  C   C3        1.0  0.2533895912319437  0.6686905516702383  0.8676938818324869  1.0000
  C   C4        1.0  0.753483243420412  0.8312505607824933  0.1322942390174759  1.0000
  C   C5        1.0  0.2532362933228356  0.33125322275580515  0.36775015009280304  1.0000
  C   C6        1.0  0.7534547693463054  0.16871774760438998  0.6322638026059765  1.0000
  C   C7        1.0  0.7467492656610234  0.331254389973715  0.1322598799856394  1.0000
  C   C8        1.0  0.24654989444961464  0.16871587643747427  0.867736526901318  1.0000
  C   C9        1.0  0.5895433072642505  0.6733504853576803  0.5935250744042477  1.0000
  C   C10       1.0  0.08950641211080068  0.826591648494009  0.4063750506597684  1.0000
  C   C11       1.0  0.4104587405702773  0.6733475399177777  0.906471907788834  1.0000
  C   C12       1.0  0.9104924106982042  0.8265954298743594  0.09362157549260529  1.0000
  C   C13       1.0  0.4103281509610924  0.32660018764811133  0.40655116491825527  1.0000
  C   C14       1.0  0.9104707416571145  0.1733661908028097  0.5936031748777069  1.0000
  C   C15       1.0  0.5896642216909953  0.32659883503661996  0.093460450702409  1.0000
  C   C16       1.0  0.08953542346609569  0.17336670822174235  0.9063971278200282  1.0000
  C   C17       1.0  0.8853281657609956  0.702045666438643  0.293207642005143  1.0000
  C   C18       1.0  0.3855113294858654  0.7978658234853523  0.7067361351344559  1.0000
  C   C19       1.0  0.1146565681324319  0.702028610223415  0.20678776466488805  1.0000
  C   C20       1.0  0.6145002672093581  0.797863317825225  0.7932570075834207  1.0000
  C   C21       1.0  0.1144887009426014  0.29783908638633966  0.7067094532789255  1.0000
  C   C22       1.0  0.6144973580557433  0.2026287071760393  0.2930565133382643  1.0000
  C   C23       1.0  0.8855194530243506  0.29784539260222703  0.7932846735596825  1.0000
  C   C24       1.0  0.38548697867368276  0.2026061296732848  0.20696127347423496  1.0000
  C   C25       1.0  0.8129665154077087  0.6381930106139818  0.3214616241476023  1.0000
  C   C26       1.0  0.3131446655822501  0.8617479916938747  0.6784840507632452  1.0000
  C   C27       1.0  0.187061438476448  0.6382236737043527  0.178536503679382  1.0000
  C   C28       1.0  0.6868592360219736  0.86174837272722  0.8215106606295776  1.0000
  C   C29       1.0  0.18683373266018313  0.3616508992939842  0.678462469578939  1.0000
  C   C30       1.0  0.6866215112931613  0.13841836245304506  0.3213843955076428  1.0000
  C   C31       1.0  0.8131758005879065  0.3616517621279128  0.8215378978318597  1.0000
  C   C32       1.0  0.3133720136062124  0.13842227768272147  0.1786147059771181  1.0000
  C   C33       1.0  0.8094088474393784  0.6429882836483924  0.3759960242105436  1.0000
  C   C34       1.0  0.3095008062462412  0.8569534417836806  0.6239592101425727  1.0000
  C   C35       1.0  0.19062967644499204  0.6430250403474105  0.12400207859577957  1.0000
  C   C36       1.0  0.6904993270978038  0.8569541649096093  0.8760355282430864  1.0000
  C   C37       1.0  0.1904254142025508  0.356806184825089  0.6239323593706844  1.0000
  C   C38       1.0  0.6901898043547446  0.14318926648819996  0.3759169953613295  1.0000
  C   C39       1.0  0.8095841287735226  0.35680955269408077  0.8760672582957766  1.0000
  C   C40       1.0  0.30978934953387244  0.143214335911523  0.1240809066854354  1.0000
  C   C41       1.0  0.7379940852506479  0.588540964026805  0.4028457263288274  1.0000
  C   C42       1.0  0.23806147816409853  0.9114639498112566  0.5970800520395229  1.0000
  C   C43       1.0  0.2620211304115402  0.5885451612982422  0.09715346696609117  1.0000
  C   C44       1.0  0.7619385385326893  0.9114604232253212  0.902916701255819  1.0000
  C   C45       1.0  0.2618485230174059  0.4113072447500698  0.5971126176674346  1.0000
  C   C46       1.0  0.7616782691574072  0.0887217507860782  0.4028078397489168  1.0000
  C   C47       1.0  0.7381616564714903  0.41131092830583776  0.9028866807723687  1.0000
  C   C48       1.0  0.23832518792192303  0.08871739275075188  0.09719038872922428  1.0000
  C   C49       1.0  0.6723964191561436  0.5278695812434008  0.3756009514995995  1.0000
  C   C50       1.0  0.17258945097556477  0.9722149905851579  0.6242894901652177  1.0000
  C   C51       1.0  0.3275947378999504  0.527841587354139  0.12439197627547569  1.0000
  C   C52       1.0  0.827414213734066  0.9722090174572526  0.8757088534986648  1.0000
  C   C53       1.0  0.327332818703482  0.4720832427607745  0.6243503557353164  1.0000
  C   C54       1.0  0.8271495357927918  0.027995072464854293  0.3755941215967269  1.0000
  C   C55       1.0  0.6726787375817482  0.47208830594690454  0.875647030650377  1.0000
  C   C56       1.0  0.1728699205766731  0.027964499227913095  0.1244005768848524  1.0000
  C   C57       1.0  0.6792746394235608  0.5211188586735814  0.3215523081596743  1.0000
  C   C58       1.0  0.17952031553455328  0.9788754158778302  0.6783631942274937  1.0000
  C   C59       1.0  0.3207225848980144  0.5211055666216993  0.1784464969140487  1.0000
  C   C60       1.0  0.8204840886104846  0.9788748301323622  0.821633554336806  1.0000
  C   C61       1.0  0.3204568692026514  0.47879455551758804  0.6784021123892217  1.0000
  C   C62       1.0  0.8202156526896757  0.02123146516700559  0.3215243076167837  1.0000
  C   C63       1.0  0.6795531609019322  0.47879781461637094  0.8215952342212984  1.0000
  C   C64       1.0  0.17979701760440042  0.021194071549821596  0.17847120666642977  1.0000
  C   C65       1.0  0.7489904824493437  0.5769233160497648  0.29403213109821985  1.0000
  C   C66       1.0  0.24925087112652022  0.9229547493371654  0.7058978213946787  1.0000
  C   C67       1.0  0.25102701761463214  0.5769404173787863  0.20595973865177797  1.0000
  C   C68       1.0  0.7507513894118532  0.9229562735115092  0.7941004214665525  1.0000
  C   C69       1.0  0.25076820851382553  0.4229041133621934  0.705900120883399  1.0000
  C   C70       1.0  0.7504609087584981  0.07715356485175558  0.29398578268434505  1.0000
  C   C71       1.0  0.7492404332369914  0.422906356929701  0.794098331011078  1.0000
  C   C72       1.0  0.24955163396335683  0.07713054168275589  0.2060047349800911  1.0000
  C   C73       1.0  0.6112295972807188  0.4527475328129781  0.2933909753123203  1.0000
  C   C74       1.0  0.111500544168301  0.046979361111894505  0.706533453733428  1.0000
  C   C75       1.0  0.38876098224671557  0.4527428695503771  0.2066148426196079  1.0000
  C   C76       1.0  0.8885005985339447  0.046974910179614006  0.793459806885508  1.0000
  C   C77       1.0  0.38847545421964463  0.5469845964692083  0.7065579910750157  1.0000
  C   C78       1.0  0.8883322008813864  0.953103873611326  0.2933906488247331  1.0000
  C   C79       1.0  0.611531401536176  0.5469813762082508  0.7934370096515833  1.0000
  C   C80       1.0  0.11166484276609619  0.9531068896696552  0.20661340575966136  1.0000
  C   C81       1.0  0.7825915271687335  0.6581205759010089  0.4854356449805692  1.0000
  C   C82       1.0  0.28272422657262547  0.8418211984862723  0.5145941311599458  1.0000
  C   C83       1.0  0.21740917442303948  0.658117899738798  0.014560801894745597  1.0000
  C   C84       1.0  0.7172691429118744  0.8418161144658285  0.9854049736755854  1.0000
  C   C85       1.0  0.21724206465760423  0.3417154512114706  0.5145697734584971  1.0000
  C   C86       1.0  0.7171841407779808  0.15827708311547886  0.4853724017912666  1.0000
  C   C87       1.0  0.7827501360318861  0.3417217098630729  0.9854361526186394  1.0000
  C   C88       1.0  0.28281614329139876  0.15828144977615466  0.014627363422747  1.0000
  C   C89       1.0  0.7362828003141785  0.6630076177021563  0.5387813556782602  1.0000
  C   C90       1.0  0.23638102693873714  0.8368826520432433  0.46120528964860336  1.0000
  C   C91       1.0  0.26371926971655313  0.6630024227304503  0.9612152980774622  1.0000
  C   C92       1.0  0.7636170202208347  0.836877764516764  0.0387936103887867  1.0000
  C   C93       1.0  0.2635674453276593  0.3368635196823461  0.46124857873567743  1.0000
  C   C94       1.0  0.7636036621672916  0.16308808519002582  0.5387530956677082  1.0000
  C   C95       1.0  0.736423389888877  0.3368694314689406  0.03875986373037679  1.0000
  C   C96       1.0  0.23640403563206286  0.16309512149855016  0.9612461004974333  1.0000
  C   C97       1.0  0.6311434771144633  0.6683896058702387  0.544029741483328  1.0000
  C   C98       1.0  0.1312329427709145  0.8315180565784813  0.455885100719982  1.0000
  C   C99       1.0  0.3688623620614067  0.6683850367961027  0.9559688271669344  1.0000
  C   C100      1.0  0.8687651148197162  0.83151573443358  0.0441126635534133  1.0000
  C   C101      1.0  0.3687105867361282  0.33153312214335523  0.45603559895518225  1.0000
  C   C102      1.0  0.8687570487671152  0.16843046775647957  0.544084180080162  1.0000
  C   C103      1.0  0.6312779937657068  0.3315348260077612  0.0439736522345555  1.0000
  C   C104      1.0  0.13124988116060618  0.16843708855045483  0.9559145954844792  1.0000
  C   C105      1.0  0.7947928330449302  0.6633023283567211  0.5840582408285683  1.0000
  C   C106      1.0  0.29480666929546123  0.8366121949170449  0.4159736011102382  1.0000
  C   C107      1.0  0.2052115053272416  0.6632974256745711  0.9159399681306936  1.0000
  C   C108      1.0  0.7051944027548841  0.8366100989969354  0.0840264685910128  1.0000
  C   C109      1.0  0.20504910970841186  0.3366254157174993  0.41598102858095837  1.0000
  C   C110      1.0  0.7051810480357544  0.1633449279793666  0.583989453932837  1.0000
  C   C111      1.0  0.7949387025988487  0.33662816920805466  0.0840270253364892  1.0000
  C   C112      1.0  0.2948251377058213  0.1633484562255347  0.9160097402937522  1.0000
  N   N1        1.0  0.6458212530151711  0.673427386139785  0.6371263739346702  1.0000
  N   N2        1.0  0.14571806769545498  0.8265239579822462  0.36281997793882687  1.0000
  N   N3        1.0  0.35418079508194455  0.6734275617101273  0.8628709968651975  1.0000
  N   N4        1.0  0.8542837795552031  0.8265355759929776  0.1371778166741464  1.0000
  N   N5        1.0  0.35403660650283086  0.3265111056313899  0.36295414116638364  1.0000
  N   N6        1.0  0.8542492569576866  0.17345609414746832  0.637154353984748  1.0000
  N   N7        1.0  0.6459497199066746  0.3265137974896246  0.13705708412430787  1.0000
  N   N8        1.0  0.1457546389869648  0.17345235755078642  0.8628443912667192  1.0000
  O   O1        1.0  0.8667446805285761  0.7196802431303124  0.2455049147692989  1.0000
  O   O2        1.0  0.36696480152623673  0.7802262657466058  0.75440734985132  1.0000
  O   O3        1.0  0.13325738916452678  0.7197087791231166  0.2544833903043724  1.0000
  O   O4        1.0  0.633051365645393  0.780231839073728  0.7455835631638833  1.0000
  O   O5        1.0  0.13317949092466816  0.2802088089480249  0.7544017071830424  1.0000
  O   O6        1.0  0.6332040990360994  0.21975092189431675  0.2453795111373296  1.0000
  O   O7        1.0  0.8668234130989276  0.28021753126691346  0.7455940776997636  1.0000
  O   O8        1.0  0.36674769168426014  0.21974247852119783  0.2546280500086908  1.0000
  O   O9        1.0  0.9587812631400039  0.7353451638981383  0.31990077065489686  1.0000
  O   O10       1.0  0.45889513742888965  0.7646177804277342  0.680085691546374  1.0000
  O   O11       1.0  0.041127837784628696  0.7352327580889836  0.1801076472131413  1.0000
  O   O12       1.0  0.5411165302780389  0.7646069989705636  0.8199060898060395  1.0000
  O   O13       1.0  0.04094648186327989  0.2646341719748689  0.680067265925885  1.0000
  O   O14       1.0  0.5416707356524312  0.23637832696502403  0.31988492231720755  1.0000
  O   O15       1.0  0.9590647655809973  0.2646369458670819  0.8199251111006943  1.0000
  O   O16       1.0  0.45837929618741674  0.23632103713228497  0.1801494159347854  1.0000
  O   O17       1.0  0.7256204861206682  0.589819474279153  0.4559220526148166  1.0000
  O   O18       1.0  0.22566084626885896  0.9101252730790748  0.544000738196381  1.0000
  O   O19       1.0  0.27437431977680404  0.5898096566989749  0.04407557097490409  1.0000
  O   O20       1.0  0.7743316167270462  0.9101213845449081  0.9559967988627917  1.0000
  O   O21       1.0  0.2742599348611918  0.4099964898727748  0.544058868427875  1.0000
  O   O22       1.0  0.7741922570261012  0.09005182897340089  0.4558813508717918  1.0000
  O   O23       1.0  0.7257404231779603  0.4100034407171477  0.9559408238696959  1.0000
  O   O24       1.0  0.22580666220250115  0.0900542818616117  0.04411647939353709  1.0000
  O   O25       1.0  0.6435299060576866  0.4196666453227492  0.2503149291066293  1.0000
  O   O26       1.0  0.14334170965236842  0.07984020867719718  0.7498329653456395  1.0000
  O   O27       1.0  0.3564229436324595  0.419620342690031  0.24967784349278327  1.0000
  O   O28       1.0  0.856653313854828  0.07983667783347671  0.7501589336894836  1.0000
  O   O29       1.0  0.3567096618149819  0.5799064094685136  0.7498143323568199  1.0000
  O   O30       1.0  0.8566489502080613  0.9202408766035787  0.2500581128863644  1.0000
  O   O31       1.0  0.6432948563967784  0.5799082896933425  0.7501820309915884  1.0000
  O   O32       1.0  0.14334816620848298  0.9202408225946498  0.24994691246048004  1.0000
  O   O33       1.0  0.5278681502958379  0.432755165028361  0.3157180640013236  1.0000
  O   O34       1.0  0.028045415531643397  0.067383178065576  0.6842375762764447  1.0000
  O   O35       1.0  0.4721708769416395  0.4328066810116338  0.18432017766988906  1.0000
  O   O36       1.0  0.9719594539039277  0.06737382981877718  0.815748951738847  1.0000
  O   O37       1.0  0.4718233437132398  0.5673954240614022  0.6842725273031434  1.0000
  O   O38       1.0  0.971694471323893  0.9326721107453579  0.3157752062963367  1.0000
  O   O39       1.0  0.5281774196619936  0.5673833167480992  0.8157207957751067  1.0000
  O   O40       1.0  0.028264095898151695  0.9327022383952653  0.18424879905919767  1.0000
