data_image0
_chemical_formula_structural       Cd2H14C22N18
_chemical_formula_sum              "Cd2 H14 C22 N18"
_cell_length_a       7.725946234722807
_cell_length_b       9.901619824674777
_cell_length_c       9.478591320333626
_cell_angle_alpha    89.70071149651973
_cell_angle_beta     105.5283917653829
_cell_angle_gamma    111.94887411088939

_space_group_name_H-M_alt    "P 1"
_space_group_IT_number       1

loop_
  _space_group_symop_operation_xyz
  'x, y, z'

loop_
  _atom_site_type_symbol
  _atom_site_label
  _atom_site_symmetry_multiplicity
  _atom_site_fract_x
  _atom_site_fract_y
  _atom_site_fract_z
  _atom_site_occupancy
  Cd  Cd1       1.0  0.8990722880493608  0.1616670154642037  0.2013149841380654  1.0000
  Cd  Cd2       1.0  0.10091908716668019  0.8383324928189211  0.7986861412276057  1.0000
  H   H1        1.0  0.2664401464615054  0.7264032369886737  0.3900730471670003  1.0000
  H   H2        1.0  0.7335518587576928  0.2735974260219152  0.6099208328079941  1.0000
  H   H3        1.0  0.8771799024055013  0.44912563691174506  0.09897023291240001  1.0000
  H   H4        1.0  0.12280802039459361  0.5508672844164125  0.9010322355091988  1.0000
  H   H5        1.0  0.009797624259199729  0.6367515113334009  0.13660883325278667  1.0000
  H   H6        1.0  0.9901922268295068  0.363242514072205  0.8633919511483727  1.0000
  H   H7        1.0  0.5226470748103083  0.7246984284344791  0.6808153521519246  1.0000
  H   H8        1.0  0.4773598632746783  0.2753076547862888  0.31917971441544785  1.0000
  H   H9        1.0  0.5903217511807386  0.5461877506904644  0.853441478561351  1.0000
  H   H10       1.0  0.40969170557298185  0.4538205076671532  0.14655291684801605  1.0000
  H   H11       1.0  0.4036662780419888  0.2800544442214417  0.7874424856308125  1.0000
  H   H12       1.0  0.5963526722150904  0.7199515245590505  0.212560503980626  1.0000
  H   H13       1.0  0.1439648700828826  0.1812099696012979  0.5512334945275941  1.0000
  H   H14       1.0  0.8560504412487758  0.8187993160165733  0.4487686959511736  1.0000
  C   C1        1.0  0.1870866976701251  0.39832372345958333  0.48261969079456446  1.0000
  C   C2        1.0  0.8129123251797665  0.6016801328513993  0.5173831243469992  1.0000
  C   C3        1.0  0.2933079871831196  0.5508702753082773  0.5213356654886852  1.0000
  C   C4        1.0  0.7066952718350522  0.4491313847518157  0.4786649163236875  1.0000
  C   C5        1.0  0.43840485664345163  0.6074296013572182  0.653889138743601  1.0000
  C   C6        1.0  0.5615961354454271  0.3925754017074397  0.3461067262165189  1.0000
  C   C7        1.0  0.47529981278042754  0.5068227474248701  0.7495204162230281  1.0000
  C   C8        1.0  0.5247124494875807  0.4931832697597827  0.25048004411007  1.0000
  C   C9        1.0  0.36926127834635747  0.3557792545528288  0.7124107279640556  1.0000
  C   C10       1.0  0.6307540166051524  0.6442300139945516  0.2875935689791121  1.0000
  C   C11       1.0  0.22332719030136872  0.2989257920119287  0.5791765620771587  1.0000
  C   C12       1.0  0.7766898234770282  0.70107906415587  0.42082916478691623  1.0000
  C   C13       1.0  0.08511007149072464  0.5088867510809436  0.2963016868334237  1.0000
  C   C14       1.0  0.9148926230448992  0.49111382253364877  0.7036977145120035  1.0000
  C   C15       1.0  0.20516999724448948  0.9829905445743422  0.31228547630147574  1.0000
  C   C16       1.0  0.7948254120591899  0.0170089568579215  0.687714428227473  1.0000
  C   C17       1.0  0.5015307792145833  0.9826825871171183  0.3137457094720305  1.0000
  C   C18       1.0  0.4984570397857766  0.0173126260340055  0.686245132655593  1.0000
  C   C19       1.0  0.4898161242222727  0.17793467682786  0.018230704175373095  1.0000
  C   C20       1.0  0.5101941933769752  0.8220702192088538  0.981773546642565  1.0000
  C   C21       1.0  0.18326867873661  0.1698247427745727  0.007505463866131403  1.0000
  C   C22       1.0  0.8167275388896373  0.8301660010575704  0.9924903906929433  1.0000
  N   N1        1.0  0.05865171028564478  0.3754310774517934  0.34158714349678126  1.0000
  N   N2        1.0  0.9413501931165557  0.6245705735115905  0.6584152495707729  1.0000
  N   N3        1.0  0.22268077739773412  0.6166597572770555  0.40181931148391936  1.0000
  N   N4        1.0  0.777320351251191  0.3833429881056105  0.5981839668413543  1.0000
  N   N5        1.0  0.9942563035369789  0.5339433247275879  0.1629783679493642  1.0000
  N   N6        1.0  0.005735072488050638  0.46604848623371703  0.8370238056329671  1.0000
  N   N7        1.0  0.0823681765485986  0.029127751805347706  0.2980321427890261  1.0000
  N   N8        1.0  0.9176254983570402  0.970868447614194  0.7019694865000902  1.0000
  N   N9        1.0  0.3298764793641097  0.9208994491574102  0.3324527191338902  1.0000
  N   N10       1.0  0.670114768290958  0.0790946280211244  0.6675409878510836  1.0000
  N   N11       1.0  0.6609432768231046  0.028390677970214998  0.302827631314564  1.0000
  N   N12       1.0  0.3390523509413724  0.971606651132511  0.6971691542575088  1.0000
  N   N13       1.0  0.6599024629532764  0.2248212916894161  0.036375948026695  1.0000
  N   N14       1.0  0.3400822250826749  0.7751705676760494  0.9636236962772957  1.0000
  N   N15       1.0  0.30318463150021563  0.11317915841830478  0.9912390828339499  1.0000
  N   N16       1.0  0.6968046551059429  0.8868137805418072  0.008760521100263909  1.0000
  N   N17       1.0  0.0586038134205893  0.2084517991319643  0.016348222997564204  1.0000
  N   N18       1.0  0.9413935077915597  0.7915487893072709  0.9836521039753593  1.0000
