data_image0
_chemical_formula_structural       Zn2H12C21SN2O12
_chemical_formula_sum              "Zn2 H12 C21 S1 N2 O12"
_cell_length_a       7.81735788521691
_cell_length_b       8.952493493169774
_cell_length_c       12.745589351912628
_cell_angle_alpha    101.5085618073275
_cell_angle_beta     103.4512752066632
_cell_angle_gamma    88.74122391010714

_space_group_name_H-M_alt    "P 1"
_space_group_IT_number       1

loop_
  _space_group_symop_operation_xyz
  'x, y, z'

loop_
  _atom_site_type_symbol
  _atom_site_label
  _atom_site_symmetry_multiplicity
  _atom_site_fract_x
  _atom_site_fract_y
  _atom_site_fract_z
  _atom_site_occupancy
  Zn  Zn1       1.0  0.8284773658781648  0.5212204173970392  0.5216997416963663  1.0000
  Zn  Zn2       1.0  0.17737407834626137  0.4675050314954134  0.4845051120866087  1.0000
  H   H1        1.0  0.0298667945294397  0.30808695656978813  0.12249704178687887  1.0000
  H   H2        1.0  0.16602717088476027  0.9777479115005718  0.4522613400679915  1.0000
  H   H3        1.0  0.816703293386233  0.2425166292367251  0.6557554794823515  1.0000
  H   H4        1.0  0.3731951316846533  0.7688405527768155  0.7583410502217944  1.0000
  H   H5        1.0  0.4994652110162434  0.32977460658475627  0.462028305428248  1.0000
  H   H6        1.0  0.5024983739260804  0.6458386727254677  0.5256294763664895  1.0000
  H   H7        1.0  0.7363893803103707  0.4899601468672826  0.8038699617227181  1.0000
  H   H8        1.0  0.9170744943343437  0.3306178075002392  0.9262378768111784  1.0000
  H   H9        1.0  0.5651488447807509  0.5138789291776433  0.20363760489703245  1.0000
  H   H10       1.0  0.926098974979915  0.6807089598817271  0.8744481262369559  1.0000
  H   H11       1.0  0.31464263852006985  0.5766943951066353  0.14698221351883936  1.0000
  H   H12       1.0  0.027128786328312098  0.6807537932924818  0.07590434799495677  1.0000
  C   C1        1.0  0.06831694016003809  0.7724725373193878  0.49272482306650983  1.0000
  C   C2        1.0  0.17271675662962588  0.6088025786969807  0.8389787191728927  1.0000
  C   C3        1.0  0.07744794394810132  0.9395640930713894  0.4969525877369775  1.0000
  C   C4        1.0  0.0966165288918006  0.5728630067650046  0.7171988157365661  1.0000
  C   C5        1.0  0.9859844385076925  0.04711325914973937  0.5487110521136244  1.0000
  C   C6        1.0  0.9918994711940741  0.2076636445274289  0.53005506489864  1.0000
  C   C7        1.0  0.8787125990188046  0.4226281176148632  0.29363440900789317  1.0000
  C   C8        1.0  0.8401841567824561  0.37046929337923024  0.9871799158459138  1.0000
  C   C9        1.0  0.8031009220636918  0.4136646949672098  0.17356665864769377  1.0000
  C   C10       1.0  0.06004909103153721  0.6508552910257918  0.9093546666718166  1.0000
  C   C11       1.0  0.11654853242772839  0.6482996770350269  0.02162940948158368  1.0000
  C   C12       1.0  0.40044022327640494  0.5532215967390003  0.9942085537209803  1.0000
  C   C13       1.0  0.280253623790827  0.5920091346449823  0.06197262071756878  1.0000
  C   C14       1.0  0.4717564050945385  0.6790646910562116  0.7480101742101223  1.0000
  C   C15       1.0  0.3506614501271201  0.5764987427165025  0.8840312643898824  1.0000
  C   C16       1.0  0.5716511637187763  0.4895250198803894  0.03125582539460229  1.0000
  C   C17       1.0  0.6799380555294691  0.44390899398644734  0.9544111196722722  1.0000
  C   C18       1.0  0.6377767718559041  0.4953582590915815  0.852646644200554  1.0000
  C   C19       1.0  0.4848483837503679  0.5710286792134197  0.8227976092633964  1.0000
  C   C20       1.0  0.6380795302013098  0.47379254793748526  0.14072780757069128  1.0000
  C   C21       1.0  0.9023208707044859  0.3570648112544887  0.09540092378885126  1.0000
  S   S1        1.0  0.8433738869036136  0.006013554042901537  0.633481100013199  1.0000
  N   N1        1.0  0.4433899764288611  0.43511669544751197  0.4793431924567598  1.0000
  N   N2        1.0  0.5568382695013768  0.5396020523896966  0.5062597386403098  1.0000
  O   O1        1.0  0.9205549754937151  0.7168249250490106  0.49324982744278134  1.0000
  O   O2        1.0  0.9325255702335369  0.9119672842202322  0.7068477755143119  1.0000
  O   O3        1.0  0.83877352419524  0.1706506254702163  0.7090689441175542  1.0000
  O   O4        1.0  0.5723403258155388  0.6884501188576309  0.6880529342332478  1.0000
  O   O5        1.0  0.2074886742605386  0.6985429454206483  0.48506340898213535  1.0000
  O   O6        1.0  0.9298556071046918  0.5711955569121443  0.68505422680969  1.0000
  O   O7        1.0  0.20060064026419164  0.5355749817413908  0.6524472110418243  1.0000
  O   O8        1.0  0.8594467493967458  0.29019590791821764  0.5446322324769566  1.0000
  O   O9        1.0  0.12262758409471529  0.24762473114984834  0.4989222700717732  1.0000
  O   O10       1.0  0.7716808041728455  0.43228926549044644  0.3562697833043344  1.0000
  O   O11       1.0  0.046422074933921906  0.42590661579609457  0.32518791741072306  1.0000
  O   O12       1.0  0.6708592944776511  0.9652414183043375  0.5637949141808389  1.0000
