data_image0
_chemical_formula_structural       Zn2H26C20N10O8
_chemical_formula_sum              "Zn2 H26 C20 N10 O8"
_cell_length_a       8.993965109031997
_cell_length_b       9.676577940487368
_cell_length_c       11.595870965866142
_cell_angle_alpha    109.6482450918187
_cell_angle_beta     90.00023105323797
_cell_angle_gamma    90.00012111878078

_space_group_name_H-M_alt    "P 1"
_space_group_IT_number       1

loop_
  _space_group_symop_operation_xyz
  'x, y, z'

loop_
  _atom_site_type_symbol
  _atom_site_label
  _atom_site_symmetry_multiplicity
  _atom_site_fract_x
  _atom_site_fract_y
  _atom_site_fract_z
  _atom_site_occupancy
  Zn  Zn1       1.0  0.5844652952744056  0.795726070173977  0.9256368339231215  1.0000
  Zn  Zn2       1.0  0.0844670792691602  0.20427245503810101  0.07436068353445792  1.0000
  H   H1        1.0  0.5831772834810778  0.40745265749419  0.0735923127686391  1.0000
  H   H2        1.0  0.083170024339168  0.5925449270116303  0.9264092720193703  1.0000
  H   H3        1.0  0.45712142215207757  0.5891102326552159  0.7513229985197114  1.0000
  H   H4        1.0  0.9571262742466831  0.4108884023943987  0.2486731418220316  1.0000
  H   H5        1.0  0.4427185319286621  0.7402888416927099  0.7206563681859777  1.0000
  H   H6        1.0  0.9427165110029776  0.25970977511364884  0.279340584476472  1.0000
  H   H7        1.0  0.7366656982312209  0.47567396745667173  0.4420869759474328  1.0000
  H   H8        1.0  0.2366618976616763  0.5243274442923893  0.5579160818025599  1.0000
  H   H9        1.0  0.5798299761575693  0.08025053929037541  0.8337778764365281  1.0000
  H   H10       1.0  0.0798328494327905  0.919751388773783  0.1662239537615663  1.0000
  H   H11       1.0  0.9050291090239854  0.9158123313894395  0.014317293786767542  1.0000
  H   H12       1.0  0.405029835409529  0.0841873147398786  0.9856815298652961  1.0000
  H   H13       1.0  0.7071256598308366  0.3295948306736705  0.844124591656744  1.0000
  H   H14       1.0  0.20712787988855302  0.6704085108237408  0.15587455565471936  1.0000
  H   H15       1.0  0.904400182158831  0.32954518732299937  0.851369536522192  1.0000
  H   H16       1.0  0.404402364251986  0.6704544887411997  0.1486301555921088  1.0000
  H   H17       1.0  0.4930843352293904  0.5601516626351926  0.3070275258301934  1.0000
  H   H18       1.0  0.9930793617538213  0.4398428714300024  0.6929719860882244  1.0000
  H   H19       1.0  0.5305846929999658  0.37071895764196233  0.2628271962536389  1.0000
  H   H20       1.0  0.030576527427243108  0.6292785072241928  0.7371759162781757  1.0000
  H   H21       1.0  0.910469016443585  0.46557279168438015  0.06509002843750983  1.0000
  H   H22       1.0  0.4104627742517764  0.534427809641173  0.9349047447691704  1.0000
  H   H23       1.0  0.6894324440985001  0.5323146228352229  0.659907627974178  1.0000
  H   H24       1.0  0.18943181002350679  0.46768775273400126  0.3400963908562318  1.0000
  H   H25       1.0  0.7085087690534452  0.7117689569143976  0.6541093398951147  1.0000
  H   H26       1.0  0.2085088463287903  0.288231291672119  0.345894191641456  1.0000
  C   C1        1.0  0.6803185966752211  0.07585992856351001  0.8843006109967603  1.0000
  C   C2        1.0  0.1803234386479886  0.9241422866207643  0.11569988662094491  1.0000
  C   C3        1.0  0.5481240639569834  0.5814397821960712  0.5257470371233738  1.0000
  C   C4        1.0  0.048118457783012  0.41856519699334177  0.4742520273159911  1.0000
  C   C5        1.0  0.8461633717926702  0.9909514629479123  0.9789796207336111  1.0000
  C   C6        1.0  0.34616218283787253  0.009048977791223899  0.0210166325019969  1.0000
  C   C7        1.0  0.7827459449854643  0.5960823692954593  0.9849270589493742  1.0000
  C   C8        1.0  0.2827401138403046  0.4039257846444145  0.01507788163490184  1.0000
  C   C9        1.0  0.8024463853369285  0.3224973331527822  0.9014930961303945  1.0000
  C   C10       1.0  0.30244720903031924  0.6774997284546843  0.09850387348230075  1.0000
  C   C11       1.0  0.5807763674037503  0.4799599751761152  0.3046492105234506  1.0000
  C   C12       1.0  0.0807710552185057  0.5200365362251347  0.6953529529948455  1.0000
  C   C13       1.0  0.7925651953380708  0.17844764669417398  0.9217008832011614  1.0000
  C   C14       1.0  0.2925673706340389  0.8215527351595285  0.07829863573341102  1.0000
  C   C15       1.0  0.8019138763075374  0.45761438898451706  0.020378962905802198  1.0000
  C   C16       1.0  0.3019101119642825  0.5423860255484386  0.9796205941095977  1.0000
  C   C17       1.0  0.6271151874380863  0.6252367544000921  0.6499380304691726  1.0000
  C   C18       1.0  0.1271143825971279  0.3747642742876992  0.35006458090308007  1.0000
  C   C19       1.0  0.7106543845130205  0.49891164715673153  0.22636638360501143  1.0000
  C   C20       1.0  0.2106527738559123  0.5010896093790864  0.7736348261176289  1.0000
  N   N1        1.0  0.6888015696604413  0.44447357407280197  0.10509945660178488  1.0000
  N   N2        1.0  0.1887973915726988  0.5555243797760384  0.8949025585782238  1.0000
  N   N3        1.0  0.5184537631417001  0.6793966912217115  0.7496231308453574  1.0000
  N   N4        1.0  0.0184556398250422  0.32060276427444734  0.2503761421927493  1.0000
  N   N5        1.0  0.8975979395729041  0.12312458181793325  0.9823870827981979  1.0000
  N   N6        1.0  0.3975988168932432  0.8768750061954905  0.017610839552546196  1.0000
  N   N7        1.0  0.7148629138753222  0.9575743440571074  0.9207306252701456  1.0000
  N   N8        1.0  0.21486767053732336  0.04242789552399981  0.0792674000387521  1.0000
  N   N9        1.0  0.6301687324429038  0.5053948083180373  0.4287392775125198  1.0000
  N   N10       1.0  0.1301615950796418  0.4946061989045418  0.5712624752671118  1.0000
  O   O1        1.0  0.649119764490017  0.646798694957255  0.9953868771753278  1.0000
  O   O2        1.0  0.14912265137287764  0.35319663727620565  0.0046065721053523325  1.0000
  O   O3        1.0  0.8295431921098738  0.5577521845147048  0.27509925596327633  1.0000
  O   O4        1.0  0.32954007213242414  0.44224729404995605  0.7249018731654501  1.0000
  O   O5        1.0  0.4169016571416293  0.620690328198407  0.5184566793665795  1.0000
  O   O6        1.0  0.9168943151066458  0.3793103598813303  0.48153986209274535  1.0000
  O   O7        1.0  0.8916066731371756  0.6465320874317654  0.9445615265615573  1.0000
  O   O8        1.0  0.391606492268579  0.3534687371317915  0.05544100899690819  1.0000
