data_image0
_chemical_formula_structural       Cu2H20C14N10Cl2O10
_chemical_formula_sum              "Cu2 H20 C14 N10 Cl2 O10"
_cell_length_a       6.572692842505519
_cell_length_b       9.030370679164413
_cell_length_c       10.975830775420652
_cell_angle_alpha    104.61352658380075
_cell_angle_beta     103.30976562110472
_cell_angle_gamma    103.56283702451834

_space_group_name_H-M_alt    "P 1"
_space_group_IT_number       1

loop_
  _space_group_symop_operation_xyz
  'x, y, z'

loop_
  _atom_site_type_symbol
  _atom_site_label
  _atom_site_symmetry_multiplicity
  _atom_site_fract_x
  _atom_site_fract_y
  _atom_site_fract_z
  _atom_site_occupancy
  Cu  Cu1       1.0  0.1994237641834715  0.6607779789350586  0.2236829254257629  1.0000
  Cu  Cu2       1.0  0.800578060410814  0.3392192072153364  0.776316312795352  1.0000
  H   H1        1.0  0.5537048281240617  0.6027473712438081  0.6157152081551448  1.0000
  H   H2        1.0  0.4462905031689458  0.3972532620277462  0.3842865689851963  1.0000
  H   H3        1.0  0.4541284760082576  0.5774179794624744  0.7487793856865824  1.0000
  H   H4        1.0  0.5458571288037889  0.42257785803082726  0.2512180307325878  1.0000
  H   H5        1.0  0.6369315551052779  0.7689301201670204  0.7647708785303423  1.0000
  H   H6        1.0  0.3630679029563098  0.2310729417193542  0.23523206387432796  1.0000
  H   H7        1.0  0.7312102242456433  0.9255342387261861  0.5834984311389848  1.0000
  H   H8        1.0  0.2687940426397688  0.0744644511682679  0.41649421810889464  1.0000
  H   H9        1.0  0.7215947472767043  0.8479613751338279  0.4161540698259787  1.0000
  H   H10       1.0  0.27841547294480046  0.15204077678494338  0.5838448095717724  1.0000
  H   H11       1.0  0.4148847354524108  0.7691008391556906  0.885229856840127  1.0000
  H   H12       1.0  0.5851074463020396  0.23089610065005667  0.11477243988738912  1.0000
  H   H13       1.0  0.0855778730763672  0.9367697813840079  0.9217513030395639  1.0000
  H   H14       1.0  0.9144123542180369  0.0632296881237195  0.07824762398494305  1.0000
  H   H15       1.0  0.2659589268337185  0.8887808185343644  0.043893815421135816  1.0000
  H   H16       1.0  0.7340383257535095  0.11122092050585759  0.9561112337033963  1.0000
  H   H17       1.0  0.31988767102246374  0.48159109216677354  0.0646557735266597  1.0000
  H   H18       1.0  0.6801104751536685  0.5184048325888424  0.9353435412218049  1.0000
  H   H19       1.0  0.5381915351829676  0.64179633064267  0.14452212345641172  1.0000
  H   H20       1.0  0.4618087075432697  0.3581971729497155  0.8554778716430393  1.0000
  C   C1        1.0  0.21085976267950454  0.7865699532839229  0.7235019668746149  1.0000
  C   C2        1.0  0.7891347808368964  0.213432089556953  0.27649453961152665  1.0000
  C   C3        1.0  0.9570580509356432  0.811217146667147  0.5522058519897401  1.0000
  C   C4        1.0  0.0429508889074341  0.1887933601460006  0.44779562937222306  1.0000
  C   C5        1.0  0.05703216904919367  0.7380053684882597  0.4581543376210676  1.0000
  C   C6        1.0  0.9429766113943289  0.2619932094112372  0.5418426093029896  1.0000
  C   C7        1.0  0.24541975102393818  0.6863390514699858  0.5060881117177731  1.0000
  C   C8        1.0  0.7545725427667094  0.3136697810698336  0.49391961589832095  1.0000
  C   C9        1.0  0.5015491858654215  0.6626133282275788  0.6968600957273383  1.0000
  C   C10       1.0  0.4984400026380697  0.3373836983013304  0.3031390370658329  1.0000
  C   C11       1.0  0.16081460272196327  0.8450971877733835  0.9403308572738073  1.0000
  C   C12       1.0  0.839184454352555  0.15490474307253518  0.05966994688851198  1.0000
  C   C13       1.0  0.9803767377611691  0.6891233185060129  0.9187439776363893  1.0000
  C   C14       1.0  0.019619108213902257  0.3108712110442937  0.08125923673328124  1.0000
  N   N1        1.0  0.3130143467251044  0.7106037523833065  0.6414700656946979  1.0000
  N   N2        1.0  0.6869878267221524  0.2894055073990601  0.3585301211616213  1.0000
  N   N3        1.0  0.03628793755291322  0.8310276630055142  0.6811567931849823  1.0000
  N   N4        1.0  0.9637186184479772  0.1689768991687046  0.3188411685706144  1.0000
  N   N5        1.0  0.7901557711476813  0.8645633535621755  0.5139299078195736  1.0000
  N   N6        1.0  0.20984398529157025  0.1354435970519035  0.48606666171155427  1.0000
  N   N7        1.0  0.9954642022482929  0.7164602731917853  0.3277341010861009  1.0000
  N   N8        1.0  0.004544497666053379  0.28354190399877405  0.6722636445698102  1.0000
  N   N9        1.0  0.2948726513046011  0.8166334479560999  0.854217343049257  1.0000
  N   N10       1.0  0.7051284407591325  0.18336235389676858  0.14578603208422444  1.0000
  Cl  Cl1       1.0  0.40387038563832794  0.921501471834084  0.29186095944305646  1.0000
  Cl  Cl2       1.0  0.5961284125391799  0.07849943651012128  0.7081350171248888  1.0000
  O   O1        1.0  0.8269189173413167  0.7480422344488035  0.2732349445047222  1.0000
  O   O2        1.0  0.17308423022400632  0.2519576117579021  0.7267587092436758  1.0000
  O   O3        1.0  0.34059954780268226  0.6222772252513022  0.4325845491672738  1.0000
  O   O4        1.0  0.659420749411538  0.3777226685819173  0.5674135076852453  1.0000
  O   O5        1.0  0.8317914383050321  0.6991142819519851  0.9725932645043118  1.0000
  O   O6        1.0  0.1682019574962084  0.300881573900682  0.027406234821342055  1.0000
  O   O7        1.0  0.0012699069981039093  0.5612060847309125  0.8468827772158111  1.0000
  O   O8        1.0  0.9987378093713845  0.4387908556139948  0.15312458177533741  1.0000
  O   O9        1.0  0.3787544419647587  0.6046499046159893  0.10040432811035771  1.0000
  O   O10       1.0  0.6212467921890337  0.3953460057756288  0.8995963576711008  1.0000
