data_image0
_chemical_formula_structural       Cd2H40C34N8O10
_chemical_formula_sum              "Cd2 H40 C34 N8 O10"
_cell_length_a       9.000590598020628
_cell_length_b       9.280385420137042
_cell_length_c       10.957599160656915
_cell_angle_alpha    96.16240757048249
_cell_angle_beta     90.00022652926732
_cell_angle_gamma    89.99988171906175

_space_group_name_H-M_alt    "P 1"
_space_group_IT_number       1

loop_
  _space_group_symop_operation_xyz
  'x, y, z'

loop_
  _atom_site_type_symbol
  _atom_site_label
  _atom_site_symmetry_multiplicity
  _atom_site_fract_x
  _atom_site_fract_y
  _atom_site_fract_z
  _atom_site_occupancy
  Cd  Cd1       1.0  0.6769072850518896  0.4631910968630564  0.4499283829025841  1.0000
  Cd  Cd2       1.0  0.3230922898812665  0.9631902265053824  0.9499296539349232  1.0000
  H   H1        1.0  0.087021512695749  0.590454393902199  0.4903477833605834  1.0000
  H   H2        1.0  0.9129768248526914  0.09045334088493463  0.9903458429680895  1.0000
  H   H3        1.0  0.0883792804280645  0.338619094388946  0.4124596983995588  1.0000
  H   H4        1.0  0.9116214888491996  0.8386215896743677  0.9124604268910587  1.0000
  H   H5        1.0  0.5370953245670194  0.9444310794075863  0.19055315770860656  1.0000
  H   H6        1.0  0.4629052616254654  0.44442643660005376  0.6905521883632275  1.0000
  H   H7        1.0  0.5267977113421694  0.8435793020762433  0.3950652799727266  1.0000
  H   H8        1.0  0.47320296356011227  0.34357898333770004  0.8950656309393636  1.0000
  H   H9        1.0  0.0651523795808515  0.7453252777349634  0.3227262691374619  1.0000
  H   H10       1.0  0.9348470436984396  0.2453296250044374  0.8227276049135666  1.0000
  H   H11       1.0  0.09554090203761231  0.8456075507834484  0.12021005485906498  1.0000
  H   H12       1.0  0.9044606654380587  0.34560760650742856  0.6202100081473887  1.0000
  H   H13       1.0  0.3896816352515203  0.7139452682170742  0.5378670939144782  1.0000
  H   H14       1.0  0.6103198141950159  0.2139462463751443  0.0378656167981219  1.0000
  H   H15       1.0  0.2157552317852733  0.802954637696203  0.5607729392252239  1.0000
  H   H16       1.0  0.7842450284656478  0.302954272819008  0.060775558972110795  1.0000
  H   H17       1.0  0.2176286234734306  0.12845394008128613  0.33953486168472574  1.0000
  H   H18       1.0  0.7823711284920519  0.6284566390291104  0.8395342770577583  1.0000
  H   H19       1.0  0.39104387690404246  0.21765457070669916  0.3648917878079345  1.0000
  H   H20       1.0  0.6089546972638189  0.717654287867333  0.8648885587660828  1.0000
  H   H21       1.0  0.09182910409693791  0.0645350315128184  0.7736364527237071  1.0000
  H   H22       1.0  0.9081726876650864  0.5645347272608346  0.2736363689662084  1.0000
  H   H23       1.0  0.06159271558329488  0.16449916249904814  0.5708105958374502  1.0000
  H   H24       1.0  0.9384078864389306  0.6645009768775978  0.0708107933254496  1.0000
  H   H25       1.0  0.53140292466378  0.10017918050554189  0.512618082771823  1.0000
  H   H26       1.0  0.4685986441116298  0.6001817554620956  0.012616826248873307  1.0000
  H   H27       1.0  0.5414918038646164  0.9991333516242162  0.7174160553301974  1.0000
  H   H28       1.0  0.45850990696460775  0.4991356649192867  0.2174151153164274  1.0000
  H   H29       1.0  0.9494480266857365  0.9141377907439718  0.5391969422532199  1.0000
  H   H30       1.0  0.05055078288743429  0.4141385857428689  0.039192725777105905  1.0000
  H   H31       1.0  0.9495939943207927  0.8411244820379764  0.6820059005656773  1.0000
  H   H32       1.0  0.0504056585209298  0.3411242102258285  0.18200432911656605  1.0000
  H   H33       1.0  0.795048368893866  0.9473626953557281  0.6409840551615102  1.0000
  H   H34       1.0  0.20494863897054222  0.44736108398006275  0.1409819550720712  1.0000
  H   H35       1.0  0.8647281462090601  0.04443310941486799  0.2049179363493607  1.0000
  H   H36       1.0  0.13527002371223765  0.5444325431227454  0.7049186260940131  1.0000
  H   H37       1.0  0.7962919716458146  0.9572215884134323  0.3300453166357329  1.0000
  H   H38       1.0  0.2037070379206369  0.45722062217250686  0.8300447397093578  1.0000
  H   H39       1.0  0.9806497535882741  0.031996581090091104  0.3344638679721541  1.0000
  H   H40       1.0  0.0193512893586174  0.5319972806705949  0.8344633796867454  1.0000
  C   C1        1.0  0.4350910353078064  0.8982464463232772  0.2234004799818692  1.0000
  C   C2        1.0  0.5649086960740989  0.3982448730071654  0.7233973685190449  1.0000
  C   C3        1.0  0.42840180569847053  0.8440089475744588  0.3370359103659837  1.0000
  C   C4        1.0  0.5715963664231082  0.34401062038056557  0.8370340142105944  1.0000
  C   C5        1.0  0.29459185050569653  0.7870073089083858  0.37537149549839904  1.0000
  C   C6        1.0  0.7054044051596904  0.28700550814004083  0.8753688188601743  1.0000
  C   C7        1.0  0.1721352511424428  0.7878051971487353  0.2965954197139666  1.0000
  C   C8        1.0  0.8278650671763826  0.28780647182458097  0.796597055991448  1.0000
  C   C9        1.0  0.1878516688134297  0.8428477739320358  0.18441962898951658  1.0000
  C   C10       1.0  0.812146880975547  0.342849057309671  0.6844184773117021  1.0000
  C   C11       1.0  0.27950875498659405  0.7262213641482731  0.49762365091972055  1.0000
  C   C12       1.0  0.7204926630670913  0.2262249634872902  0.9976224032463888  1.0000
  C   C13       1.0  0.2798833410681638  0.4650246830230885  0.45177575356851907  1.0000
  C   C14       1.0  0.7201262382354444  0.9650242592834317  0.9517792603015137  1.0000
  C   C15       1.0  0.2807978882463615  0.20369644732277686  0.40443072048653755  1.0000
  C   C16       1.0  0.7192009061382977  0.703697080957049  0.9044297526870151  1.0000
  C   C17       1.0  0.1858683303243893  0.0747495409196759  0.712470977856043  1.0000
  C   C18       1.0  0.8141331448827742  0.5747526402778433  0.21247088456010488  1.0000
  C   C19       1.0  0.17032235512288452  0.1295479442965615  0.6002174135520661  1.0000
  C   C20       1.0  0.8296795737806875  0.6295477615366778  0.1002161737625755  1.0000
  C   C21       1.0  0.2953095175844282  0.14020013793763297  0.5255976979574726  1.0000
  C   C22       1.0  0.7046909179367519  0.6402023418439953  0.025598998324611003  1.0000
  C   C23       1.0  0.4313629638713436  0.0923201356509011  0.5676703229885971  1.0000
  C   C24       1.0  0.5686377759548902  0.5923192972836018  0.06766909457395087  1.0000
  C   C25       1.0  0.4377439876245433  0.03785983551610169  0.681186096094244  1.0000
  C   C26       1.0  0.5622563038720828  0.5378600856881518  0.18118402866081595  1.0000
  C   C27       1.0  0.8064542880556118  0.7301025642285169  0.5459050695938997  1.0000
  C   C28       1.0  0.1935460548721366  0.23010314447573418  0.045904034982441985  1.0000
  C   C29       1.0  0.803821249814959  0.19145434586271648  0.35990716901676467  1.0000
  C   C30       1.0  0.196176244812527  0.6914526027598669  0.859908866530219  1.0000
  C   C31       1.0  0.8782284666981681  0.8671968546724499  0.6060396660324512  1.0000
  C   C32       1.0  0.12177076462711507  0.3671964617455075  0.10603740234740398  1.0000
  C   C33       1.0  0.8656772127866718  0.04694602683083819  0.3055575578904808  1.0000
  C   C34       1.0  0.13432365911938862  0.5469443838642717  0.8055590639715504  1.0000
  N   N1        1.0  0.3173619137629373  0.8964702260498784  0.1477517764785574  1.0000
  N   N2        1.0  0.682640789762388  0.39646955150966784  0.647750036317845  1.0000
  N   N3        1.0  0.2018328608076274  0.5882434639179764  0.4866274423209305  1.0000
  N   N4        1.0  0.7981643524474862  0.0882469375103909  0.986626435039696  1.0000
  N   N5        1.0  0.20264957091337268  0.34137188279095904  0.41837837122180593  1.0000
  N   N6        1.0  0.7973489989852709  0.8413723787485665  0.9183758190746828  1.0000
  N   N7        1.0  0.3176298284981272  0.030631213960155904  0.7530705061082728  1.0000
  N   N8        1.0  0.6823719359411129  0.5306334372568811  0.25306899808656164  1.0000
  O   O1        1.0  0.41973527191284876  0.4657970326234917  0.450911063974523  1.0000
  O   O2        1.0  0.5802654132747307  0.9657957403464652  0.9509122178245377  1.0000
  O   O3        1.0  0.666187926122312  0.7217616091620369  0.5377028433128501  1.0000
  O   O4        1.0  0.3338123949351868  0.22176087854143128  0.03770214897630099  1.0000
  O   O5        1.0  0.8921086794772958  0.624973034991463  0.5047764969374454  1.0000
  O   O6        1.0  0.1078916879110636  0.1249748265328066  0.0047734648613513  1.0000
  O   O7        1.0  0.6639148850775741  0.20581980737986066  0.37031980468800896  1.0000
  O   O8        1.0  0.3360837403544323  0.7058167539910443  0.870321841364003  1.0000
  O   O9        1.0  0.8940530714216735  0.2959491764593095  0.39132280837756644  1.0000
  O   O10       1.0  0.1059465753259303  0.7959486576403022  0.8913234073669898  1.0000
