data_image0
_chemical_formula_structural       Ag4H40C52S4N12O16
_chemical_formula_sum              "Ag4 H40 C52 S4 N12 O16"
_cell_length_a       6.976000148825354
_cell_length_b       8.418593261270756
_cell_length_c       24.42171834102485
_cell_angle_alpha    90.00009596017553
_cell_angle_beta     89.99983605148631
_cell_angle_gamma    110.00899415031152

_space_group_name_H-M_alt    "P 1"
_space_group_IT_number       1

loop_
  _space_group_symop_operation_xyz
  'x, y, z'

loop_
  _atom_site_type_symbol
  _atom_site_label
  _atom_site_symmetry_multiplicity
  _atom_site_fract_x
  _atom_site_fract_y
  _atom_site_fract_z
  _atom_site_occupancy
  Ag  Ag1       1.0  0.6014803788114094  0.6212976597457143  0.4544589399964352  1.0000
  Ag  Ag2       1.0  0.8985217879420875  0.8787027278682374  0.9544572857596735  1.0000
  Ag  Ag3       1.0  0.39852210165778257  0.3787035168792984  0.5455434545927602  1.0000
  Ag  Ag4       1.0  0.10147679336049722  0.12129590425495713  0.045541833057654905  1.0000
  H   H1        1.0  0.4419904783482451  0.11797443078923213  0.2480954118184684  1.0000
  H   H2        1.0  0.05801579073411036  0.38202677051808115  0.7480940483473973  1.0000
  H   H3        1.0  0.5580083060027975  0.8820317698497109  0.7519057543589727  1.0000
  H   H4        1.0  0.9419914114341167  0.617971910340181  0.2519046609946899  1.0000
  H   H5        1.0  0.3245191484606665  0.806336637538756  0.260123073165353  1.0000
  H   H6        1.0  0.17547732461419233  0.6936641354076726  0.7601223182783771  1.0000
  H   H7        1.0  0.6754771735237456  0.19366702672380137  0.739877274069201  1.0000
  H   H8        1.0  0.8245260799000889  0.30633578520971844  0.2398768005372816  1.0000
  H   H9        1.0  0.2648363610497172  0.6784299616267334  0.35264685337073604  1.0000
  H   H10       1.0  0.23515448505665418  0.8215697362881189  0.8526457135808557  1.0000
  H   H11       1.0  0.7351560617520794  0.32157115813826226  0.6473539033363169  1.0000
  H   H12       1.0  0.7648450202750183  0.1784276398317104  0.14735381470730863  1.0000
  H   H13       1.0  0.31586968838666263  0.8617416019971317  0.43629865701262105  1.0000
  H   H14       1.0  0.18412525424273715  0.6382595774067001  0.9362978622210109  1.0000
  H   H15       1.0  0.6841218103860457  0.13826077377122906  0.5637016902235957  1.0000
  H   H16       1.0  0.8158785615208686  0.36173782308090113  0.0637016660653273  1.0000
  H   H17       1.0  0.8408895704206429  0.998034064290181  0.47759122810019516  1.0000
  H   H18       1.0  0.659113319407183  0.501965120690194  0.9775907838797623  1.0000
  H   H19       1.0  0.1591128085287608  0.0019633280757745003  0.5224091191299466  1.0000
  H   H20       1.0  0.3408895723255512  0.4980335358012482  0.022408744407336204  1.0000
  H   H21       1.0  0.03897525654506501  0.30141070087450567  0.3324852758713277  1.0000
  H   H22       1.0  0.4610211457933104  0.1985893822684446  0.8324842816873642  1.0000
  H   H23       1.0  0.9610209639071173  0.6985891791322987  0.6675158903053457  1.0000
  H   H24       1.0  0.5389712770191581  0.801411737493716  0.16751401819010434  1.0000
  H   H25       1.0  0.9243730692317131  0.032061139603278804  0.2778998005643629  1.0000
  H   H26       1.0  0.5756297523583385  0.46793797579635327  0.7778997010692523  1.0000
  H   H27       1.0  0.07562746165773149  0.9679387647698833  0.7221001371957031  1.0000
  H   H28       1.0  0.424369854502011  0.5320631845801742  0.22209982721997082  1.0000
  H   H29       1.0  0.7671296572434871  0.758571399279184  0.3270596027820929  1.0000
  H   H30       1.0  0.7328783379150678  0.7414261986478011  0.8270584178193092  1.0000
  H   H31       1.0  0.23287559532720797  0.24142600933194566  0.6729407444468337  1.0000
  H   H32       1.0  0.2671317378744433  0.2585724984556351  0.17294029152156307  1.0000
  H   H33       1.0  0.008022152965793337  0.5619025905282414  0.4530849875405708  1.0000
  H   H34       1.0  0.49197356786763907  0.9380973716006055  0.9530849268381019  1.0000
  H   H35       1.0  0.9919721178977458  0.43809601722907854  0.5469157691649613  1.0000
  H   H36       1.0  0.5080246021838449  0.06190378065286241  0.0469141919801359  1.0000
  H   H37       1.0  0.9396378028135928  0.469190666753697  0.3882918271193816  1.0000
  H   H38       1.0  0.5603603636608199  0.03081372735147881  0.8882943499151139  1.0000
  H   H39       1.0  0.06036231683186337  0.5308117577478341  0.6117064727552091  1.0000
  H   H40       1.0  0.43963647109979587  0.9691912010384486  0.11170681626278173  1.0000
  C   C1        1.0  0.44780147153504407  0.1607352528663739  0.33592789832911774  1.0000
  C   C2        1.0  0.052196850485650335  0.3392661104686212  0.8359273335970131  1.0000
  C   C3        1.0  0.5521943376660304  0.8392671472707037  0.6640732678484724  1.0000
  C   C4        1.0  0.9478031676257999  0.6607325297776397  0.1640721946913005  1.0000
  C   C5        1.0  0.4174243741133026  0.06299364288675241  0.28893528417522424  1.0000
  C   C6        1.0  0.08257959059712056  0.43700638039480577  0.7889347511312792  1.0000
  C   C7        1.0  0.5825757455232579  0.9370087816171451  0.7110650630573546  1.0000
  C   C8        1.0  0.9174270987877691  0.5629910363379692  0.21106477715385102  1.0000
  C   C9        1.0  0.34946959203428923  0.8873640381831436  0.29612628599934965  1.0000
  C   C10       1.0  0.1505274923152768  0.6126355618215767  0.7961242762284971  1.0000
  C   C11       1.0  0.6505252931341374  0.11263961795824431  0.703875289650597  1.0000
  C   C12       1.0  0.849475810672118  0.387360574538647  0.20387443311449263  1.0000
  C   C13       1.0  0.31347290489735263  0.8153362149892446  0.3484178503344424  1.0000
  C   C14       1.0  0.18652280116022274  0.6846647616624821  0.8484162618451735  1.0000
  C   C15       1.0  0.6865224930544046  0.18466870527762322  0.6515829063724681  1.0000
  C   C16       1.0  0.8134800905760714  0.31533389482800805  0.15158244749873262  1.0000
  C   C17       1.0  0.3435584451901193  0.916560948472288  0.3953609195725534  1.0000
  C   C18       1.0  0.15643685306559973  0.5834401364839081  0.8953605255125299  1.0000
  C   C19       1.0  0.6564369527651978  0.08344397179363483  0.6046390181911577  1.0000
  C   C20       1.0  0.843566962698006  0.4165572640036929  0.10463900277380841  1.0000
  C   C21       1.0  0.41217554756129  0.09130008750535272  0.38854949737584127  1.0000
  C   C22       1.0  0.08782375414902083  0.40870140535493965  0.8885477148279793  1.0000
  C   C23       1.0  0.5878198503869072  0.9087048327624603  0.6114520782742616  1.0000
  C   C24       1.0  0.9121800616163612  0.5912959951321852  0.11145140398676291  1.0000
  C   C25       1.0  0.45204248821467985  0.22508446963957604  0.4314621431106361  1.0000
  C   C26       1.0  0.04795839028960812  0.2749183944774316  0.9314631820345414  1.0000
  C   C27       1.0  0.54795773295767  0.7749217391191295  0.5685365662366166  1.0000
  C   C28       1.0  0.9520430646271479  0.7250802538928343  0.06853757466795682  1.0000
  C   C29       1.0  0.8623529219097463  0.0096669745420641  0.43349452279232287  1.0000
  C   C30       1.0  0.6376524472025907  0.49033504433057845  0.9334943838569033  1.0000
  C   C31       1.0  0.13765294497294908  0.9903354824512437  0.5665050054946336  1.0000
  C   C32       1.0  0.3623529069021104  0.5096661485358355  0.0665047349583006  1.0000
  C   C33       1.0  0.946144341831527  0.16957745963302534  0.4096272538372291  1.0000
  C   C34       1.0  0.553853025007797  0.33042193530829433  0.9096262730300282  1.0000
  C   C35       1.0  0.05385280265151967  0.830421164369945  0.5903739123386844  1.0000
  C   C36       1.0  0.4461398090522125  0.6695766643245522  0.09037284578972302  1.0000
  C   C37       1.0  0.9692583652930012  0.17991013077966042  0.35267138587568075  1.0000
  C   C38       1.0  0.5307428827238638  0.3200904131299751  0.8526708280696766  1.0000
  C   C39       1.0  0.03074165281310579  0.8200885094680146  0.6473293708274213  1.0000
  C   C40       1.0  0.4692558001056142  0.6799120032503865  0.1473287002203136  1.0000
  C   C41       1.0  0.9074209511373471  0.030985384220315403  0.32228489061888155  1.0000
  C   C42       1.0  0.5925833329409046  0.4690113215726869  0.8222843679047784  1.0000
  C   C43       1.0  0.09258245336982912  0.9690145363989658  0.6777158660831617  1.0000
  C   C44       1.0  0.40741760920141  0.530986062669733  0.1777151603827747  1.0000
  C   C45       1.0  0.8208666403202333  0.8775819516295729  0.34954042456694623  1.0000
  C   C46       1.0  0.679138798706731  0.6224169460440195  0.8495388057537809  1.0000
  C   C47       1.0  0.17913625140716505  0.12241670486327651  0.6504603321349479  1.0000
  C   C48       1.0  0.3208655298419886  0.37758171856859246  0.15045949411792492  1.0000
  C   C49       1.0  0.9989699673805957  0.318733783811382  0.4469362797954589  1.0000
  C   C50       1.0  0.5010282024258501  0.18127200971991903  0.9469389413601166  1.0000
  C   C51       1.0  0.0010268673924756716  0.6812711445752414  0.5530620200812564  1.0000
  C   C52       1.0  0.49897294276136256  0.8187329430391942  0.053063453230755904  1.0000
  S   S1        1.0  0.5315570522850308  0.38340930095754544  0.34301874789505876  1.0000
  S   S2        1.0  0.9684457163922034  0.116591228805774  0.8430189276295013  1.0000
  S   S3        1.0  0.46844594097282066  0.6165931397915332  0.6569815993363051  1.0000
  S   S4        1.0  0.031551839347279995  0.8834048750655086  0.156981010130707  1.0000
  N   N1        1.0  0.5034122858343864  0.3833309901911619  0.4099751458069961  1.0000
  N   N2        1.0  0.9965913380037534  0.11666970216992921  0.9099744827721497  1.0000
  N   N3        1.0  0.4965921442341072  0.6166714586805001  0.5900252014237637  1.0000
  N   N4        1.0  0.0034028313364446137  0.8833251213292785  0.0900250455175211  1.0000
  N   N5        1.0  0.797653774099615  0.8662599166973807  0.4043007055788196  1.0000
  N   N6        1.0  0.7023540628435399  0.6337391235596783  0.9042990737315224  1.0000
  N   N7        1.0  0.2023544536174812  0.13374129241656624  0.5957004605931502  1.0000
  N   N8        1.0  0.2976526265449095  0.36625829317215863  0.0956996356104085  1.0000
  N   N9        1.0  0.005185849206043341  0.4671759002647775  0.425589352663593  1.0000
  N   N10       1.0  0.49481302920752074  0.0328218937943419  0.9255878229038431  1.0000
  N   N11       1.0  0.9948126305571918  0.5328189476045609  0.5744122229822395  1.0000
  N   N12       1.0  0.5051845265408517  0.9671742100745818  0.0744100674983841  1.0000
  O   O1        1.0  0.398294344033893  0.4573672444438516  0.3152619750315395  1.0000
  O   O2        1.0  0.1017066198855616  0.042636607587184  0.8152607844651316  1.0000
  O   O3        1.0  0.6017102890883878  0.5426427729421447  0.6847391911445515  1.0000
  O   O4        1.0  0.898283239020927  0.9573581915447279  0.18473915329796145  1.0000
  O   O5        1.0  0.747697345172796  0.4587686498558484  0.3290000088016285  1.0000
  O   O6        1.0  0.752306880569037  0.041228071430204204  0.8289999180894513  1.0000
  O   O7        1.0  0.2523055465581623  0.541230006636063  0.6709999289570661  1.0000
  O   O8        1.0  0.24769221351154172  0.9587718248198912  0.17099961019962256  1.0000
  O   O9        1.0  0.4378656218846261  0.192711913141359  0.48167031836426594  1.0000
  O   O10       1.0  0.06213235810999152  0.3072885304306041  0.9816664506347978  1.0000
  O   O11       1.0  0.5621296745277888  0.8072892228716526  0.518332895171156  1.0000
  O   O12       1.0  0.937874331287347  0.6927088862988668  0.0183302113491521  1.0000
  O   O13       1.0  0.03210447990786491  0.3001511842598746  0.49682260898117653  1.0000
  O   O14       1.0  0.46788998205346394  0.19984801389951912  0.9968195623525348  1.0000
  O   O15       1.0  0.9678858917641763  0.6998448790022495  0.503180604554835  1.0000
  O   O16       1.0  0.5321085992597931  0.8001506182208405  0.0031770996352094003  1.0000
