data_image0
_chemical_formula_structural       Cd8H24C48N48O16
_chemical_formula_sum              "Cd8 H24 C48 N48 O16"
_cell_length_a       10.499889739
_cell_length_b       11.366102135471131
_cell_length_c       16.868
_cell_angle_alpha    90.0
_cell_angle_beta     90.0
_cell_angle_gamma    115.31052377079888

_space_group_name_H-M_alt    "P 1"
_space_group_IT_number       1

loop_
  _space_group_symop_operation_xyz
  'x, y, z'

loop_
  _atom_site_type_symbol
  _atom_site_label
  _atom_site_symmetry_multiplicity
  _atom_site_fract_x
  _atom_site_fract_y
  _atom_site_fract_z
  _atom_site_occupancy
  Cd  Cd1       1.0  0.6687270270402125  0.0990578858896356  0.1869053829736771  1.0000
  Cd  Cd2       1.0  0.3312710644071757  0.4009420048159882  0.6869047901351664  1.0000
  Cd  Cd3       1.0  0.33127434335909817  0.9009428687574044  0.8130952098648336  1.0000
  Cd  Cd4       1.0  0.668728401210224  0.5990587498310518  0.3130946170263229  1.0000
  Cd  Cd5       1.0  0.28754841080162663  0.3494111158367517  0.3108424235238303  1.0000
  Cd  Cd6       1.0  0.7124497322223606  0.1505868283972731  0.8108418306853196  1.0000
  Cd  Cd7       1.0  0.7124515567995502  0.6505886655744888  0.6891581693146804  1.0000
  Cd  Cd8       1.0  0.28755118776977184  0.8494129530139674  0.1891575764761697  1.0000
  H   H1        1.0  0.0641351647086452  0.137257390921647  0.4701310173108837  1.0000
  H   H2        1.0  0.9358629267387358  0.3627424997839768  0.9701304244723729  1.0000
  H   H3        1.0  0.9358633485177992  0.862743363725393  0.5298689826891163  1.0000
  H   H4        1.0  0.0641393960515231  0.6372582548630632  0.0298701683661378  1.0000
  H   H5        1.0  0.8051476115133341  0.9927151114707442  0.49012508892577955  1.0000
  H   H6        1.0  0.1948532798506832  0.50728456064612  0.9901274602798225  1.0000
  H   H7        1.0  0.19485285807162003  0.0072836967047039  0.5098743182357097  1.0000
  H   H8        1.0  0.8051485925324046  0.4927152207651204  0.009873725397199  1.0000
  H   H9        1.0  0.6428527807158063  0.9663433410796003  0.3742239743893734  1.0000
  H   H10       1.0  0.35714620586630025  0.533656331037264  0.8742233815508627  1.0000
  H   H11       1.0  0.3571481392763189  0.0336564403316402  0.6257754327721159  1.0000
  H   H12       1.0  0.6428570693149142  0.46634442360977607  0.1257778041261588  1.0000
  H   H13       1.0  0.8504090468280269  0.8988864215183554  0.8662716386056459  1.0000
  H   H14       1.0  0.14958948934690852  0.6011122773627093  0.3662734171211781  1.0000
  H   H15       1.0  0.1495881151768899  0.10111141342129322  0.1337289542328648  1.0000
  H   H16       1.0  0.8504124346127784  0.39888555757693933  0.6337265828788219  1.0000
  H   H17       1.0  0.864333833660858  0.7779258640173765  0.9898037704529301  1.0000
  H   H18       1.0  0.1356642005303001  0.7220738080994877  0.48980436329144084  1.0000
  H   H19       1.0  0.1356647311421852  0.2220729441580716  0.0101962295470699  1.0000
  H   H20       1.0  0.864336217478055  0.2779269465475522  0.5101932653545163  1.0000
  H   H21       1.0  0.7890022932911267  0.8439988422752904  0.12068769267251872  1.0000
  H   H22       1.0  0.21099764568193544  0.6560008298415738  0.6206882855110294  1.0000
  H   H23       1.0  0.2109976743100503  0.15600093913595  0.8793123073274813  1.0000
  H   H24       1.0  0.7890003655607317  0.3440008980412657  0.3793105288119492  1.0000
  C   C1        1.0  0.9934174750084213  0.248601405512531  0.2259550628408817  1.0000
  C   C2        1.0  0.006581066846138097  0.2513994584288852  0.7259538771638603  1.0000
  C   C3        1.0  0.006583444983711188  0.7513983758987095  0.7740449371591183  1.0000
  C   C4        1.0  0.9934188491784326  0.7486022694539471  0.2740461228361397  1.0000
  C   C5        1.0  0.9418353527295624  0.1741877964743779  0.2985101968223844  1.0000
  C   C6        1.0  0.05816324070159602  0.3258111209954464  0.7985107896608952  1.0000
  C   C7        1.0  0.05816466644821366  0.8258100384652707  0.7014892103391048  1.0000
  C   C8        1.0  0.941839030512064  0.6741915801231855  0.2014892103391048  1.0000
  C   C9        1.0  0.9879035842639683  0.12330605577173512  0.4231331515295267  1.0000
  C   C10       1.0  0.012095511150967318  0.3766918884622897  0.9231343372065481  1.0000
  C   C11       1.0  0.012095932930030516  0.8766927524037058  0.5768662556319626  1.0000
  C   C12       1.0  0.9879059108249423  0.6233069197131513  0.0768662556319626  1.0000
  C   C13       1.0  0.84516312759218  0.042683202348762  0.4341486838985062  1.0000
  C   C14       1.0  0.15483792418126543  0.4573127954136709  0.9341522409295706  1.0000
  C   C15       1.0  0.1548378439765514  0.9573146325908866  0.565850723262983  1.0000
  C   C16       1.0  0.8451624422504835  0.542689905704961  0.0658477590704294  1.0000
  C   C17       1.0  0.7551520286105173  0.030145005576088107  0.3708270097225537  1.0000
  C   C18       1.0  0.2448475172115963  0.46985391189373626  0.8708281953995751  1.0000
  C   C19       1.0  0.24484939336538505  0.9698538025993528  0.6291718046004249  1.0000
  C   C20       1.0  0.755155255985841  0.5301478159891034  0.1291729902774463  1.0000
  C   C21       1.0  0.6695926426330702  0.1302062975724212  0.9995529997628624  1.0000
  C   C22       1.0  0.3304073535962219  0.36979359313319554  0.4995529997628624  1.0000
  C   C23       1.0  0.33040687456092843  0.8697925106030199  0.0004475930756485  1.0000
  C   C24       1.0  0.6695926140049552  0.630206188278045  0.5004475930756485  1.0000
  C   C25       1.0  0.732185545436785  0.0377128871335159  0.9976914868389885  1.0000
  C   C26       1.0  0.2678144507925069  0.4622870035721078  0.49769207967749907  1.0000
  C   C27       1.0  0.2678158249625255  0.962287867513524  0.0023091059995224  1.0000
  C   C28       1.0  0.73218551680867  0.5377127778391327  0.5023079203225009  1.0000
  C   C29       1.0  0.8208306064003353  0.92072291309551  0.9245784918188278  1.0000
  C   C30       1.0  0.17916652697646648  0.5792748125497554  0.4245808631728707  1.0000
  C   C31       1.0  0.17916655560458142  0.0792749218441386  0.0754215081811722  1.0000
  C   C32       1.0  0.8208315874193987  0.4207230223898861  0.5754209153426615  1.0000
  C   C33       1.0  0.8280592453911382  0.8543550443910988  0.9928082760256131  1.0000
  C   C34       1.0  0.17193923920719104  0.6456456009615579  0.4928100545411453  1.0000
  C   C35       1.0  0.17194027180286042  0.1456437637843422  0.0071917239743868  1.0000
  C   C36       1.0  0.8280625815992907  0.3543561269212816  0.5071893526203439  1.0000
  C   C37       1.0  0.7867065458938927  0.8898440877284841  0.06406805786103581  1.0000
  C   C38       1.0  0.21329294267199125  0.6101546111525807  0.5640698363765679  1.0000
  C   C39       1.0  0.2132915685019796  0.11015374721116442  0.9359313493004535  1.0000
  C   C40       1.0  0.7867079257435351  0.3898471167302588  0.4359301636234321  1.0000
  C   C41       1.0  0.5477101829629519  0.7860971517689351  0.23773298553474123  1.0000
  C   C42       1.0  0.452297079460358  0.7138957076973469  0.7377288356651663  1.0000
  C   C43       1.0  0.45228552466723226  0.2139016564065059  0.7622670144652588  1.0000
  C   C44       1.0  0.5477047413461237  0.2861060201854855  0.26226760730376963  1.0000
  C   C45       1.0  0.41121891573951075  0.6606149407551172  0.2568650699549409  1.0000
  C   C46       1.0  0.588783429999232  0.8393837581259477  0.7568626986008979  1.0000
  C   C47       1.0  0.5887791470797552  0.3393848406561233  0.7431343372065484  1.0000
  C   C48       1.0  0.41122024401255436  0.1606199162284838  0.2431331515295199  1.0000
  N   N1        1.0  0.9126683993456131  0.24215469159324243  0.1633098174057395  1.0000
  N   N2        1.0  0.08733109489990201  0.2578461723481738  0.6633092245672287  1.0000
  N   N3        1.0  0.08733297105369796  0.7578460630537975  0.8366901825942605  1.0000
  N   N4        1.0  0.9126688211246687  0.7421555555346586  0.3366907754327713  1.0000
  N   N5        1.0  5.912366602699553e-05  0.3235892236709077  0.1092275314204443  1.0000
  N   N6        1.0  0.9999399201723097  0.17641066703470903  0.6092269385819336  1.0000
  N   N7        1.0  0.9999417447495063  0.6764125042119247  0.8907724685795557  1.0000
  N   N8        1.0  5.9095037912050157e-05  0.8235891143765316  0.3907736542565772  1.0000
  N   N9        1.0  0.1299545222111078  0.3779979709018519  0.13849478302110194  1.0000
  N   N10       1.0  0.8700450236110058  0.12200094656796522  0.6384941901825913  1.0000
  N   N11       1.0  0.8700458957972472  0.6220027837451809  0.8615052169788981  1.0000
  N   N12       1.0  0.12995539439734216  0.8779998080790677  0.3615069954944303  1.0000
  N   N13       1.0  0.1278137577564635  0.3319833824199847  0.2120358074460498  1.0000
  N   N14       1.0  0.8721848356746947  0.1680155350498396  0.712035214607539  1.0000
  N   N15       1.0  0.8721871622356688  0.6680163989912558  0.7879635997154395  1.0000
  N   N16       1.0  0.1278155823336534  0.8319852195972005  0.2879653782309717  1.0000
  N   N17       1.0  0.03664608126360489  0.1892748977993719  0.3555323689826864  1.0000
  N   N18       1.0  0.9633524605909543  0.3107259661420443  0.8555329618211971  1.0000
  N   N19       1.0  0.9633524835394384  0.8107239103760692  0.6444676310173136  1.0000
  N   N20       1.0  0.03664795741739376  0.6892747885049957  0.1444670381788029  1.0000
  N   N21       1.0  0.8032162244677467  0.09621214441922632  0.3030228835665199  1.0000
  N   N22       1.0  0.1967827677939837  0.4037896927579894  0.8030240692435413  1.0000
  N   N23       1.0  0.1967837431334233  0.9037876369920143  0.6969765235949694  1.0000
  N   N24       1.0  0.803219053012498  0.5962120351248431  0.1969771164334801  1.0000
  N   N25       1.0  0.6190941953335383  0.1631230786983551  0.0645808631728713  1.0000
  N   N26       1.0  0.38090535048857543  0.3368758387714692  0.5645808631728713  1.0000
  N   N27       1.0  0.3809053218604604  0.836875729477093  0.9354197296656395  1.0000
  N   N28       1.0  0.6190941667054233  0.6631229694039718  0.4354197296656395  1.0000
  N   N29       1.0  0.5660351366237322  0.24598632092600783  0.0402922693858159  1.0000
  N   N30       1.0  0.4339648596055525  0.254013569779616  0.5402922693858159  1.0000
  N   N31       1.0  0.4339648309774375  0.7540134604852327  0.959708323452695  1.0000
  N   N32       1.0  0.5660360603865728  0.7459862116316246  0.4597089162912056  1.0000
  N   N33       1.0  0.5835035252974025  0.2622821811108764  0.9626393170500336  1.0000
  N   N34       1.0  0.41649692133906063  0.2377186828305469  0.46263931705003364  1.0000
  N   N35       1.0  0.41649689271094564  0.7377185735361635  0.0373612757884771  1.0000
  N   N36       1.0  0.5835034966692875  0.7622820718164931  0.5373618686269879  1.0000
  N   N37       1.0  0.6484227394960485  0.1902724644912936  0.9359467631017324  1.0000
  N   N38       1.0  0.3515758539351097  0.3097264529785306  0.4359473559402431  1.0000
  N   N39       1.0  0.35157677769795015  0.8097263436841473  0.0640538297367783  1.0000
  N   N40       1.0  0.648423663258889  0.6902723551969175  0.5640538297367785  1.0000
  N   N41       1.0  0.7734312194916982  0.0131279776656541  0.9265965141095549  1.0000
  N   N42       1.0  0.22656687195568287  0.4868719130399698  0.4265971069480656  1.0000
  N   N43       1.0  0.22656734531134506  0.986870830509794  0.0734040787289558  1.0000
  N   N44       1.0  0.7734326452383158  0.5131268951354713  0.5734028930519344  1.0000
  N   N45       1.0  0.7391024479318348  0.9821010018687275  0.06688700497984001  1.0000
  N   N46       1.0  0.26089704063404895  0.5178976970123372  0.5668870049798471  1.0000
  N   N47       1.0  0.2608970692621639  0.017897806306720603  0.9331135878586707  1.0000
  N   N48       1.0  0.7391019745761727  0.4821020843989032  0.4331124021816493  1.0000
  O   O1        1.0  0.5262911066587608  0.8836202448067071  0.2162852738913941  1.0000
  O   O2        1.0  0.4737097331286507  0.6163813737817421  0.7162829025373512  1.0000
  O   O3        1.0  0.47370695616050545  0.1163795366045335  0.7837147261086059  1.0000
  O   O4        1.0  0.5262925380850021  0.3836213273368827  0.2837159117856274  1.0000
  O   O5        1.0  0.666119852328329  0.784611020706926  0.2451161963481141  1.0000
  O   O6        1.0  0.3338805886285101  0.7153876781741388  0.7451167891866248  1.0000
  O   O7        1.0  0.33387635728563236  0.2153868142327227  0.7548843964903966  1.0000
  O   O8        1.0  0.6661207301941944  0.284615022944493  0.2548838036518859  1.0000
  O   O9        1.0  0.43315757877732614  0.5647969568336748  0.2813469290965145  1.0000
  O   O10       1.0  0.566836143866233  0.9352036885189818  0.7813481147735359  1.0000
  O   O11       1.0  0.5668437916219773  0.4352037978133581  0.7186536637419962  1.0000
  O   O12       1.0  0.4331661273474268  0.06479901259965  0.21865129238795333  1.0000
  O   O13       1.0  0.29301999018944264  0.6616777142454354  0.2481165520512221  1.0000
  O   O14       1.0  0.7069722780793912  0.838323904343021  0.7481171448897328  1.0000
  O   O15       1.0  0.7069790765973779  0.3383201206942132  0.7518822622717567  1.0000
  O   O16       1.0  0.29302673713083044  0.1616758770682196  0.2518822622717565  1.0000
