data_image0
_chemical_formula_structural       Zn4H13C24O13F
_chemical_formula_sum              "Zn4 H13 C24 O13 F1"
_cell_length_a       13.089821078931847
_cell_length_b       13.262261134673755
_cell_length_c       15.270076125834796
_cell_angle_alpha    78.15387181374302
_cell_angle_beta     84.67905622814858
_cell_angle_gamma    88.64840708167807

_space_group_name_H-M_alt    "P 1"
_space_group_IT_number       1

loop_
  _space_group_symop_operation_xyz
  'x, y, z'

loop_
  _atom_site_type_symbol
  _atom_site_label
  _atom_site_symmetry_multiplicity
  _atom_site_fract_x
  _atom_site_fract_y
  _atom_site_fract_z
  _atom_site_occupancy
  Zn  Zn1       1.0  0.42777907017951833  0.40974796138296204  0.44184410942638414  1.0000
  Zn  Zn2       1.0  0.5999209137429418  0.4164829527466695  0.5752881778825982  1.0000
  Zn  Zn3       1.0  0.415255571335841  0.5698736590197556  0.5803962087961951  1.0000
  Zn  Zn4       1.0  0.5654987190465377  0.6054280857028261  0.4000287764295082  1.0000
  H   H1        1.0  0.4558041862074376  0.6195684294061438  0.8386154335693591  1.0000
  H   H2        1.0  0.43637724977965325  0.6823349671298615  0.13856040750900442  1.0000
  H   H3        1.0  0.5316485313254944  0.3654739918422436  0.16551720441306372  1.0000
  H   H4        1.0  0.9154923984560951  0.4572413095252443  0.5608050412541346  1.0000
  H   H5        1.0  0.9087806103178978  0.5791597072947711  0.36586620036288053  1.0000
  H   H6        1.0  0.08798187018145141  0.44475874394968434  0.6117903675090162  1.0000
  H   H7        1.0  0.4413902374681982  0.09422941566403861  0.45477391530565114  1.0000
  H   H8        1.0  0.5159610660434026  0.8985536068788421  0.585303484935956  1.0000
  H   H9        1.0  0.5790339238613029  0.07301210903833069  0.6112475403435058  1.0000
  H   H10       1.0  0.43172344962492565  0.9324122629572644  0.3988939416023243  1.0000
  H   H11       1.0  0.5801582179109205  0.31330178620979154  0.8614213641877414  1.0000
  H   H12       1.0  0.42875723483704314  0.6975078435074806  0.9739032509425415  1.0000
  H   H13       1.0  0.5728728827841678  0.2923084169996458  0.027875408677815006  1.0000
  C   C1        1.0  0.7691931041101866  0.5315481906884685  0.45516992207373624  1.0000
  C   C2        1.0  0.05710790894462291  0.49744202047810393  0.4781306187074179  1.0000
  C   C3        1.0  0.8816696381297928  0.537784784868336  0.4328963824681794  1.0000
  C   C4        1.0  0.23494800020839787  0.4745451065123731  0.5294444950166268  1.0000
  C   C5        1.0  0.946916545368815  0.4956600950102655  0.49385451495773947  1.0000
  C   C6        1.0  0.4563981242312352  0.8904999091108933  0.462870263467977  1.0000
  C   C7        1.0  0.4862370320947278  0.9417487701078073  0.523812558148464  1.0000
  C   C8        1.0  0.531524320027984  0.10870418171862892  0.5581298518312465  1.0000
  C   C9        1.0  0.4839259957214069  0.052584668560122304  0.509598295355886  1.0000
  C   C10       1.0  0.5259022324390514  0.22234475320485816  0.5389438731351959  1.0000
  C   C11       1.0  0.4657130571675269  0.7768365964051114  0.4733495106133745  1.0000
  C   C12       1.0  0.4561297218780141  0.6172787344013457  0.10668030232478998  1.0000
  C   C13       1.0  0.5172191003206592  0.4786931762432972  0.7418472406644341  1.0000
  C   C14       1.0  0.4877294906227619  0.514556298349234  0.259479719233191  1.0000
  C   C15       1.0  0.5172514409905916  0.4679748332045365  0.8409534815832276  1.0000
  C   C16       1.0  0.48405262655040104  0.5221747439372921  0.16103759548627036  1.0000
  C   C17       1.0  0.45287028123942014  0.6255586304040365  0.015755215090493397  1.0000
  C   C18       1.0  0.510711159881005  0.438099162723198  0.12285186058217328  1.0000
  C   C19       1.0  0.5139220813468911  0.4463498833654356  0.028758454016347922  1.0000
  C   C20       1.0  0.48237438899361246  0.5414934868847397  0.9741999446488946  1.0000
  C   C21       1.0  0.4824534665821716  0.5489270165113921  0.8805587897182079  1.0000
  C   C22       1.0  0.5520516663268253  0.37525759979782686  0.8944684935376017  1.0000
  C   C23       1.0  0.5483310534344313  0.3642559309280602  0.9862939642367863  1.0000
  C   C24       1.0  0.1216413675161476  0.4679271940117929  0.5427705064421746  1.0000
  O   O1        1.0  0.5031353325149297  0.5007958477427509  0.49958059806220956  1.0000
  O   O2        1.0  0.574260612100602  0.4170110048658842  0.7046181675206499  1.0000
  O   O3        1.0  0.5149771934197674  0.5955548283951658  0.2841421629209222  1.0000
  O   O4        1.0  0.4596285024736417  0.5491328353104522  0.701794156467635  1.0000
  O   O5        1.0  0.4641143189110295  0.42823906578480125  0.31143290443971955  1.0000
  O   O6        1.0  0.4562360146076544  0.2648070433723221  0.4899311404933115  1.0000
  O   O7        1.0  0.519286767750991  0.7457785634565186  0.4097874985665655  1.0000
  O   O8        1.0  0.7361849735853881  0.4741128175147437  0.5298124304112051  1.0000
  O   O9        1.0  0.2762098727389954  0.512769510589962  0.5880116629642274  1.0000
  O   O10       1.0  0.7151042853974587  0.5853388332781934  0.3965344690910868  1.0000
  O   O11       1.0  0.28035455867967585  0.44147371019607107  0.4634133387223117  1.0000
  O   O12       1.0  0.5916343102935216  0.2689280564418511  0.57340990169957  1.0000
  O   O13       1.0  0.4204911422879151  0.7213537731795444  0.5437134120081097  1.0000
  F   F1        1.0  0.09497879408549179  0.5356590667552724  0.39198230349219193  1.0000
