data_image0
_chemical_formula_structural       Hg4H40C48Br8N16
_chemical_formula_sum              "Hg4 H40 C48 Br8 N16"
_cell_length_a       8.342628577096326
_cell_length_b       11.821098865119591
_cell_length_c       14.898224499192303
_cell_angle_alpha    89.99961586076363
_cell_angle_beta     89.9995622284636
_cell_angle_gamma    89.99966129322026

_space_group_name_H-M_alt    "P 1"
_space_group_IT_number       1

loop_
  _space_group_symop_operation_xyz
  'x, y, z'

loop_
  _atom_site_type_symbol
  _atom_site_label
  _atom_site_symmetry_multiplicity
  _atom_site_fract_x
  _atom_site_fract_y
  _atom_site_fract_z
  _atom_site_occupancy
  Hg  Hg1       1.0  0.7826001713062213  0.9467612525371577  0.2500000806316365  1.0000
  Hg  Hg2       1.0  0.7174023518711297  0.4467634805740558  0.7500000699160623  1.0000
  Hg  Hg3       1.0  0.21740091943448192  0.05324188547580629  0.7500042030224208  1.0000
  Hg  Hg4       1.0  0.28259754025202  0.5532354277330214  0.2500001864263695  1.0000
  H   H1        1.0  0.7347759249156667  0.17624618935153788  0.36977625774326117  1.0000
  H   H2        1.0  0.7652228728053033  0.6762493151868297  0.6302219913419265  1.0000
  H   H3        1.0  0.2652235189952634  0.8237584853930712  0.8697767050322582  1.0000
  H   H4        1.0  0.23477387147656975  0.32375482396455624  0.1302282434291797  1.0000
  H   H5        1.0  0.2652215698361076  0.8237569486689226  0.6302280259184272  1.0000
  H   H6        1.0  0.23477941661187882  0.3237572066206483  0.369778264974947  1.0000
  H   H7        1.0  0.7347811677666699  0.17624465263203598  0.1302228800677057  1.0000
  H   H8        1.0  0.7652188286796928  0.6762381627337888  0.8697740266072174  1.0000
  H   H9        1.0  0.5474177499077159  0.27932623376602805  0.4754419896914612  1.0000
  H   H10       1.0  0.9525837796847015  0.7793252320742569  0.5245516777827105  1.0000
  H   H11       1.0  0.4525730491679028  0.720676711852448  0.975446223170678  1.0000
  H   H12       1.0  0.04742640414612961  0.22067471460040622  0.024557937140144794  1.0000
  H   H13       1.0  0.4525821421746273  0.720676904252244  0.5245616227442156  1.0000
  H   H14       1.0  0.0474197084898407  0.2206719843688987  0.47544052390556857  1.0000
  H   H15       1.0  0.5474172536049481  0.27932558023515236  0.024558731729477794  1.0000
  H   H16       1.0  0.9525734880132006  0.7793199639926698  0.975439634329973  1.0000
  H   H17       1.0  0.29058872301805394  0.184493609952419  0.518952001312904  1.0000
  H   H18       1.0  0.20941582832086436  0.6844931396115896  0.4810463125615313  1.0000
  H   H19       1.0  0.709401160525708  0.8155072295102955  0.018958963770501193  1.0000
  H   H20       1.0  0.7906012643464138  0.31550806725287833  0.9810425637923714  1.0000
  H   H21       1.0  0.7094063744400715  0.8155095280926756  0.4810475838074097  1.0000
  H   H22       1.0  0.7905888584705139  0.3155040768010124  0.5189526013334315  1.0000
  H   H23       1.0  0.2905915395546402  0.18449506256108353  0.9810486760082566  1.0000
  H   H24       1.0  0.2094046211398961  0.6844925329654572  0.018949637881718197  1.0000
  H   H25       1.0  0.4169979015242333  0.909696550623046  0.3413615074441054  1.0000
  H   H26       1.0  0.0830047617872793  0.40970010250519806  0.658641636431426  1.0000
  H   H27       1.0  0.5830091250856668  0.09030413189044853  0.8413591797715512  1.0000
  H   H28       1.0  0.9169891944904692  0.5903054910518151  0.1586361753497272  1.0000
  H   H29       1.0  0.5830031892235681  0.09030489549983396  0.6586427762144993  1.0000
  H   H30       1.0  0.916992732982955  0.5903030355264818  0.3413599623465728  1.0000
  H   H31       1.0  0.416993164335402  0.909698160183389  0.1586430902194635  1.0000
  H   H32       1.0  0.08300949900554853  0.40969257133235004  0.8413593824510668  1.0000
  H   H33       1.0  0.15202340207689963  0.9069923305241473  0.4098118444941504  1.0000
  H   H34       1.0  0.34798168125573176  0.40699112026496215  0.5901906427094872  1.0000
  H   H35       1.0  0.8479814847203643  0.09300355012975102  0.9098124046457485  1.0000
  H   H36       1.0  0.6520204081935007  0.5930065859578876  0.0901849496106735  1.0000
  H   H37       1.0  0.847981284691059  0.09300826966302371  0.5901884118335587  1.0000
  H   H38       1.0  0.652019409515475  0.5930069420833489  0.40981229851637113  1.0000
  H   H39       1.0  0.15201960605580206  0.9069911284327716  0.09019187903105319  1.0000
  H   H40       1.0  0.3479854772665335  0.4069914764028724  0.9098126218376235  1.0000
  C   C1        1.0  0.6191085597097087  0.1404840223009458  0.3892520745162571  1.0000
  C   C2        1.0  0.8808929351720141  0.6404842909303667  0.6107443532114871  1.0000
  C   C3        1.0  0.3808894177471772  0.8595187977612253  0.8892551945364742  1.0000
  C   C4        1.0  0.11911007027187283  0.3595149353499422  0.11074754796489118  1.0000
  C   C5        1.0  0.38089253104129744  0.8595199616654841  0.6107501954727538  1.0000
  C   C6        1.0  0.11910935427319913  0.35951884710534193  0.38925388945171585  1.0000
  C   C7        1.0  0.6191056796939023  0.14048180243189992  0.1107484179162057  1.0000
  C   C8        1.0  0.880893417890576  0.6404763594554623  0.8892500235066902  1.0000
  C   C9        1.0  0.5157807747320506  0.19662428910940824  0.44798531612828896  1.0000
  C   C10       1.0  0.9842202494942782  0.6966254638722446  0.5520114809367271  1.0000
  C   C11       1.0  0.4842104018589239  0.803378886001134  0.9479889705759986  1.0000
  C   C12       1.0  0.0157907554760115  0.3033750992500828  0.0520127313600796  1.0000
  C   C13       1.0  0.4842179186979581  0.8033763110762209  0.5520182963167599  1.0000
  C   C14       1.0  0.015782039966183  0.30337513633114094  0.44798609051237986  1.0000
  C   C15       1.0  0.5157834968712793  0.1966276357957781  0.052017997967915584  1.0000
  C   C16       1.0  0.9842103353668892  0.6966212712474087  0.947980812777409  1.0000
  C   C17       1.0  0.37149657260983576  0.14553702836161617  0.4705535496453804  1.0000
  C   C18       1.0  0.1285023120138433  0.6455373367202525  0.5294429600568691  1.0000
  C   C19       1.0  0.6284930950108389  0.8544651121680075  0.9705590016980492  1.0000
  C   C20       1.0  0.871507804643734  0.3544617231724985  0.029438289066248992  1.0000
  C   C21       1.0  0.628498524847217  0.8544652637356261  0.5294467066981383  1.0000
  C   C22       1.0  0.8714975801288317  0.3544624175458893  0.4705539401786749  1.0000
  C   C23       1.0  0.3715032010694587  0.14554225558578077  0.0294439395129658  1.0000
  C   C24       1.0  0.12849208753833352  0.6455363392231916  0.9705539126273874  1.0000
  C   C25       1.0  0.32976343342028264  0.041864179586724504  0.43053908164832677  1.0000
  C   C26       1.0  0.1702423136398252  0.5418648254525138  0.5694593279587536  1.0000
  C   C27       1.0  0.6702351750354651  0.9581366034948006  0.9305424565828702  1.0000
  C   C28       1.0  0.8297648554780324  0.4581347459167731  0.06945629037075919  1.0000
  C   C29       1.0  0.6702364586734292  0.9581406503328508  0.5694618458991058  1.0000
  C   C30       1.0  0.8297611744662279  0.45813662068500344  0.4305402571483015  1.0000
  C   C31       1.0  0.3297599224102258  0.041863996701138696  0.0694604846488858  1.0000
  C   C32       1.0  0.17023743402216243  0.5418607786275658  0.9305385962083008  1.0000
  C   C33       1.0  0.4421464900506963  0.9913825116517074  0.37292271345690137  1.0000
  C   C34       1.0  0.05785548849656411  0.4913813565094928  0.627076635079419  1.0000
  C   C35       1.0  0.5578553079284277  0.008620444897054802  0.872923616692745  1.0000
  C   C36       1.0  0.9421460937613306  0.5086185792326817  0.1270741913299034  1.0000
  C   C37       1.0  0.557854600707401  0.008619780424623998  0.6270795565366567  1.0000
  C   C38       1.0  0.9421468009582199  0.5086183977432341  0.3729222788138031  1.0000
  C   C39       1.0  0.442143385496621  0.991383539074363  0.1270786533013606  1.0000
  C   C40       1.0  0.05785619573425291  0.49137694530885784  0.8729213664700736  1.0000
  C   C41       1.0  0.17646595823657663  0.9864830479599361  0.4456024209440698  1.0000
  C   C42       1.0  0.32353486271693305  0.48648308470345814  0.5543969539373206  1.0000
  C   C43       1.0  0.8235348404685183  0.013514225445661098  0.9456028410974041  1.0000
  C   C44       1.0  0.6764677188501126  0.5135174585200417  0.054392926931058086  1.0000
  C   C45       1.0  0.8235315365606157  0.0135158603521361  0.5543978354034564  1.0000
  C   C46       1.0  0.6764650294097623  0.5135149776585735  0.4456033024073847  1.0000
  C   C47       1.0  0.17647104497553562  0.9864821450109887  0.054398086460054194  1.0000
  C   C48       1.0  0.32353217329256273  0.4864822957461  0.9456039733044861  1.0000
  Br  Br1       1.0  0.6718109834356767  0.7478747279369742  0.24999682322452085  1.0000
  Br  Br2       1.0  0.8281884124890483  0.24787564820931607  0.7499976845936445  1.0000
  Br  Br3       1.0  0.32819010739163457  0.25212756418144266  0.7499953784551961  1.0000
  Br  Br4       1.0  0.17180428764132932  0.7521224141564817  0.25000525665002726  1.0000
  Br  Br5       1.0  5.901629612739998e-05  0.09467289469672119  0.25000000544803663  1.0000
  Br  Br6       1.0  0.4999390960806665  0.5946740410070105  0.7499961065436194  1.0000
  Br  Br7       1.0  0.9999408758060825  0.9053277054920272  0.75000226455262  1.0000
  Br  Br8       1.0  0.5000631933670263  0.4053274051358143  0.25000280734505503  1.0000
  N   N1        1.0  0.5839404539982598  0.03884986606340139  0.35434289344232167  1.0000
  N   N2        1.0  0.9160606942366981  0.5388505422442336  0.6456574369055088  1.0000
  N   N3        1.0  0.4160592020921073  0.9611540917181642  0.8543466600719894  1.0000
  N   N4        1.0  0.0839394338617652  0.46115262197261586  0.1456562071237215  1.0000
  N   N5        1.0  0.4160606367573579  0.961154117905828  0.6456587053257649  1.0000
  N   N6        1.0  0.08394279384734922  0.4611517498271099  0.354344833082969  1.0000
  N   N7        1.0  0.5839370939888725  0.038846508458441086  0.1456603084827606  1.0000
  N   N8        1.0  0.9160628556174971  0.5388445944533943  0.8543406931135563  1.0000
  N   N9        1.0  0.07019734049144691  0.031182689933999107  0.4981557722789844  1.0000
  N   N10       1.0  0.4298072974530456  0.5311811270693311  0.5018440372156475  1.0000
  N   N11       1.0  0.9298075303054887  0.968813298269204  0.9981546316555877  1.0000
  N   N12       1.0  0.5701948080288163  0.4688164716238462  0.0018407017633706  1.0000
  N   N13       1.0  0.9298109422633091  0.9688162183499784  0.5018458264874823  1.0000
  N   N14       1.0  0.5701925946970618  0.46881355151813153  0.49815487669631847  1.0000
  N   N15       1.0  0.07019236186447841  0.031178842488742493  0.0018429398213512995  1.0000
  N   N16       1.0  0.42980987877853494  0.5311824366928661  0.998154856022424  1.0000
