data_image0
_chemical_formula_structural       Ag4H36C36N8O28
_chemical_formula_sum              "Ag4 H36 C36 N8 O28"
_cell_length_a       7.679160986136772
_cell_length_b       9.977724581107342
_cell_length_c       15.338057493012936
_cell_angle_alpha    90.00006148385651
_cell_angle_beta     90.00012998350027
_cell_angle_gamma    95.01500807348305

_space_group_name_H-M_alt    "P 1"
_space_group_IT_number       1

loop_
  _space_group_symop_operation_xyz
  'x, y, z'

loop_
  _atom_site_type_symbol
  _atom_site_label
  _atom_site_symmetry_multiplicity
  _atom_site_fract_x
  _atom_site_fract_y
  _atom_site_fract_z
  _atom_site_occupancy
  Ag  Ag1       1.0  0.938486167941612  0.8577449268405816  0.6481259304159079  1.0000
  Ag  Ag2       1.0  0.5615162550187878  0.1422547205225584  0.1481260366661772  1.0000
  Ag  Ag3       1.0  0.0615167234287526  0.1422543830841505  0.35187449910534235  1.0000
  Ag  Ag4       1.0  0.4384840319577777  0.8577445899326293  0.8518730889075029  1.0000
  H   H1        1.0  0.6234545323617555  0.22201562982918688  0.4629391066773464  1.0000
  H   H2        1.0  0.8765468933578973  0.7779856448995659  0.9629382223130064  1.0000
  H   H3        1.0  0.37654326484810957  0.7779846872442421  0.5370626267874313  1.0000
  H   H4        1.0  0.12345492505122022  0.2220156774582662  0.037061555235290186  1.0000
  H   H5        1.0  0.661116120089872  0.842778051811088  0.33313216371288945  1.0000
  H   H6        1.0  0.8388859924117754  0.1572229666989742  0.8331327598726259  1.0000
  H   H7        1.0  0.3388846253595332  0.1572252829804839  0.6668676138354923  1.0000
  H   H8        1.0  0.16111571137951597  0.8427773495749238  0.16686701767525133  1.0000
  H   H9        1.0  0.928838859759658  0.5015464209306301  0.39863723282736163  1.0000
  H   H10       1.0  0.5711624903427435  0.49845673917648264  0.8986377616828348  1.0000
  H   H11       1.0  0.0711642608463592  0.4984549011619777  0.6013631966947202  1.0000
  H   H12       1.0  0.42883955730201956  0.5015465953492184  0.10136201586628599  1.0000
  H   H13       1.0  0.7064209467146514  0.45112344417474054  0.36680320083728896  1.0000
  H   H14       1.0  0.7935799086077466  0.5488766349096322  0.8668033662683  1.0000
  H   H15       1.0  0.29358217389136604  0.5488778779178672  0.6331972286847856  1.0000
  H   H16       1.0  0.20642190980291278  0.45112468744884643  0.1331970632530357  1.0000
  H   H17       1.0  0.7679205379106052  0.4629921218784574  0.4808385408140764  1.0000
  H   H18       1.0  0.7320820456325662  0.537007175711743  0.9808386279050082  1.0000
  H   H19       1.0  0.23208128050005428  0.5370092004800142  0.5191618887072591  1.0000
  H   H20       1.0  0.267919658158725  0.4629931405621548  0.019161149642869198  1.0000
  H   H21       1.0  0.5665406512119303  0.07586588222596193  0.33079843116373536  1.0000
  H   H22       1.0  0.9334602626463563  0.9241361380315852  0.8307983654416943  1.0000
  H   H23       1.0  0.43345737523358707  0.9241364470153427  0.6692033023018735  1.0000
  H   H24       1.0  0.0665427433418344  0.0758641779770883  0.16920206407996824  1.0000
  H   H25       1.0  0.8539236749304991  0.3791237816266104  0.7004830626138129  1.0000
  H   H26       1.0  0.646077694060054  0.6208759692403519  0.20048294669455655  1.0000
  H   H27       1.0  0.1460780288623412  0.6208765346479341  0.2995173669071035  1.0000
  H   H28       1.0  0.35392259292115114  0.3791233412167614  0.7995181347982478  1.0000
  H   H29       1.0  0.6563470065994111  0.2959963130236786  0.7442205326116422  1.0000
  H   H30       1.0  0.8436546843635214  0.7040045301667917  0.2442180918320531  1.0000
  H   H31       1.0  0.34365481181433916  0.7040050093360861  0.2557812008557789  1.0000
  H   H32       1.0  0.15634724866186644  0.2959977982743354  0.7557810337436093  1.0000
  H   H33       1.0  0.6467473961131632  0.43698603405943  0.6709153353214106  1.0000
  H   H34       1.0  0.8532551348905741  0.5630136582393561  0.17091476317139603  1.0000
  H   H35       1.0  0.3532543076812189  0.5630142822157538  0.32908574617255226  1.0000
  H   H36       1.0  0.14674656890225893  0.43698665803518105  0.8290856663495276  1.0000
  C   C1        1.0  0.7862098033745186  0.1525420258467278  0.6129386129386915  1.0000
  C   C2        1.0  0.7137896191281713  0.8474555404944583  0.11293547216387617  1.0000
  C   C3        1.0  0.2137889521772252  0.8474552727090268  0.38706312052558184  1.0000
  C   C4        1.0  0.28620794883831724  0.15254276440788317  0.8870630014348604  1.0000
  C   C5        1.0  0.6650188942117622  0.12075149277458049  0.46055548163997867  1.0000
  C   C6        1.0  0.8349813326265192  0.8792507836026643  0.9605533165218387  1.0000
  C   C7        1.0  0.3349776008043009  0.8792488245653661  0.5394469037970993  1.0000
  C   C8        1.0  0.1650178813903409  0.12075053928626289  0.039445809051926496  1.0000
  C   C9        1.0  0.6851483424895902  0.9092426874316999  0.3888022226824717  1.0000
  C   C10       1.0  0.8148503565895097  0.09076045381247161  0.8888007892340395  1.0000
  C   C11       1.0  0.31484968395283636  0.09075964180831872  0.6111982068370594  1.0000
  C   C12       1.0  0.1851501596211662  0.9092408688099454  0.11119768436742557  1.0000
  C   C13       1.0  0.8325082185559369  0.7277008532782431  0.46679908233686257  1.0000
  C   C14       1.0  0.6674879020648348  0.2722994240412362  0.9667982594388319  1.0000
  C   C15       1.0  0.1674896932655727  0.272300469876555  0.5332000432361639  1.0000
  C   C16       1.0  0.33250978051948016  0.7276998869450465  0.033200214160324  1.0000
  C   C17       1.0  0.7701217738541501  0.8657645927094113  0.4627001403758725  1.0000
  C   C18       1.0  0.7298730251380549  0.1342356767935868  0.962699292370665  1.0000
  C   C19       1.0  0.22987483577509243  0.1342367307125372  0.5373002891425003  1.0000
  C   C20       1.0  0.2701232406330831  0.8657626283746254  0.03729918122732558  1.0000
  C   C21       1.0  0.7507417064919933  0.06957450942140038  0.5321369368606526  1.0000
  C   C22       1.0  0.7492562599722349  0.930424910029579  0.0321351982470048  1.0000
  C   C23       1.0  0.24925597610159403  0.9304248015687334  0.4678654485767523  1.0000
  C   C24       1.0  0.25074261019270233  0.06957339460818451  0.9678645792985631  1.0000
  C   C25       1.0  0.790625079124233  0.5044199278940907  0.4152715952789022  1.0000
  C   C26       1.0  0.7093747037919585  0.49558024702635345  0.9152716276365707  1.0000
  C   C27       1.0  0.2093767392848846  0.4955813944637412  0.5847281822693943  1.0000
  C   C28       1.0  0.29062699999779085  0.5044200692469047  0.08472749793826748  1.0000
  C   C29       1.0  0.633253038662403  0.039407085412172194  0.3875644452780306  1.0000
  C   C30       1.0  0.8667494465197337  0.9605950465110951  0.8875643289464106  1.0000
  C   C31       1.0  0.36674487316528825  0.9605942377451911  0.6124372881871664  1.0000
  C   C32       1.0  0.13325355947000617  0.0394052694982179  0.1124367525482981  1.0000
  C   C33       1.0  0.715716095048336  0.3492122444671963  0.6875530440918709  1.0000
  C   C34       1.0  0.7842853272543947  0.6507884869864426  0.18755115056524824  1.0000
  C   C35       1.0  0.2842856087460461  0.6507880718079874  0.3124480374020918  1.0000
  C   C36       1.0  0.21571507434154572  0.349211829553326  0.8124486269818901  1.0000
  N   N1        1.0  0.8045262223754932  0.9448940162390117  0.5327879415140018  1.0000
  N   N2        1.0  0.6954692574022302  0.0551064111112751  0.032786183757195886  1.0000
  N   N3        1.0  0.19547146021500342  0.05510529474983631  0.46721313997731767  1.0000
  N   N4        1.0  0.3045258207929251  0.944892900407382  0.9672129418135141  1.0000
  N   N5        1.0  0.0689008678526619  0.6983137428148821  0.7914603487883837  1.0000
  N   N6        1.0  0.43109971572278744  0.30168611715894394  0.2914570753759662  1.0000
  N   N7        1.0  0.9311022527548972  0.3016875792783722  0.2085407327067301  1.0000
  N   N8        1.0  0.5689024465367041  0.6983182234494122  0.7085413982274884  1.0000
  O   O1        1.0  0.12730525643497262  0.6686690110951686  0.8645230786977791  1.0000
  O   O2        1.0  0.3726931837560059  0.33133199955862114  0.3645184554466283  1.0000
  O   O3        1.0  0.8726939575865275  0.3313323117956841  0.13547800279511787  1.0000
  O   O4        1.0  0.6273048426833299  0.6686703296801113  0.6354806701268174  1.0000
  O   O5        1.0  0.954033339525779  0.6981186656835163  0.5128825517821625  1.0000
  O   O6        1.0  0.5459634626979833  0.3018827282371745  0.0128827515269379  1.0000
  O   O7        1.0  0.045964572297272424  0.30188265747192133  0.4871172257639102  1.0000
  O   O8        1.0  0.4540370535142344  0.698118594385882  0.9871163740475735  1.0000
  O   O9        1.0  0.1220776360416735  0.8150354498668619  0.7574013480357988  1.0000
  O   O10       1.0  0.37792657803202445  0.1849633360694156  0.25739988863539753  1.0000
  O   O11       1.0  0.8779277451000312  0.18496285344155436  0.24259842951347105  1.0000
  O   O12       1.0  0.6220780740018982  0.8150399979239111  0.7425992369421689  1.0000
  O   O13       1.0  0.7414476097090911  0.6420765174510806  0.41334438290360237  1.0000
  O   O14       1.0  0.7585507472568763  0.35792264785116146  0.9133443753872041  1.0000
  O   O15       1.0  0.25855409408065805  0.35792379882217057  0.5866547426712357  1.0000
  O   O16       1.0  0.24144953971968874  0.6420766626040262  0.0866547501864758  1.0000
  O   O17       1.0  0.9603633896061083  0.6213455807152215  0.7500279430270069  1.0000
  O   O18       1.0  0.5396370266931498  0.37865527419164385  0.25002492918373775  1.0000
  O   O19       1.0  0.03963712660920043  0.3786557419091211  0.24997248649358986  1.0000
  O   O20       1.0  0.4603639479919082  0.6213500727678039  0.7499748483654753  1.0000
  O   O21       1.0  0.8831707882951322  0.12370033126152437  0.6725100869379829  1.0000
  O   O22       1.0  0.6168263122444416  0.8762973530741434  0.17250620380661985  1.0000
  O   O23       1.0  0.11682513362871563  0.8762949556574569  0.327490994550935  1.0000
  O   O24       1.0  0.38316972428641805  0.12369893992427454  0.827490313871422  1.0000
  O   O25       1.0  0.6969822395944832  0.2619180731416364  0.611765700705021  1.0000
  O   O26       1.0  0.8030172919668457  0.7380804969714062  0.11176323736636817  1.0000
  O   O27       1.0  0.30301946419989884  0.7380822431335474  0.3882353807889415  1.0000
  O   O28       1.0  0.19698157819500037  0.2619178076650713  0.8882352362331074  1.0000
