data_image0
_chemical_formula_structural       Cu4H20C16N36
_chemical_formula_sum              "Cu4 H20 C16 N36"
_cell_length_a       5.8868103079437315
_cell_length_b       7.217779840885791
_cell_length_c       19.363745926763002
_cell_angle_alpha    89.99996548020599
_cell_angle_beta     89.99990766388515
_cell_angle_gamma    100.21231522754171

_space_group_name_H-M_alt    "P 1"
_space_group_IT_number       1

loop_
  _space_group_symop_operation_xyz
  'x, y, z'

loop_
  _atom_site_type_symbol
  _atom_site_label
  _atom_site_symmetry_multiplicity
  _atom_site_fract_x
  _atom_site_fract_y
  _atom_site_fract_z
  _atom_site_occupancy
  Cu  Cu1       1.0  0.5591360412326835  0.3746752065041291  0.718971303158412  1.0000
  Cu  Cu2       1.0  0.9408624233612526  0.6253236114807091  0.2189702152098292  1.0000
  Cu  Cu3       1.0  0.44086821540624027  0.6253278354340066  0.2810296831192574  1.0000
  Cu  Cu4       1.0  0.059135612392857674  0.37467372939286037  0.7810271560720992  1.0000
  H   H1        1.0  0.5267625932001253  0.1971807080036783  0.4256061922130386  1.0000
  H   H2        1.0  0.9732311392016584  0.8028144080928428  0.9256014386664263  1.0000
  H   H3        1.0  0.47322775679273127  0.802820738323817  0.5744004747150413  1.0000
  H   H4        1.0  0.02676856215420289  0.19719137812862897  0.0743938668448507  1.0000
  H   H5        1.0  0.1727942475946449  0.09591441983137369  0.49873332002787407  1.0000
  H   H6        1.0  0.32721433153221813  0.9040873899293657  0.9987273937717588  1.0000
  H   H7        1.0  0.827214248576155  0.9040928922001398  0.5012743798189376  1.0000
  H   H8        1.0  0.672789647767864  0.09591424425053668  0.0012694610829911  1.0000
  H   H9        1.0  0.2018306854146203  0.19098102534723435  0.6249619567042471  1.0000
  H   H10       1.0  0.2981674876591143  0.8090146666789552  0.12495796307383959  1.0000
  H   H11       1.0  0.7981835150438172  0.8090207503515927  0.3750416117858322  1.0000
  H   H12       1.0  0.7018291221739119  0.19098405816226457  0.8750378589022602  1.0000
  H   H13       1.0  0.8983876877162658  0.574220095526307  0.64251134160164  1.0000
  H   H14       1.0  0.6016125796328922  0.42577880098863824  0.14251193398225578  1.0000
  H   H15       1.0  0.10161490368290772  0.425774500786666  0.3574855132986414  1.0000
  H   H16       1.0  0.39838747534348334  0.5742115491370755  0.8574864702226392  1.0000
  H   H17       1.0  0.03344007696851753  0.5675234705019891  0.5610298816745284  1.0000
  H   H18       1.0  0.46653969607569207  0.4324731618784269  0.0610211839863126  1.0000
  H   H19       1.0  0.9665548286995715  0.4324752312418027  0.4389757524429072  1.0000
  H   H20       1.0  0.5334563586874806  0.5675227477467074  0.9389730887209923  1.0000
  C   C1        1.0  0.7139315066131502  0.4021192917824195  0.5709159294938786  1.0000
  C   C2        1.0  0.7860949562231808  0.5978860780011741  0.0709103629513166  1.0000
  C   C3        1.0  0.2860858232072799  0.5978811236007215  0.42909177045675756  1.0000
  C   C4        1.0  0.21391670856664288  0.40211145093275746  0.9290818441183079  1.0000
  C   C5        1.0  0.5225004837216431  0.23997620582406398  0.47961347029905  1.0000
  C   C6        1.0  0.9774857902901177  0.7600265346893877  0.9796125164645845  1.0000
  C   C7        1.0  0.4774972742411023  0.760019727637861  0.5203875159950044  1.0000
  C   C8        1.0  0.022523261644394686  0.23998359202678182  0.0203848547839698  1.0000
  C   C9        1.0  0.32658830477456746  0.18209041436182358  0.5200553613120036  1.0000
  C   C10       1.0  0.1733971255595108  0.8178983528944528  0.0200580459660529  1.0000
  C   C11       1.0  0.673403232182693  0.8178998181279624  0.47994407570232056  1.0000
  C   C12       1.0  0.8266046328577873  0.18209202088321064  0.9799429403935704  1.0000
  C   C13       1.0  0.3419305480807182  0.236642815122309  0.588688449529883  1.0000
  C   C14       1.0  0.15805819602082485  0.7633578647235593  0.088684556670664  1.0000
  C   C15       1.0  0.6580495804219383  0.7633584899404154  0.4113171844819092  1.0000
  C   C16       1.0  0.8419352840278691  0.2366422207568277  0.91131436385092  1.0000
  N   N1        1.0  0.532338229763738  0.3451572108362199  0.6146764694095594  1.0000
  N   N2        1.0  0.9676641026793931  0.6548504087601329  0.11468298960149778  1.0000
  N   N3        1.0  0.46765469506426177  0.6548400595436021  0.3853234839882376  1.0000
  N   N4        1.0  0.03233448811440098  0.34514974735263587  0.88531644737823  1.0000
  N   N5        1.0  0.7134964120465099  0.3478459050384757  0.5037304762263447  1.0000
  N   N6        1.0  0.7864989570258274  0.6521627410352975  0.0037246044331951  1.0000
  N   N7        1.0  0.28650923240282106  0.652164174835903  0.4962720592928065  1.0000
  N   N8        1.0  0.2135081140384258  0.34784595434000926  0.9962676025247248  1.0000
  N   N9        1.0  0.9029738625006729  0.5142546362000644  0.5951046752257056  1.0000
  N   N10       1.0  0.5970250529861617  0.4857567678585326  0.09510275173151682  1.0000
  N   N11       1.0  0.0970250057828039  0.48574692755540383  0.4048963110319264  1.0000
  N   N12       1.0  0.4029854251107636  0.5142519747051538  0.9048920373908445  1.0000
  N   N13       1.0  0.7755940505611534  0.19273497444910248  0.7308125641748475  1.0000
  N   N14       1.0  0.7244200283874918  0.8072735603919482  0.2308118718591174  1.0000
  N   N15       1.0  0.22440759334313046  0.8072806651788512  0.2691915205657409  1.0000
  N   N16       1.0  0.2755828401393501  0.19272244384099224  0.7691927294671004  1.0000
  N   N17       1.0  0.797948712239922  0.0749074596768082  0.6880269318765997  1.0000
  N   N18       1.0  0.7020479410123528  0.9250955332001138  0.1880283168736554  1.0000
  N   N19       1.0  0.20204532284846974  0.9250954410427706  0.31197405434277664  1.0000
  N   N20       1.0  0.29795944522989976  0.07490614823748128  0.8119726694325493  1.0000
  N   N21       1.0  0.8222446172082628  0.9601748297260356  0.6478380242617163  1.0000
  N   N22       1.0  0.6777587506895343  0.039817576171444095  0.1478386652927028  1.0000
  N   N23       1.0  0.177746048897788  0.03981960194748519  0.3521614127155743  1.0000
  N   N24       1.0  0.3222508943953386  0.960186943880032  0.8521607717179974  1.0000
  N   N25       1.0  0.3477063463395922  0.5564772476574119  0.7399770227056877  1.0000
  N   N26       1.0  0.15227818782783228  0.44351048482499783  0.23997638429343482  1.0000
  N   N27       1.0  0.6522848748966509  0.44351999918598745  0.2600229306823891  1.0000
  N   N28       1.0  0.8477227379695833  0.5564756661400877  0.7600225363774911  1.0000
  N   N29       1.0  0.3254448085690242  0.6949880766349352  0.7067658388270459  1.0000
  N   N30       1.0  0.17456088101089753  0.30500674897182006  0.20676653558983557  1.0000
  N   N31       1.0  0.6745558014470419  0.3050050887299633  0.2932346310756486  1.0000
  N   N32       1.0  0.8254374322027118  0.6949919995675626  0.7932329013989943  1.0000
  N   N33       1.0  0.29751393239242674  0.8283742872132224  0.6767911216045661  1.0000
  N   N34       1.0  0.20248214752957241  0.17162890494558525  0.1767910754494082  1.0000
  N   N35       1.0  0.7024789923752339  0.17162298321281358  0.3232098646512398  1.0000
  N   N36       1.0  0.7975155723828424  0.8283754503740183  0.8232088779222906  1.0000
