data_image0
_chemical_formula_structural       Al4H28C37O22
_chemical_formula_sum              "Al4 H28 C37 O22"
_cell_length_a       6.666831951635535
_cell_length_b       16.57294192558409
_cell_length_c       18.535101755360888
_cell_angle_alpha    106.83568225374931
_cell_angle_beta     89.4419517393042
_cell_angle_gamma    90.42115606916268

_space_group_name_H-M_alt    "P 1"
_space_group_IT_number       1

loop_
  _space_group_symop_operation_xyz
  'x, y, z'

loop_
  _atom_site_type_symbol
  _atom_site_label
  _atom_site_symmetry_multiplicity
  _atom_site_fract_x
  _atom_site_fract_y
  _atom_site_fract_z
  _atom_site_occupancy
  Al  Al1       1.0  0.13254313210401852  0.4993922913000902  0.49833036569052785  1.0000
  Al  Al2       1.0  0.632479545825781  0.50159758563823  0.5013244690819719  1.0000
  Al  Al3       1.0  0.6376247769299823  0.9995394581559224  0.9997079351709459  1.0000
  Al  Al4       1.0  0.1375114036621383  0.0015680906242821003  0.0020181942407120003  1.0000
  H   H1        1.0  0.6265269311742258  0.8638857245592888  0.7735530686402968  1.0000
  H   H2        1.0  0.7616170647104213  0.7706774658105787  0.6293682075888755  1.0000
  H   H3        1.0  0.5866246971970952  0.7318321672499412  0.6833641485340465  1.0000
  H   H4        1.0  0.6327985989498545  0.7459971853186502  0.8338764169000187  1.0000
  H   H5        1.0  0.1907289191474035  0.7659174399467121  0.8214172626347533  1.0000
  H   H6        1.0  0.1903734798358911  0.849763206756329  0.7809200590956922  1.0000
  H   H7        1.0  0.13653241818995812  0.7587313948510259  0.6591730568351865  1.0000
  H   H8        1.0  0.2140693273880103  0.6787917720814323  0.698471925663043  1.0000
  H   H9        1.0  0.8539449149359372  0.7257564693558507  0.8782235678831469  1.0000
  H   H10       1.0  0.9697246579487739  0.6238531119397026  0.7698207278978659  1.0000
  H   H11       1.0  0.6921365559158021  0.34320519111174974  0.2820375152269818  1.0000
  H   H12       1.0  0.6814962870972037  0.2679561521016822  0.3319723323427155  1.0000
  H   H13       1.0  0.6844193491011269  0.23683477378936152  0.16737120987080087  1.0000
  H   H14       1.0  0.3665471352632181  0.39393780091651825  0.23791456370252462  1.0000
  H   H15       1.0  0.34635392637861884  0.2822206112586515  0.127913421458544  1.0000
  H   H16       1.0  0.12074152397054413  0.2561555960714159  0.3400088395041081  1.0000
  H   H17       1.0  0.34320883767802  0.22050102705002675  0.3717660991663935  1.0000
  H   H18       1.0  0.3668340649635766  0.1089553233729106  0.26176323745622204  1.0000
  H   H19       1.0  0.13446789878526033  0.13924968760456122  0.23278287816376064  1.0000
  H   H20       1.0  0.1334809981614384  0.362266880530953  0.2672456598894257  1.0000
  H   H21       1.0  0.6933413619061142  0.16165703308660545  0.21734245899502716  1.0000
  H   H22       1.0  0.8523761444401715  0.8856893363989047  0.7315310802837517  1.0000
  H   H23       1.0  0.1234665303466258  0.24516231104581016  0.16014020339161314  1.0000
  H   H24       1.0  0.6131897444545873  0.4777098104475358  0.7146143284701268  1.0000
  H   H25       1.0  0.37908485298279265  0.6064279946394893  0.548184192903662  1.0000
  H   H26       1.0  0.8781156688800492  0.3891530711637118  0.4757652445489526  1.0000
  H   H27       1.0  0.383137187436958  0.8923758222705517  0.9586478314562257  1.0000
  H   H28       1.0  0.8858940474201235  0.11161657689635263  0.0293536438613629  1.0000
  C   C1        1.0  0.3841649032753409  0.386169309608846  0.38437542142241915  1.0000
  C   C2        1.0  0.37796282403260056  0.41349452038911494  0.5856520030242294  1.0000
  C   C3        1.0  0.8871546595077789  0.6154206466735916  0.6159531261164518  1.0000
  C   C4        1.0  0.8837992851305573  0.5866366641177266  0.4144236811328241  1.0000
  C   C5        1.0  0.8852900202412785  0.6359836284192115  0.36191413087539814  1.0000
  C   C6        1.0  0.885696523245045  0.6799905062172656  0.31889357259289147  1.0000
  C   C7        1.0  0.8853838682754047  0.7284250397900537  0.2721519377553747  1.0000
  C   C8        1.0  0.8845220452725613  0.7731700784532195  0.22930713162643457  1.0000
  C   C9        1.0  0.8833843065085177  0.8215956624092515  0.18255881873299273  1.0000
  C   C10       1.0  0.8824662092856101  0.8656192879951591  0.13956814364921402  1.0000
  C   C11       1.0  0.7711794121569328  0.8369846335955063  0.7499552877581692  1.0000
  C   C12       1.0  0.7396894140966525  0.7565909551726835  0.6833357856104741  1.0000
  C   C13       1.0  0.7953752527168163  0.7361272774161665  0.8263872200548263  1.0000
  C   C14       1.0  0.10905683870853983  0.7923408778490427  0.7822613395489029  1.0000
  C   C15       1.0  0.8941967734123111  0.8147305528262835  0.8117421331826264  1.0000
  C   C16       1.0  0.8910957470753047  0.6883335465770344  0.6883631199194582  1.0000
  C   C17       1.0  0.8374839303478583  0.6576520060864369  0.7589942227697862  1.0000
  C   C18       1.0  0.1019046063042737  0.7281011637208864  0.703213260335005  1.0000
  C   C19       1.0  0.6076595448660669  0.28797615137341387  0.2872636247055738  1.0000
  C   C20       1.0  0.6090098098363586  0.2163755110275929  0.21217073807849124  1.0000
  C   C21       1.0  0.2853525138677782  0.34029405923551787  0.2482083471160053  1.0000
  C   C22       1.0  0.2765933638852189  0.2375683501808226  0.32414163593663403  1.0000
  C   C23       1.0  0.3910385569386605  0.31414359835161326  0.31177137925327264  1.0000
  C   C24       1.0  0.39323843314635804  0.18897113661697068  0.18785850462938214  1.0000
  C   C25       1.0  0.27874242971285673  0.2647615800808296  0.1756934015134775  1.0000
  C   C26       1.0  0.2857280365810766  0.16210967252314393  0.2515824381671905  1.0000
  C   C27       1.0  0.37478776789065915  0.3670333202076891  0.640600853006852  1.0000
  C   C28       1.0  0.3787787309968423  0.32465232474170586  0.6849917236504056  1.0000
  C   C29       1.0  0.3825435133215436  0.2770632042321353  0.7324092535352591  1.0000
  C   C30       1.0  0.38644063231395637  0.23199968397982937  0.774945468580114  1.0000
  C   C31       1.0  0.3891993350468895  0.18288773358070642  0.8210494188108299  1.0000
  C   C32       1.0  0.39084833069195213  0.13797533175253562  0.8632410202600485  1.0000
  C   C33       1.0  0.390330660658897  0.0875213005694562  0.9149670102457605  1.0000
  C   C34       1.0  0.3891144764137735  0.11647073983911581  0.11556343146892802  1.0000
  C   C35       1.0  0.8847774174690954  0.9150527259022924  0.08708949165772134  1.0000
  C   C36       1.0  0.8895393987848691  0.8859328733326779  0.8848524290866777  1.0000
  C   C37       1.0  0.6626488583970627  0.5961715303561306  0.7458734241299467  1.0000
  O   O1        1.0  0.5516081524129959  0.43539461101368476  0.56873047931672  1.0000
  O   O2        1.0  0.21205109363954483  0.41467344975335163  0.4093542494121536  1.0000
  O   O3        1.0  0.0542968695112833  0.5691976657042378  0.4361098492091601  1.0000
  O   O4        1.0  0.20963005874223484  0.4268620445814122  0.5599074207369769  1.0000
  O   O5        1.0  0.05422305721238269  0.5852359699055542  0.5875253953254572  1.0000
  O   O6        1.0  0.5495897529093199  0.4124988370818984  0.4164918001214843  1.0000
  O   O7        1.0  0.38251983409867313  0.5514891142646975  0.5109824308768296  1.0000
  O   O8        1.0  0.7158746831927658  0.5906046962915994  0.5876338463288775  1.0000
  O   O9        1.0  0.7118594258116319  0.5667733501855919  0.4344901999756985  1.0000
  O   O10       1.0  0.8809155096702099  0.45014853378863523  0.4917321411158327  1.0000
  O   O11       1.0  0.21784193830040272  0.09015206688356162  0.0882874625675143  1.0000
  O   O12       1.0  0.5614171622922228  0.06832414456879833  0.93468599376547  1.0000
  O   O13       1.0  0.7176902195700593  0.9124709686536933  0.9119692789251701  1.0000
  O   O14       1.0  0.5563375981691223  0.08729932820503451  0.08617378948525811  1.0000
  O   O15       1.0  0.7148651350489884  0.9318378204877436  0.06443575025017619  1.0000
  O   O16       1.0  0.21829901308272073  0.06892066789244922  0.9359837543200556  1.0000
  O   O17       1.0  0.3862262173598978  0.9498908315453678  0.9911993240058337  1.0000
  O   O18       1.0  0.05728406058557311  0.9356818070863329  0.06820799530086671  1.0000
  O   O19       1.0  0.056337155890943805  0.912912360959453  0.915567550081157  1.0000
  O   O20       1.0  0.8875209182474962  0.050870375962333014  0.008754886469638698  1.0000
  O   O21       1.0  0.4847407457028936  0.6147181988705698  0.7504754158012403  1.0000
  O   O22       1.0  0.7293924439574584  0.5157003252074477  0.7282871528344402  1.0000
