data_image0
_chemical_formula_structural       Zn4H32C40N4O20
_chemical_formula_sum              "Zn4 H32 C40 N4 O20"
_cell_length_a       5.217242245618794
_cell_length_b       10.522956916631403
_cell_length_c       18.650698440023827
_cell_angle_alpha    89.99992547679368
_cell_angle_beta     89.99983311596331
_cell_angle_gamma    92.58821364701642

_space_group_name_H-M_alt    "P 1"
_space_group_IT_number       1

loop_
  _space_group_symop_operation_xyz
  'x, y, z'

loop_
  _atom_site_type_symbol
  _atom_site_label
  _atom_site_symmetry_multiplicity
  _atom_site_fract_x
  _atom_site_fract_y
  _atom_site_fract_z
  _atom_site_occupancy
  Zn  Zn1       1.0  0.5454383188596807  0.7705141109307476  0.5542452247354959  1.0000
  Zn  Zn2       1.0  0.5454429234825257  0.27051369330452263  0.9457540688657885  1.0000
  Zn  Zn3       1.0  0.4545664903604134  0.22948543873921784  0.44575622443092305  1.0000
  Zn  Zn4       1.0  0.4545633642914879  0.7294820403126892  0.05424523560959929  1.0000
  H   H1        1.0  0.9672088689253686  0.6724301854837763  0.597782328533313  1.0000
  H   H2        1.0  0.9672157339624832  0.172428916929718  0.9022188302933714  1.0000
  H   H3        1.0  0.03279008434253681  0.3275684466564002  0.4022191206358698  1.0000
  H   H4        1.0  0.03278256378806081  0.8275640079701316  0.0977794018404552  1.0000
  H   H5        1.0  0.7917826371057402  0.5560964266027285  0.5591098973910675  1.0000
  H   H6        1.0  0.791785595398963  0.056097935072600094  0.9408925642104292  1.0000
  H   H7        1.0  0.20821440059107488  0.4439022167619484  0.44089262412480684  1.0000
  H   H8        1.0  0.20820919898765317  0.9438978659012207  0.0591056679238164  1.0000
  H   H9        1.0  0.44391933353568197  0.9568827483699781  0.7943943826165452  1.0000
  H   H10       1.0  0.44391993153663384  0.4568763210395231  0.7056075408374979  1.0000
  H   H11       1.0  0.5560846526813991  0.043126324601324505  0.20560599420085168  1.0000
  H   H12       1.0  0.5560766691234419  0.5431185174920898  0.2943976615446928  1.0000
  H   H13       1.0  0.19687297841884546  0.9625603856528216  0.9090684729326596  1.0000
  H   H14       1.0  0.196869244334458  0.4625561881173681  0.5909352603599203  1.0000
  H   H15       1.0  0.8031340741338155  0.03744200641350659  0.09093297623179099  1.0000
  H   H16       1.0  0.8031281211126426  0.537445308865415  0.40907047819248277  1.0000
  H   H17       1.0  0.6735192900610941  0.667311979284179  0.8284478087612399  1.0000
  H   H18       1.0  0.6735255529274795  0.16730180066387848  0.6715546703678825  1.0000
  H   H19       1.0  0.3264807557804872  0.33269616493419824  0.1715504233663339  1.0000
  H   H20       1.0  0.326473291098722  0.8326958802723254  0.32844409793693796  1.0000
  H   H21       1.0  0.9161123913818088  0.6642009206926573  0.7140594995464795  1.0000
  H   H22       1.0  0.9161212922546512  0.16419042664861647  0.7859422439281474  1.0000
  H   H23       1.0  0.08388223553313882  0.33581011082624473  0.2859381964093402  1.0000
  H   H24       1.0  0.08386934322271604  0.8358025431519708  0.2140581329006466  1.0000
  H   H25       1.0  0.7050574015395129  0.8948439291165189  0.41547390264504  1.0000
  H   H26       1.0  0.7050722344154251  0.3948339284903356  0.0845245480455716  1.0000
  H   H27       1.0  0.2949401824357523  0.10515947028520152  0.5845286188688803  1.0000
  H   H28       1.0  0.2949400185888393  0.6051636738695692  0.9154704670430505  1.0000
  H   H29       1.0  0.9280149462592178  0.9549197978296607  0.626663198129144  1.0000
  H   H30       1.0  0.928015215078446  0.4549253066040039  0.8733356433065111  1.0000
  H   H31       1.0  0.07198061289485481  0.045082661590520004  0.3733393233859559  1.0000
  H   H32       1.0  0.07199523161600753  0.5450732581891842  0.126659371782516  1.0000
  C   C1        1.0  0.33823966956622087  0.8140597259273505  0.6780556717890179  1.0000
  C   C2        1.0  0.33824627933893936  0.31404915089657237  0.8219453709953939  1.0000
  C   C3        1.0  0.6617510169648354  0.18595037683657978  0.3219414879958293  1.0000
  C   C4        1.0  0.661746271692735  0.6859438076754004  0.1780571505244097  1.0000
  C   C5        1.0  0.19316053282966555  0.8120095694099234  0.7468633436899452  1.0000
  C   C6        1.0  0.1931644661981977  0.31200299789291114  0.7531367488865612  1.0000
  C   C7        1.0  0.8068396222620108  0.1879995260144867  0.2531359607831334  1.0000
  C   C8        1.0  0.8068339407940571  0.6879908782109113  0.2468641641116278  1.0000
  C   C9        1.0  0.273032151103017  0.8950889002926772  0.8022349331716612  1.0000
  C   C10       1.0  0.2730313523523762  0.3950863091015647  0.6977650326076414  1.0000
  C   C11       1.0  0.7269657606505007  0.10491735273400593  0.1977654436492884  1.0000
  C   C12       1.0  0.7269659038642046  0.6049142366799884  0.3022358803885936  1.0000
  C   C13       1.0  0.13477545664432003  0.8983652858196507  0.8659645062919595  1.0000
  C   C14       1.0  0.13476957592014568  0.3983628915290254  0.6340371806020499  1.0000
  C   C15       1.0  0.8652296803540268  0.10163711747529192  0.1340347981814816  1.0000
  C   C16       1.0  0.8652293773477595  0.6016357406111511  0.3659642685671329  1.0000
  C   C17       1.0  0.9162546878899606  0.8172131982021327  0.8751172192665136  1.0000
  C   C18       1.0  0.9162463315310917  0.31720513133436873  0.6248849490705978  1.0000
  C   C19       1.0  0.0837525831768815  0.1827910962796935  0.1248836937242075  1.0000
  C   C20       1.0  0.08374665652613802  0.6827916320679251  0.3751170362746876  1.0000
  C   C21       1.0  0.8412735745719075  0.7312353852240178  0.8207284338216567  1.0000
  C   C22       1.0  0.8412744472513082  0.23122902534092296  0.6792733231752095  1.0000
  C   C23       1.0  0.15872264013587772  0.26877278144541356  0.1792703344804494  1.0000
  C   C24       1.0  0.15872067489119251  0.7687696292523755  0.3207270536496551  1.0000
  C   C25       1.0  0.9776292755140686  0.7291818425875363  0.7567597279118132  1.0000
  C   C26       1.0  0.9776388402755601  0.22917336032079313  0.7432435256994552  1.0000
  C   C27       1.0  0.02236693919092402  0.27082632408122015  0.2432395765632478  1.0000
  C   C28       1.0  0.022363179330717728  0.7708185909150984  0.25675845964382654  1.0000
  C   C29       1.0  0.7620058930997402  0.8226611816424452  0.9424954551712473  1.0000
  C   C30       1.0  0.7620007013707308  0.3226580321550828  0.5575073736504592  1.0000
  C   C31       1.0  0.23799891612594593  0.17733836802889874  0.0575049216492687  1.0000
  C   C32       1.0  0.23800219229225666  0.6773415287428152  0.4424924669978978  1.0000
  C   C33       1.0  0.8382528502660948  0.94218206504754  0.45279790144852683  1.0000
  C   C34       1.0  0.8382628720358483  0.442176949731632  0.047199867901476  1.0000
  C   C35       1.0  0.16174249038218846  0.05781849195920331  0.5472035477214591  1.0000
  C   C36       1.0  0.16174533132883082  0.5578187726658826  0.9527946110165715  1.0000
  C   C37       1.0  0.9638118093791661  0.9747065061171795  0.5701784281304043  1.0000
  C   C38       1.0  0.9638128583207289  0.47470710295908003  0.9298203691583139  1.0000
  C   C39       1.0  0.03618577461007529  0.025296893287972494  0.42982141251876277  1.0000
  C   C40       1.0  0.03620131023505022  0.525290488171521  0.0701773267942656  1.0000
  N   N1        1.0  0.8039189698393372  0.9170592739298513  0.5228290823567505  1.0000
  N   N2        1.0  0.8039270779084832  0.41705875338882964  0.9771698897909147  1.0000
  N   N3        1.0  0.1960802019371499  0.0829412606244517  0.4771729029845985  1.0000
  N   N4        1.0  0.1960869814083921  0.5829378865384811  0.0228245891243617  1.0000
  O   O1        1.0  0.2562671055387611  0.7393242254937178  0.6261868980306318  1.0000
  O   O2        1.0  0.25626797386944844  0.2393183073290288  0.8738153395815473  1.0000
  O   O3        1.0  0.743732284757499  0.26067821147746884  0.3738134787910852  1.0000
  O   O4        1.0  0.74373021460584  0.7606736663585992  0.1261866457633189  1.0000
  O   O5        1.0  0.5346941080764012  0.8862026220095417  0.6694853754577181  1.0000
  O   O6        1.0  0.5347007377217635  0.3861929762381421  0.8305138430068338  1.0000
  O   O7        1.0  0.46530008182137556  0.1138046046810999  0.3305112481537762  1.0000
  O   O8        1.0  0.46529181331830227  0.6137999823358838  0.16948706999411908  1.0000
  O   O9        1.0  0.6440836502676605  0.7179141491386363  0.9621103572905697  1.0000
  O   O10       1.0  0.6440843005747752  0.21791006500468063  0.5378921095434208  1.0000
  O   O11       1.0  0.3559324338424333  0.2820834307633433  0.03788948335301969  1.0000
  O   O12       1.0  0.3559278431514273  0.7820865861423272  0.46210719492919594  1.0000
  O   O13       1.0  0.7494445516776197  0.9246785883600882  0.9774726657105646  1.0000
  O   O14       1.0  0.7494457992426434  0.4246783484015424  0.5225300994144817  1.0000
  O   O15       1.0  0.2505506797177759  0.0753210174399257  0.0225282472868571  1.0000
  O   O16       1.0  0.2505535910480178  0.5753240885682729  0.4774713497531379  1.0000
  O   O17       1.0  0.7901631109421173  0.642312825630441  0.5842740717934802  1.0000
  O   O18       1.0  0.7901699443416348  0.14231247368741154  0.9157261838061429  1.0000
  O   O19       1.0  0.20983392675189802  0.35768581773354674  0.41572898589534907  1.0000
  O   O20       1.0  0.20982452229748821  0.8576804736689853  0.0842682951186191  1.0000
