data_image0
_chemical_formula_structural       Al4H8C32S8Cl4O20
_chemical_formula_sum              "Al4 H8 C32 S8 Cl4 O20"
_cell_length_a       6.681596243762225
_cell_length_b       15.814555525827705
_cell_length_c       18.881441151328357
_cell_angle_alpha    89.97112250226608
_cell_angle_beta     89.47171146317643
_cell_angle_gamma    89.97086170432588

_space_group_name_H-M_alt    "P 1"
_space_group_IT_number       1

loop_
  _space_group_symop_operation_xyz
  'x, y, z'

loop_
  _atom_site_type_symbol
  _atom_site_label
  _atom_site_symmetry_multiplicity
  _atom_site_fract_x
  _atom_site_fract_y
  _atom_site_fract_z
  _atom_site_occupancy
  Al  Al1       1.0  0.009231170888497802  0.9981958829081706  0.5001363665304055  1.0000
  Al  Al2       1.0  0.50987155437155  0.0013530561491848  0.5023423763503062  1.0000
  Al  Al3       1.0  0.9924346166867296  0.5020879549277595  0.00128974051119  1.0000
  Al  Al4       1.0  0.4928336190869373  0.4984728781615075  0.0024649018084588  1.0000
  H   H1        1.0  0.7656821492474961  0.10528697290591539  0.47371953835211406  1.0000
  H   H2        1.0  0.2689863972028945  0.8952401199064822  0.4719262844389789  1.0000
  H   H3        1.0  0.7481984899843256  0.3967833764917543  0.9715524258606933  1.0000
  H   H4        1.0  0.2503008463390159  0.604450149110427  0.9724823949860166  1.0000
  H   H5        1.0  0.5451650792079549  0.2853217026794043  0.8486615349012254  1.0000
  H   H6        1.0  0.030413927698333502  0.71266652818219  0.1469188167402962  1.0000
  H   H7        1.0  0.4541442320034007  0.7195268473953362  0.8523828983631034  1.0000
  H   H8        1.0  0.5299560159626252  0.28924403498815104  0.1478735010655257  1.0000
  C   C1        1.0  0.266145311701905  0.10375698911980892  0.4071062059821884  1.0000
  C   C2        1.0  0.245854285741018  0.09707455998098882  0.597990030815005  1.0000
  C   C3        1.0  0.7508531833239755  0.8994713154538658  0.5956360026467066  1.0000
  C   C4        1.0  0.7651421097742033  0.8984018297781731  0.4054037320392254  1.0000
  C   C5        1.0  0.231301762235077  0.4024915382527253  0.098359982136806  1.0000
  C   C6        1.0  0.250889275266772  0.39881753871368625  0.9051850785387076  1.0000
  C   C7        1.0  0.7484573888676849  0.6018449840872152  0.9053260363541896  1.0000
  C   C8        1.0  0.7323247025626997  0.5981900721355873  0.0980033231534918  1.0000
  C   C9        1.0  0.09367849312847909  0.21183427988709977  0.6791453222200303  1.0000
  C   C10       1.0  0.4006135013701878  0.2875400264413344  0.8226936083355127  1.0000
  C   C11       1.0  0.2438805041128944  0.1561391126597584  0.6583266215194215  1.0000
  C   C12       1.0  0.24735462390211888  0.3403808725393915  0.8446392631022448  1.0000
  C   C13       1.0  0.3420752515521315  0.23871866713414389  0.763750359374562  1.0000
  C   C14       1.0  0.14775367209748677  0.25791245598701806  0.7403258072288281  1.0000
  C   C15       1.0  0.6029290645275155  0.7824792112956303  0.3282297649115762  1.0000
  C   C16       1.0  0.8908284117095346  0.7096641603308527  0.1769603175648982  1.0000
  C   C17       1.0  0.7548174232460169  0.8386193054798667  0.34606538052031505  1.0000
  C   C18       1.0  0.7362188986832122  0.6559500150219507  0.15890566953362392  1.0000
  C   C19       1.0  0.8403483947119311  0.7570486738906653  0.23793561157939538  1.0000
  C   C20       1.0  0.650151976654314  0.7366945436981427  0.2659200688042276  1.0000
  C   C21       1.0  0.9006438474947771  0.7824370119009102  0.6751647390428346  1.0000
  C   C22       1.0  0.5959480839399375  0.714248238450523  0.8239783303794326  1.0000
  C   C23       1.0  0.7538805781288146  0.840107885772035  0.6554285770197552  1.0000
  C   C24       1.0  0.7461445953762578  0.6593098191158402  0.8441721139902256  1.0000
  C   C25       1.0  0.6539308708040039  0.7606796593728474  0.7631767282804063  1.0000
  C   C26       1.0  0.8451263017588246  0.7380657285001816  0.7373642220523848  1.0000
  C   C27       1.0  0.10437866772299027  0.21942045167798338  0.3296033317380704  1.0000
  C   C28       1.0  0.3903944786077743  0.2919509358922596  0.1778977308742711  1.0000
  C   C29       1.0  0.2570464156039591  0.16369065813275088  0.3477160123625893  1.0000
  C   C30       1.0  0.2346186505640659  0.3450025687527186  0.1595281349632174  1.0000
  C   C31       1.0  0.3411947561494699  0.24485392377443563  0.23914941595921851  1.0000
  C   C32       1.0  0.1506689241562498  0.2648588804691272  0.2670285553182765  1.0000
  S   S1        1.0  0.4534198832829474  0.1624357473195062  0.7116862146248693  1.0000
  S   S2        1.0  0.032807146819237694  0.33253821249451926  0.7931266642740766  1.0000
  S   S3        1.0  0.956950962249813  0.8335575680152942  0.2874859679268269  1.0000
  S   S4        1.0  0.5300186953315061  0.6615468899011533  0.2159589579993337  1.0000
  S   S5        1.0  0.5464980656518109  0.8380583078439231  0.7118029313577026  1.0000
  S   S6        1.0  0.957074286520772  0.6624589321669346  0.7891379326596777  1.0000
  S   S7        1.0  0.45916812018101893  0.1690566420563258  0.2891966679855855  1.0000
  S   S8        1.0  0.028759069278152104  0.3391706891060977  0.2166079039507309  1.0000
  Cl  Cl1       1.0  0.8777053701594753  0.22973601181770678  0.6339856185503407  1.0000
  Cl  Cl2       1.0  0.38777392229798824  0.7638961701614164  0.3755303786473831  1.0000
  Cl  Cl3       1.0  0.1181984053634579  0.7620385615981179  0.6303765446710443  1.0000
  Cl  Cl4       1.0  0.8893205272889018  0.23798927689918506  0.37693426051716733  1.0000
  O   O1        1.0  0.1010731064181698  0.08677234459519671  0.4380999419751674  1.0000
  O   O2        1.0  0.415462400249936  0.0836547276558477  0.5684121335873726  1.0000
  O   O3        1.0  0.5826816683149616  0.9342655222126695  0.5827405561261614  1.0000
  O   O4        1.0  0.9373632795395395  0.9298252862884554  0.4184532924116482  1.0000
  O   O5        1.0  0.913612829119188  0.9115640344903325  0.5616310267199935  1.0000
  O   O6        1.0  0.6024929044270381  0.9137277103248707  0.4386685580189392  1.0000
  O   O7        1.0  0.43835117130612394  0.07380095193255437  0.4223835040919965  1.0000
  O   O8        1.0  0.07966293063225288  0.0646639218259395  0.5806894640843225  1.0000
  O   O9        1.0  0.7604889293251488  0.052021561646171194  0.4992008290420245  1.0000
  O   O10       1.0  0.2613951072746091  0.9478645149580629  0.4983029511217865  1.0000
  O   O11       1.0  0.0637359472796035  0.4356798049507233  0.0821934678602005  1.0000
  O   O12       1.0  0.42241461337301445  0.42570003076448165  0.924051622209788  1.0000
  O   O13       1.0  0.5829005528373655  0.5874071077732523  0.9374560256651705  1.0000
  O   O14       1.0  0.8961293263120852  0.5877458409688571  0.06403209334816042  1.0000
  O   O15       1.0  0.9196446136852641  0.5713988154311807  0.9212814700430911  1.0000
  O   O16       1.0  0.5647799108478535  0.5639539237374721  0.0835124458511487  1.0000
  O   O17       1.0  0.3969704027381411  0.41363886639098973  0.0658428935266784  1.0000
  O   O18       1.0  0.0821814541926145  0.417014126115653  0.9338822427526167  1.0000
  O   O19       1.0  0.7445254066882541  0.448003749940348  0.9997538460812478  1.0000
  O   O20       1.0  0.24426809812578645  0.5524559901023026  0.9996442228106943  1.0000
