data_image0
_chemical_formula_structural       Cd2CuH10C18O14
_chemical_formula_sum              "Cd2 Cu1 H10 C18 O14"
_cell_length_a       6.277809084273325
_cell_length_b       9.326005211533388
_cell_length_c       10.09315568669144
_cell_angle_alpha    64.2818814852932
_cell_angle_beta     77.84007677571802
_cell_angle_gamma    76.42439497298422

_space_group_name_H-M_alt    "P 1"
_space_group_IT_number       1

loop_
  _space_group_symop_operation_xyz
  'x, y, z'

loop_
  _atom_site_type_symbol
  _atom_site_label
  _atom_site_symmetry_multiplicity
  _atom_site_fract_x
  _atom_site_fract_y
  _atom_site_fract_z
  _atom_site_occupancy
  Cd  Cd1       1.0  0.7805059968259513  0.5784763909551174  0.13997891090861  1.0000
  Cd  Cd2       1.0  0.2194962339866748  0.42152463187765926  0.8600168177810661  1.0000
  Cu  Cu1       1.0  0.4999975225596742  0.5000017504393457  0.49999540096046513  1.0000
  H   H1        1.0  0.30857229106935335  0.5607449813649622  0.16813995599346754  1.0000
  H   H2        1.0  0.6914325781293797  0.43925236018225183  0.8318647945600903  1.0000
  H   H3        1.0  0.2864930545719844  0.7278234751974467  0.17409177824718114  1.0000
  H   H4        1.0  0.71350592354338  0.2721714578951548  0.8259187286465635  1.0000
  H   H5        1.0  0.7087889638139016  0.023500127421932904  0.6894555843517978  1.0000
  H   H6        1.0  0.2912100634677302  0.9765008973861528  0.3105425781879634  1.0000
  H   H7        1.0  0.8360844236626904  0.5914104413239087  0.6112639884835575  1.0000
  H   H8        1.0  0.16390897052488634  0.40858696882695267  0.3887403747163988  1.0000
  H   H9        1.0  0.7879562597410441  0.055827938801648706  0.24340238437390138  1.0000
  H   H10       1.0  0.2120517254378029  0.9441694213336049  0.756596963719943  1.0000
  C   C1        1.0  0.743310553738894  0.058625015980503306  0.4607337338417423  1.0000
  C   C2        1.0  0.2566873585722362  0.9413736042644557  0.5392655447265328  1.0000
  C   C3        1.0  0.7386695165750226  0.9654067825319076  0.6128183667484562  1.0000
  C   C4        1.0  0.26132896554435087  0.03459666153587192  0.38717791761473563  1.0000
  C   C5        1.0  0.7769682941099418  0.796869838410416  0.6676919902343172  1.0000
  C   C6        1.0  0.22303242248807453  0.2031311648466669  0.33230792399002956  1.0000
  C   C7        1.0  0.8099388288600691  0.7222272671260512  0.5697948306294123  1.0000
  C   C8        1.0  0.19005745250193934  0.2777713609610188  0.43020467532736023  1.0000
  C   C9        1.0  0.8104453727560782  0.8151259247276741  0.4176743890220039  1.0000
  C   C10       1.0  0.1895558306369409  0.18487267297862078  0.5823254243058216  1.0000
  C   C11       1.0  0.7834174504913916  0.983485314646551  0.3622347892513956  1.0000
  C   C12       1.0  0.2165821803197545  0.0165132771929493  0.6377672305380174  1.0000
  C   C13       1.0  0.7014710273910438  0.23871541335926594  0.4044051731974748  1.0000
  C   C14       1.0  0.2985252539709576  0.761283214727797  0.5955943327593048  1.0000
  C   C15       1.0  0.7840552906693147  0.6994225175202757  0.8293804315458999  1.0000
  C   C16       1.0  0.21594139006250396  0.3005821200288707  0.17061860449540234  1.0000
  C   C17       1.0  0.8335838312531436  0.7344337118595944  0.3157251002635136  1.0000
  C   C18       1.0  0.1664203760488192  0.26556607636511126  0.6842738139673018  1.0000
  O   O1        1.0  0.6467013706976559  0.2931699027776063  0.5059803837403009  1.0000
  O   O2        1.0  0.3532940491455179  0.7068323644806611  0.4940148206468039  1.0000
  O   O3        1.0  0.7208499330279992  0.3202641867070072  0.26551918853997597  1.0000
  O   O4        1.0  0.2791476921101861  0.6797356465950202  0.7344786561717528  1.0000
  O   O5        1.0  0.9203453351820485  0.7937038645961678  0.18387423228015368  1.0000
  O   O6        1.0  0.07967275204814683  0.2062922285749309  0.816126174875805  1.0000
  O   O7        1.0  0.7620428534635553  0.5962777936070293  0.366374473753659  1.0000
  O   O8        1.0  0.23795582827787604  0.40372445796702994  0.6336202758564583  1.0000
  O   O9        1.0  0.8334368949815383  0.5436611905414422  0.8797773937847924  1.0000
  O   O10       1.0  0.1665601604741056  0.4563422133872876  0.12022604472269198  1.0000
  O   O11       1.0  0.7422690952936788  0.7730425574547442  0.9143089977620279  1.0000
  O   O12       1.0  0.25772621247831756  0.22696088173389484  0.08569070998778015  1.0000
  O   O13       1.0  0.3824983568732846  0.6229938633697358  0.19931235919865736  1.0000
  O   O14       1.0  0.6175065123254486  0.3770034781774855  0.8006923913549003  1.0000
