data_image0
_chemical_formula_structural       H32Pb2C8Br4N8
_chemical_formula_sum              "H32 Pb2 C8 Br4 N8"
_cell_length_a       7.547029660998724
_cell_length_b       7.54869445469674
_cell_length_c       12.013363578541407
_cell_angle_alpha    98.20414267643395
_cell_angle_beta     100.23727141247835
_cell_angle_gamma    119.21197727263508

_space_group_name_H-M_alt    "P 1"
_space_group_IT_number       1

loop_
  _space_group_symop_operation_xyz
  'x, y, z'

loop_
  _atom_site_type_symbol
  _atom_site_label
  _atom_site_symmetry_multiplicity
  _atom_site_fract_x
  _atom_site_fract_y
  _atom_site_fract_z
  _atom_site_occupancy
  H   H1        1.0  0.16972228092171787  0.7718268255962285  0.5057830140137723  1.0000
  H   H2        1.0  0.7655695581282985  0.663972789717292  0.9936674441957647  1.0000
  H   H3        1.0  0.830279722888129  0.22817692174991316  0.494218290325044  1.0000
  H   H4        1.0  0.23442944339434044  0.33602784619023407  0.006334929063292806  1.0000
  H   H5        1.0  0.18705544519708883  0.5945466435046994  0.41721794161112763  1.0000
  H   H6        1.0  0.6763730029901609  0.7692787600921419  0.08237446803470755  1.0000
  H   H7        1.0  0.8129457183613056  0.4054555289438612  0.5827831362433855  1.0000
  H   H8        1.0  0.3236265015295459  0.2307202948832483  0.9176278268688023  1.0000
  H   H9        1.0  0.5379637714323166  0.8374003774953706  0.5456912614655423  1.0000
  H   H10       1.0  0.7922380225719223  0.9930880738284172  0.9542962355613298  1.0000
  H   H11       1.0  0.46203820018120473  0.1626033213677829  0.454307537846887  1.0000
  H   H12       1.0  0.2077613376693179  0.0069157502308173  0.04570811255516819  1.0000
  H   H13       1.0  0.5230000451107912  0.8665114797680503  0.4012695629968732  1.0000
  H   H14       1.0  0.9647838388849267  0.12114435048837893  0.09884076886805812  1.0000
  H   H15       1.0  0.4770010862512849  0.1334906441975221  0.5987290098312599  1.0000
  H   H16       1.0  0.035213840853415904  0.8788563237756932  0.9011631262798546  1.0000
  H   H17       1.0  0.7500005677735261  0.4283973229241909  0.3791447028541981  1.0000
  H   H18       1.0  0.5495612188570149  0.37181775547029616  0.12115481800716309  1.0000
  H   H19       1.0  0.24999535633715209  0.5716000884177462  0.6208528942635568  1.0000
  H   H20       1.0  0.4504378840156633  0.6281780467094008  0.8788421620037282  1.0000
  H   H21       1.0  0.4962277351042417  0.38901321866651983  0.3199328977037225  1.0000
  H   H22       1.0  0.5687923021006824  0.1769292430444835  0.18044656972675446  1.0000
  H   H23       1.0  0.5037716942907126  0.6109857231818979  0.6800635521382219  1.0000
  H   H24       1.0  0.4312103275204819  0.8230681219636864  0.8195509330259158  1.0000
  H   H25       1.0  0.8144205529410159  0.7617652876074884  0.41462530332752573  1.0000
  H   H26       1.0  0.8472477010570073  0.3999733223944303  0.08555042334675277  1.0000
  H   H27       1.0  0.18557672515029117  0.23823213386089756  0.5853732769277613  1.0000
  H   H28       1.0  0.15275561380503433  0.600030370434169  0.9144485240944178  1.0000
  H   H29       1.0  0.6611489697300854  0.7236535264577313  0.2840234342839452  1.0000
  H   H30       1.0  0.9394742114204035  0.37738264270993227  0.2163078434805215  1.0000
  H   H31       1.0  0.3388535156126125  0.2763486076342829  0.7159761216817202  1.0000
  H   H32       1.0  0.06052960643870618  0.6226194691865246  0.7836910256050942  1.0000
  Pb  Pb1       1.0  0.0797329568256868  0.8298667316953041  0.24972940639774066  1.0000
  Pb  Pb2       1.0  0.9202717442133023  0.17013701974271814  0.7502730292073493  1.0000
  C   C1        1.0  0.46503547164071785  0.8851318924866263  0.4774304864252129  1.0000
  C   C2        1.0  0.9075753681580565  0.9875589612571858  0.022535808946017283  1.0000
  C   C3        1.0  0.5349678646855409  0.11487183266396532  0.5225701310335467  1.0000
  C   C4        1.0  0.09242365482879931  0.012441706972325096  0.9774682343306367  1.0000
  C   C5        1.0  0.6575236152711954  0.45661178657901064  0.3102620429033394  1.0000
  C   C6        1.0  0.6462584913680943  0.34781011282409935  0.19003364364728267  1.0000
  C   C7        1.0  0.34247497387229936  0.5433855803718259  0.6897341804543089  1.0000
  C   C8        1.0  0.35374364598811076  0.6521888492772022  0.8099647724697405  1.0000
  Br  Br1       1.0  0.05630232914701588  0.22342223236814357  0.3670333854909487  1.0000
  Br  Br2       1.0  0.35598950608228097  0.6890367705917555  0.13290956957326466  1.0000
  Br  Br3       1.0  0.943695799927845  0.7765767801588127  0.6329662562574327  1.0000
  Br  Br4       1.0  0.6440088316637043  0.310957569817333  0.8670930290148888  1.0000
  N   N1        1.0  0.2329981048738005  0.7509376756878651  0.43934095203238843  1.0000
  N   N2        1.0  0.8107623333950329  0.7931814550123804  0.06022990455257828  1.0000
  N   N3        1.0  0.767001704703972  0.2490644866342535  0.5606591426845852  1.0000
  N   N4        1.0  0.18923937608886382  0.2068192011480292  0.9397744349815582  1.0000
  N   N5        1.0  0.76354862864401  0.6858362702543561  0.3268738032047622  1.0000
  N   N6        1.0  0.8588901208035864  0.43689965399558167  0.1733048543348588  1.0000
  N   N7        1.0  0.2364508222151613  0.3141627039160539  0.6731243166547713  1.0000
  N   N8        1.0  0.1411136970555233  0.5631024579008823  0.8266940147507569  1.0000
