data_image0
_chemical_formula_structural       Er2H32C30O22
_chemical_formula_sum              "Er2 H32 C30 O22"
_cell_length_a       7.405430526126018
_cell_length_b       9.307956520202087
_cell_length_c       13.100241095199168
_cell_angle_alpha    101.63915384420129
_cell_angle_beta     100.76328153140507
_cell_angle_gamma    107.71292500256307

_space_group_name_H-M_alt    "P 1"
_space_group_IT_number       1

loop_
  _space_group_symop_operation_xyz
  'x, y, z'

loop_
  _atom_site_type_symbol
  _atom_site_label
  _atom_site_symmetry_multiplicity
  _atom_site_fract_x
  _atom_site_fract_y
  _atom_site_fract_z
  _atom_site_occupancy
  Er  Er1       1.0  0.849418691385452  0.7862518048655575  0.9888264800308872  1.0000
  Er  Er2       1.0  0.1506114762544115  0.21375371917174854  0.011179055037821701  1.0000
  H   H1        1.0  0.8048119349559215  0.43810328857672687  0.9097540587326943  1.0000
  H   H2        1.0  0.19519430621033962  0.5618921442478496  0.09023720080060117  1.0000
  H   H3        1.0  0.6098269260096101  0.46365537537859325  0.8470841352097194  1.0000
  H   H4        1.0  0.39017011603380786  0.5363604552914653  0.1529194022147067  1.0000
  H   H5        1.0  0.4963008790781914  0.7792119253304649  0.017121908856182685  1.0000
  H   H6        1.0  0.5036835343258657  0.2207826508717972  0.9828750030769198  1.0000
  H   H7        1.0  0.424819965449906  0.5976987252363274  0.9971452113819409  1.0000
  H   H8        1.0  0.575194987103032  0.4023004758239638  0.002852713616952904  1.0000
  H   H9        1.0  0.8073521177617946  0.23315417145896333  0.2765724364025032  1.0000
  H   H10       1.0  0.19267594721398507  0.7668270749601193  0.7234169735507122  1.0000
  H   H11       1.0  0.5996716752198878  0.22804782332148224  0.18268644481257465  1.0000
  H   H12       1.0  0.4003597234656198  0.7719520177732379  0.817308392718061  1.0000
  H   H13       1.0  0.4009595053927059  0.7601432219239188  0.25564860890211344  1.0000
  H   H14       1.0  0.5989949575974333  0.23985017439573397  0.7443570349403711  1.0000
  H   H15       1.0  0.4556018392870413  0.6779465646698384  0.4272158201070296  1.0000
  H   H16       1.0  0.5443935700524632  0.3220749619151348  0.5727922717536271  1.0000
  H   H17       1.0  0.9180384178196658  0.12686356318094033  0.5808962407399533  1.0000
  H   H18       1.0  0.08196857606636612  0.8731134357873743  0.419088435404987  1.0000
  H   H19       1.0  0.8520665292909867  0.20955696848005093  0.4184247258469326  1.0000
  H   H20       1.0  0.14793309920000308  0.7904439306992259  0.5815797961559851  1.0000
  H   H21       1.0  0.7851414811511715  0.06328247314920081  0.7155834619736864  1.0000
  H   H22       1.0  0.21488306796458556  0.9367377875071341  0.28443836996979127  1.0000
  H   H23       1.0  0.981879825037005  0.9937758278174659  0.7063591558149154  1.0000
  H   H24       1.0  0.018123610102847493  0.006242658765572202  0.29362241623666546  1.0000
  H   H25       1.0  0.9748384644698544  0.44866451391011714  0.1947182941427954  1.0000
  H   H26       1.0  0.025154445544551315  0.5513280966813883  0.8052736911752516  1.0000
  H   H27       1.0  0.14443795851481417  0.6335102305129326  0.2818975973973607  1.0000
  H   H28       1.0  0.8555613472694147  0.366473261540456  0.7181195040931951  1.0000
  H   H29       1.0  0.7206983587461764  0.5948453816308117  0.4695245473574231  1.0000
  H   H30       1.0  0.2792758836967835  0.40514883986576683  0.5304653348899249  1.0000
  H   H31       1.0  0.16813441646820593  0.45264801662808213  0.3559252201055258  1.0000
  H   H32       1.0  0.831849645679604  0.5473557756915427  0.6440753674656106  1.0000
  C   C1        1.0  0.7716554431037961  0.1050094892249831  0.11520844235152337  1.0000
  C   C2        1.0  0.22835206180501197  0.8949778852081425  0.8847862715257262  1.0000
  C   C3        1.0  0.6849877226895841  0.15643546226093724  0.20659077231653097  1.0000
  C   C4        1.0  0.3150071162751901  0.8435560940339786  0.7933951042169409  1.0000
  C   C5        1.0  0.6196485836168223  0.9891042190864852  0.3251259202907234  1.0000
  C   C6        1.0  0.3803257594354504  0.010899203933575997  0.6748745485842418  1.0000
  C   C7        1.0  0.513001725973318  0.8381649075918176  0.328598959496979  1.0000
  C   C8        1.0  0.48696283902093257  0.1618369608365668  0.6714073147912313  1.0000
  C   C9        1.0  0.5445025086238857  0.7927512052197656  0.4231222163842289  1.0000
  C   C10       1.0  0.45548173560335653  0.20726069639519554  0.5768758113855269  1.0000
  C   C11       1.0  0.6877556265631738  0.8967030208997073  0.5161179283912032  1.0000
  C   C12       1.0  0.31221657775966344  0.10329107122288413  0.4838832188624166  1.0000
  C   C13       1.0  0.8013803215971932  0.044492715761137405  0.5114467250904794  1.0000
  C   C14       1.0  0.19860346681181815  0.9555041574198883  0.4885481945094268  1.0000
  C   C15       1.0  0.765986332752874  0.09107527584452411  0.41680326807968976  1.0000
  C   C16       1.0  0.23401064137813427  0.9089289778531865  0.5832038345991533  1.0000
  C   C17       1.0  0.8244053928986188  0.9570748279664515  0.7051304990175851  1.0000
  C   C18       1.0  0.17560330218796583  0.04293566635899279  0.2948732099931631  1.0000
  C   C19       1.0  0.8025831404549066  0.8966847326208267  0.8026704025302108  1.0000
  C   C20       1.0  0.19744350179077227  0.10332179967380743  0.19733804311731254  1.0000
  C   C21       1.0  0.9402538821861199  0.6487337621566739  0.15273976687286245  1.0000
  C   C22       1.0  0.059787459321192726  0.3512825737643156  0.8472691402895972  1.0000
  C   C23       1.0  0.989008904564045  0.5686300158593129  0.23695798010665203  1.0000
  C   C24       1.0  0.010983349192486084  0.43136598231755846  0.7630459271949304  1.0000
  C   C25       1.0  0.9365072004720785  0.5300374891353528  0.4017388911099004  1.0000
  C   C26       1.0  0.06344896774216836  0.4699387273610044  0.5982466930123633  1.0000
  C   C27       1.0  0.8411339125006805  0.5511774305110464  0.48280055074221895  1.0000
  C   C28       1.0  0.1588356597750861  0.44880853384314895  0.5171869040156023  1.0000
  C   C29       1.0  0.09532746232059715  0.47714034144455303  0.4187653092870959  1.0000
  C   C30       1.0  0.9046412576706614  0.5228351608670254  0.5812281067259092  1.0000
  O   O1        1.0  0.7123554507316496  0.9600721069015775  0.06629745379673573  1.0000
  O   O2        1.0  0.28763980740177425  0.039921810248323204  0.9336811818442781  1.0000
  O   O3        1.0  0.9021018189209684  0.21322370329155402  0.09576275259328068  1.0000
  O   O4        1.0  0.09791372716944123  0.7867650866300123  0.90424202820337  1.0000
  O   O5        1.0  0.5586421790842451  0.026437720166079308  0.2311064663942233  1.0000
  O   O6        1.0  0.44136383893997794  0.9735692014314952  0.7688979947598752  1.0000
  O   O7        1.0  0.7044505086601659  0.843302967708695  0.6072090666056623  1.0000
  O   O8        1.0  0.29553838322663484  0.1567194685689159  0.39279861097320173  1.0000
  O   O9        1.0  0.8955733467770345  0.9982557134939116  0.8954272132793688  1.0000
  O   O10       1.0  0.10447851675288429  0.0017425562488285003  0.10457599707864766  1.0000
  O   O11       1.0  0.7094164822720401  0.7563841835964952  0.7978862284991093  1.0000
  O   O12       1.0  0.2905898371906232  0.2436319330383938  0.2021318908335202  1.0000
  O   O13       1.0  0.04995813981987154  0.6607036885344474  0.08678448680201709  1.0000
  O   O14       1.0  0.9501109637488695  0.33933211229291527  0.9132427514984298  1.0000
  O   O15       1.0  0.8022266590599186  0.7022906757396116  0.14520734314388048  1.0000
  O   O16       1.0  0.19778876767147582  0.29769702843997703  0.8547812196728583  1.0000
  O   O17       1.0  0.8680869659954669  0.5667646720864855  0.30899029545451373  1.0000
  O   O18       1.0  0.13188558458636385  0.4332248552663317  0.6910010144863392  1.0000
  O   O19       1.0  0.7169119224230514  0.5039458001292303  0.91324191094953  1.0000
  O   O20       1.0  0.2830921300012364  0.4960495081859836  0.08675830992684301  1.0000
  O   O21       1.0  0.49076573509823623  0.6822032032305503  0.9674237228942102  1.0000
  O   O22       1.0  0.5092302261319048  0.31779989598433644  0.03257471402717729  1.0000
