data_image0
_chemical_formula_structural       Co2H34C40N6O8
_chemical_formula_sum              "Co2 H34 C40 N6 O8"
_cell_length_a       9.680695721633052
_cell_length_b       10.10868963635994
_cell_length_c       10.430156707601807
_cell_angle_alpha    78.32688073239196
_cell_angle_beta     84.50657084365518
_cell_angle_gamma    67.71702583164053

_space_group_name_H-M_alt    "P 1"
_space_group_IT_number       1

loop_
  _space_group_symop_operation_xyz
  'x, y, z'

loop_
  _atom_site_type_symbol
  _atom_site_label
  _atom_site_symmetry_multiplicity
  _atom_site_fract_x
  _atom_site_fract_y
  _atom_site_fract_z
  _atom_site_occupancy
  Co  Co1       1.0  0.9656926913865007  0.3603642725561826  0.376198525327247  1.0000
  Co  Co2       1.0  0.034308900882315675  0.639636113245345  0.6238000923591258  1.0000
  H   H1        1.0  0.29026502095228324  0.1649563408181649  0.3447920486963341  1.0000
  H   H2        1.0  0.7097365373255256  0.835044059842879  0.6552036929704884  1.0000
  H   H3        1.0  0.500508921895026  0.14014202890206914  0.17898139843958924  1.0000
  H   H4        1.0  0.4994896424424695  0.8598551677186419  0.8210123836481317  1.0000
  H   H5        1.0  0.7849474497127679  0.9024036343129038  0.8867483612247896  1.0000
  H   H6        1.0  0.21504221991749262  0.09760115816997227  0.11325918496693531  1.0000
  H   H7        1.0  0.8144352411450128  0.05972922346262518  0.8530122880609453  1.0000
  H   H8        1.0  0.18555505660444263  0.9402766504051103  0.14699402707238823  1.0000
  H   H9        1.0  0.21141370496992104  0.5386286111888197  0.9470043225561683  1.0000
  H   H10       1.0  0.7885899818306116  0.46137174886909077  0.05299505523374391  1.0000
  H   H11       1.0  0.016634820995143768  0.5447193581830732  0.12161853682457752  1.0000
  H   H12       1.0  0.9833728786857135  0.4552842054262881  0.8783807839132436  1.0000
  H   H13       1.0  0.5433493230625787  0.40869187944084473  0.9469131942877739  1.0000
  H   H14       1.0  0.4566567313235766  0.5913019794682766  0.0530833874117036  1.0000
  H   H15       1.0  0.5856306686894753  0.21987750469588005  0.9653357716729758  1.0000
  H   H16       1.0  0.41437164410572813  0.780115299060881  0.03466329761254636  1.0000
  H   H17       1.0  0.343106464641224  0.45195042018338666  0.7840810818530031  1.0000
  H   H18       1.0  0.6568958594843223  0.5480423786202023  0.2159189461057026  1.0000
  H   H19       1.0  0.4015743843712584  0.26144026021651706  0.7978076761932301  1.0000
  H   H20       1.0  0.5984283192447748  0.7385514616664963  0.20219060751949058  1.0000
  H   H21       1.0  0.5310758316675647  0.5763175831654194  0.6988166718893467  1.0000
  H   H22       1.0  0.46892404109644314  0.42367630839601117  0.3011862575581787  1.0000
  H   H23       1.0  0.7360955100417499  0.5711476856325106  0.5342125518080608  1.0000
  H   H24       1.0  0.2639019724759635  0.4288527169840534  0.4657912563835254  1.0000
  H   H25       1.0  0.821436202745268  0.1426120114272891  0.510651216889606  1.0000
  H   H26       1.0  0.17856475453758253  0.8573927410056965  0.48934085707130504  1.0000
  H   H27       1.0  0.6201884417549833  0.13093929139993318  0.6727570444374749  1.0000
  H   H28       1.0  0.379812799912095  0.8690589806747013  0.3272324320026456  1.0000
  H   H29       1.0  0.9294632469605304  0.9161595090138944  0.4118726687180684  1.0000
  H   H30       1.0  0.07053507385051462  0.08383870508933458  0.5881343616938324  1.0000
  H   H31       1.0  0.8358416499583611  0.18303421965723024  0.02848825841920191  1.0000
  H   H32       1.0  0.1641524347033823  0.8169726895501839  0.971519403820821  1.0000
  H   H33       1.0  0.8148397881323888  0.7545995664322331  0.10178085274035456  1.0000
  H   H34       1.0  0.18514120765640743  0.2454118143366202  0.8982252918848275  1.0000
  C   C1        1.0  0.27856846095584603  0.2447797023314919  0.25469325750847827  1.0000
  C   C2        1.0  0.7214337481018306  0.7552217698080667  0.7453031704463129  1.0000
  C   C3        1.0  0.3945961210563524  0.23207012501099905  0.1620509841389008  1.0000
  C   C4        1.0  0.6054018491529617  0.7679259753653368  0.8379469050267545  1.0000
  C   C5        1.0  0.3742319894786378  0.3369090917025516  0.0472051932507185  1.0000
  C   C6        1.0  0.6257697789733003  0.663088039060291  0.9527950016948168  1.0000
  C   C7        1.0  0.23558274063240256  0.4524271646773599  0.03333709403073469  1.0000
  C   C8        1.0  0.7644226158880301  0.5475742663701907  0.9666609534159535  1.0000
  C   C9        1.0  0.12551578841149083  0.4567041482584029  0.12999161069816983  1.0000
  C   C10       1.0  0.8744890011049976  0.5433016197015732  0.8700056450621645  1.0000
  C   C11       1.0  0.4953138919598814  0.32647284884219363  0.9435430700968369  1.0000
  C   C12       1.0  0.5046875938723404  0.6735221384747305  0.056453735641547084  1.0000
  C   C13       1.0  0.4394648748695786  0.34945731140086167  0.8040172121605879  1.0000
  C   C14       1.0  0.560537998062813  0.650536603459784  0.19597487402744207  1.0000
  C   C15       1.0  0.5583889672300587  0.3526876153252089  0.7016535670289058  1.0000
  C   C16       1.0  0.4416160953403152  0.6473116772295882  0.29834013253746144  1.0000
  C   C17       1.0  0.5930549488715544  0.4773253996693112  0.6597848644191444  1.0000
  C   C18       1.0  0.40694705687874955  0.5226738943521382  0.3402148850408011  1.0000
  C   C19       1.0  0.7060176887958961  0.47600590742993626  0.5665628165870656  1.0000
  C   C20       1.0  0.29398180894119025  0.5239945041152082  0.4334350409957679  1.0000
  C   C21       1.0  0.7535331351204917  0.2379941698417268  0.5523649587090631  1.0000
  C   C22       1.0  0.2464663172952516  0.7620062615161057  0.4476290641810366  1.0000
  C   C23       1.0  0.6415783375023523  0.23150627349617278  0.644651914292858  1.0000
  C   C24       1.0  0.35842213385340954  0.7684941573727709  0.3553400919660562  1.0000
  C   C25       1.0  0.8855382400188818  0.6843440682701214  0.3593229407481644  1.0000
  C   C26       1.0  0.11446005813149188  0.3156541557394518  0.6406821723173693  1.0000
  C   C27       1.0  0.8710691593236389  0.8223633299490558  0.26638183371265717  1.0000
  C   C28       1.0  0.12893301127945733  0.1776327139868741  0.7336185343332602  1.0000
  C   C29       1.0  0.8989282033075341  0.931439792537013  0.31078249538953157  1.0000
  C   C30       1.0  0.10106925208594218  0.06855517692275728  0.689226211566357  1.0000
  C   C31       1.0  0.8864154913845893  0.060415363468820316  0.2240160431233633  1.0000
  C   C32       1.0  0.1135927934973255  0.9395784102586329  0.7759928027578553  1.0000
  C   C33       1.0  0.9188996048847359  0.17428998310779054  0.27285948408801636  1.0000
  C   C34       1.0  0.08110224734311802  0.8257125560459998  0.7271406054591268  1.0000
  C   C35       1.0  0.8449057537366754  0.08161570810104728  0.0944921468936997  1.0000
  C   C36       1.0  0.15508772546654379  0.9183901098151636  0.9055186637510815  1.0000
  C   C37       1.0  0.8197748363479676  0.9712140841438384  0.04820309161087273  1.0000
  C   C38       1.0  0.18022314342717038  0.0287906350835954  0.9518017429558938  1.0000
  C   C39       1.0  0.8333252239778948  0.8415758160354797  0.1358327811264033  1.0000
  C   C40       1.0  0.16666751380276426  0.15842897002757889  0.8641696738449341  1.0000
  N   N1        1.0  0.14450593640970072  0.3545921488530722  0.23913060951939974  1.0000
  N   N2        1.0  0.8555006763491236  0.6454114449641962  0.760864975810513  1.0000
  N   N3        1.0  0.7867596156578642  0.3582686185916514  0.5127529389329268  1.0000
  N   N4        1.0  0.21324134849174925  0.6417306858250099  0.4872469098118373  1.0000
  N   N5        1.0  0.7769032918553052  0.9925836970562114  0.9203380345881272  1.0000
  N   N6        1.0  0.22308370490894447  0.0074254630358794  0.07966700114052118  1.0000
  O   O1        1.0  0.8817456511097249  0.5782694180889578  0.3134861825011939  1.0000
  O   O2        1.0  0.11825571965461988  0.42173424256394293  0.6865070232332826  1.0000
  O   O3        1.0  0.8966364787884942  0.681087584052996  0.4811752779189291  1.0000
  O   O4        1.0  0.10336718088780125  0.31890734284811356  0.5188289986352786  1.0000
  O   O5        1.0  0.019875732948833016  0.13481591669248158  0.3586174163995893  1.0000
  O   O6        1.0  0.9801312548369125  0.8651811571410731  0.6413832407950082  1.0000
  O   O7        1.0  0.8451119205815092  0.30906514265284096  0.2328084951004286  1.0000
  O   O8        1.0  0.15488805861909336  0.6909341473931931  0.7671962462950789  1.0000
