data_image0
_chemical_formula_structural       Cu4P4H24C16O16
_chemical_formula_sum              "Cu4 P4 H24 C16 O16"
_cell_length_a       7.405252640157043
_cell_length_b       7.502826004110627
_cell_length_c       10.763161573481325
_cell_angle_alpha    90.00028290465534
_cell_angle_beta     92.91931318842346
_cell_angle_gamma    90.00053742797012

_space_group_name_H-M_alt    "P 1"
_space_group_IT_number       1

loop_
  _space_group_symop_operation_xyz
  'x, y, z'

loop_
  _atom_site_type_symbol
  _atom_site_label
  _atom_site_symmetry_multiplicity
  _atom_site_fract_x
  _atom_site_fract_y
  _atom_site_fract_z
  _atom_site_occupancy
  Cu  Cu1       1.0  0.9307248001286155  0.6896345212476264  0.9642201349009908  1.0000
  Cu  Cu2       1.0  0.5692693297847031  0.18963263516869944  0.035773339709777516  1.0000
  Cu  Cu3       1.0  0.06926014725878102  0.3103568371306693  0.0357775034394905  1.0000
  Cu  Cu4       1.0  0.430725092978264  0.8103760500688962  0.9642274014638162  1.0000
  P   P1        1.0  0.1549638635920587  0.9509215899953603  0.1457053297225883  1.0000
  P   P2        1.0  0.3450389468650883  0.45091471067349437  0.8542913561540145  1.0000
  P   P3        1.0  0.8450359505644514  0.049080431095724505  0.8542909454708009  1.0000
  P   P4        1.0  0.6549635646930412  0.5490819790992989  0.1457031506515918  1.0000
  H   H1        1.0  0.858747825416593  0.4374580611004503  0.8281657696535589  1.0000
  H   H2        1.0  0.6412487528113147  0.9374663314360205  0.17183329050733684  1.0000
  H   H3        1.0  0.1412384741532478  0.5625412942709788  0.1718319137254554  1.0000
  H   H4        1.0  0.35874837421849304  0.0625383553210099  0.8281675407054293  1.0000
  H   H5        1.0  0.6918580896310758  0.5722611414864289  0.8220347619866857  1.0000
  H   H6        1.0  0.8081457300570561  0.07226779781609592  0.177965132364136  1.0000
  H   H7        1.0  0.30813633991865436  0.4277328826154303  0.17796783758354454  1.0000
  H   H8        1.0  0.19185545338282142  0.9277328904667784  0.8220358339111726  1.0000
  H   H9        1.0  0.3288734625700159  0.823758909416391  0.31568425874642264  1.0000
  H   H10       1.0  0.17113623049469606  0.32376255060085407  0.6843168612927145  1.0000
  H   H11       1.0  0.6711358165759904  0.17624044605725692  0.6843123316055328  1.0000
  H   H12       1.0  0.8288676504056484  0.6762448018438292  0.31568233661754164  1.0000
  H   H13       1.0  0.3519269443389561  0.057791597077134306  0.3055940514625419  1.0000
  H   H14       1.0  0.14807336862382672  0.5577969621499504  0.6944030475756477  1.0000
  H   H15       1.0  0.6480809963615569  0.9422037599099511  0.6944062107073208  1.0000
  H   H16       1.0  0.8519223719693942  0.4422077245676661  0.3055884464915978  1.0000
  H   H17       1.0  0.117670467351779  0.6971768017888851  0.45839789261577124  1.0000
  H   H18       1.0  0.38233796339334  0.19718271642246774  0.5415971722965551  1.0000
  H   H19       1.0  0.8823374561889852  0.3028158895194508  0.5415977234879678  1.0000
  H   H20       1.0  0.617668618337966  0.8028193047072207  0.45840118643813815  1.0000
  H   H21       1.0  0.9060714657722146  0.7435688936471223  0.6274811486078775  1.0000
  H   H22       1.0  0.5939394224110472  0.24357361536213062  0.3725139999669694  1.0000
  H   H23       1.0  0.09393645433920743  0.2564237976579165  0.37251353828364847  1.0000
  H   H24       1.0  0.40606986017083824  0.7564270729459396  0.6274835195997285  1.0000
  C   C1        1.0  0.2524554946234971  0.9487114334083343  0.30411652607308787  1.0000
  C   C2        1.0  0.24754728051001962  0.4487198603894456  0.6958764346052178  1.0000
  C   C3        1.0  0.7475483759234648  0.0512825907152177  0.6958798841752625  1.0000
  C   C4        1.0  0.7524525302498334  0.5512888248539483  0.3041189113885849  1.0000
  C   C5        1.0  0.12044245058426381  0.9737883945101231  0.40393032021403746  1.0000
  C   C6        1.0  0.37956739297167275  0.4737920031715107  0.5960796864556741  1.0000
  C   C7        1.0  0.8795722919974979  0.026209628210835893  0.5960813176243249  1.0000
  C   C8        1.0  0.620436518773083  0.5262113508095184  0.4039278743569383  1.0000
  C   C9        1.0  0.06561688518948469  0.8301798422204314  0.476236303891902  1.0000
  C   C10       1.0  0.43438339565798867  0.3302007724061441  0.5237617377207401  1.0000
  C   C11       1.0  0.9343775099557449  0.1697915237193399  0.5237570035132393  1.0000
  C   C12       1.0  0.5656191502784936  0.6698132442042491  0.4762420612398516  1.0000
  C   C13       1.0  0.9475355990701788  0.8559558725225076  0.5713777831683516  1.0000
  C   C14       1.0  0.5524575027884496  0.35596593948207567  0.4286283116817274  1.0000
  C   C15       1.0  0.052452093723012204  0.14402882175260603  0.4286310957528201  1.0000
  C   C16       1.0  0.4475423490972901  0.6440374144764431  0.571378184848541  1.0000
  O   O1        1.0  0.8260836044157573  0.5647925339831517  0.8102895426815309  1.0000
  O   O2        1.0  0.6739174445597343  0.0647953684367266  0.18971209172711673  1.0000
  O   O3        1.0  0.17390949018319193  0.4352108199466684  0.1897176579440796  1.0000
  O   O4        1.0  0.32608373888014347  0.9352053198461477  0.810288874548192  1.0000
  O   O5        1.0  0.06334741697114052  0.7679433595296106  0.1211132503054273  1.0000
  O   O6        1.0  0.4366509353040798  0.2679255045472786  0.8788938024013078  1.0000
  O   O7        1.0  0.9366429733675049  0.23206532571189342  0.8788938602835401  1.0000
  O   O8        1.0  0.5633435079368497  0.7320631882432947  0.1211125140076774  1.0000
  O   O9        1.0  0.012002948130003703  0.10217669708379158  0.1343339743841909  1.0000
  O   O10       1.0  0.48800051478204415  0.602174416390831  0.8656661705815764  1.0000
  O   O11       1.0  0.9879914883045446  0.8978226583491562  0.8656704836205762  1.0000
  O   O12       1.0  0.5119925592343436  0.39782760468805384  0.13433545476822673  1.0000
  O   O13       1.0  0.31094708504706153  0.9933166992765906  0.0599870572068113  1.0000
  O   O14       1.0  0.18906694489518125  0.4933436396898969  0.9400064327868876  1.0000
  O   O15       1.0  0.689059476049394  0.006673326353194399  0.9400057262318596  1.0000
  O   O16       1.0  0.8109477292240683  0.5066797067563442  0.0599866208551845  1.0000
