data_image0
_chemical_formula_structural       La4H32C40N8Cl12
_chemical_formula_sum              "La4 H32 C40 N8 Cl12"
_cell_length_a       7.08763311400008
_cell_length_b       7.426859410000206
_cell_length_c       23.861773791000655
_cell_angle_alpha    90.0000237774408
_cell_angle_beta     90.00001276102932
_cell_angle_gamma    90.00001199063378

_space_group_name_H-M_alt    "P 1"
_space_group_IT_number       1

loop_
  _space_group_symop_operation_xyz
  'x, y, z'

loop_
  _atom_site_type_symbol
  _atom_site_label
  _atom_site_symmetry_multiplicity
  _atom_site_fract_x
  _atom_site_fract_y
  _atom_site_fract_z
  _atom_site_occupancy
  La  La1       1.0  0.7499995359947036  0.29818431607426277  0.5000001747187001  1.0000
  La  La2       1.0  0.7500008104539687  0.7018162366494706  7.071574259999998e-08  1.0000
  La  La3       1.0  0.2500005081667993  0.7018151763089973  0.5000001839302186  1.0000
  La  La4       1.0  0.2500002776385273  0.2981839363713377  2.7726272799999997e-08  1.0000
  H   H1        1.0  0.7631181223490345  0.42447717286417924  0.35495438621734365  1.0000
  H   H2        1.0  0.7631166520119024  0.5755206893862379  0.14504586010306747  1.0000
  H   H3        1.0  0.736882484619244  0.5755211596064455  0.8549532679607807  1.0000
  H   H4        1.0  0.73688238998556  0.4244800564880505  0.6450459795535153  1.0000
  H   H5        1.0  0.23688192181246848  0.5755209730551981  0.6450463915118121  1.0000
  H   H6        1.0  0.23688198124150972  0.42448014946104706  0.8549544985458866  1.0000
  H   H7        1.0  0.263118970449888  0.4244769863119443  0.1450458334471065  1.0000
  H   H8        1.0  0.26311906508356486  0.5755180894303393  0.35495312185437916  1.0000
  H   H9        1.0  0.7706226949292728  0.31859655267616194  0.256755057959154  1.0000
  H   H10       1.0  0.7706199104367643  0.681402657442831  0.2432451888682792  1.0000
  H   H11       1.0  0.7293764290573749  0.681404341955492  0.7567543719694072  1.0000
  H   H12       1.0  0.7293763818182128  0.31859956566278674  0.7432452941183172  1.0000
  H   H13       1.0  0.22937593832428863  0.6814042861713929  0.7432457197701297  1.0000
  H   H14       1.0  0.2293759010001608  0.31859952786806633  0.7567547507003382  1.0000
  H   H15       1.0  0.2706236151039789  0.31859649689136654  0.2432451485189375  1.0000
  H   H16       1.0  0.2706236623431408  0.6814026196479472  0.2567538072897904  1.0000
  H   H17       1.0  0.7199641609585897  0.9040446554316189  0.4157487227112071  1.0000
  H   H18       1.0  0.7199639451307082  0.09595454520587772  0.08425068253338  1.0000
  H   H19       1.0  0.7800364906305645  0.0959537579970515  0.915749221669671  1.0000
  H   H20       1.0  0.7800378740623657  0.9040461197106282  0.5842508669205415  1.0000
  H   H21       1.0  0.2800372941108479  0.09595349048733233  0.5842512168573393  1.0000
  H   H22       1.0  0.28003750993904225  0.9040462936413859  0.9157492570353439  1.0000
  H   H23       1.0  0.21996355353078204  0.904044387922049  0.08425113697915519  1.0000
  H   H24       1.0  0.21996358100706456  0.0959520262083231  0.4157490726479979  1.0000
  H   H25       1.0  0.7187761266696314  0.7756902038026965  0.3214979675616974  1.0000
  H   H26       1.0  0.7187760099346292  0.22430765014858878  0.1785018566828711  1.0000
  H   H27       1.0  0.781223044835663  0.22430943058070338  0.8214984832003012  1.0000
  H   H28       1.0  0.7812244675262859  0.7756931402776529  0.678502024550582  1.0000
  H   H29       1.0  0.28122532839996234  0.2243092885804144  0.6785019720069343  1.0000
  H   H30       1.0  0.28122403422688086  0.775693188698547  0.8214980828858032  1.0000
  H   H31       1.0  0.2187755884175928  0.7756900618024217  0.17850187544856064  1.0000
  H   H32       1.0  0.21877698754346403  0.22430635210573513  0.3214983340983864  1.0000
  C   C1        1.0  0.7539867039828395  0.2811904893799094  0.3454060504378305  1.0000
  C   C2        1.0  0.7539866849595499  0.7188073711616167  0.1545941952657515  1.0000
  C   C3        1.0  0.746012485069464  0.7188091768399616  0.845405370409523  1.0000
  C   C4        1.0  0.7460137749543563  0.28119473389201477  0.6545942968021095  1.0000
  C   C5        1.0  0.24601334017865642  0.7188076565394679  0.6545947272913253  1.0000
  C   C6        1.0  0.2460133592021094  0.2811934676857958  0.8454061633832523  1.0000
  C   C7        1.0  0.2539875590918896  0.28119166200688983  0.1545941500788217  1.0000
  C   C8        1.0  0.25398768011493195  0.7188047584905347  0.3454048046058702  1.0000
  C   C9        1.0  0.7569933221715675  0.22037066701805225  0.2903782849865877  1.0000
  C   C10       1.0  0.7569919468037654  0.7796271940857904  0.20962154183973067  1.0000
  C   C11       1.0  0.7430086483096545  0.7796302723886298  0.790378031701394  1.0000
  C   C12       1.0  0.7430099644059567  0.22037498424531074  0.7096216353073997  1.0000
  C   C13       1.0  0.24300954380657203  0.7796288253657478  0.7096224927427456  1.0000
  C   C14       1.0  0.24300950826598472  0.22037364476148014  0.7903783977289933  1.0000
  C   C15       1.0  0.2569899849437647  0.2203719129225306  0.20962190786731583  1.0000
  C   C16       1.0  0.25699149066379334  0.7796272010658283  0.2903778851810799  1.0000
  C   C17       1.0  0.7446125765450091  0.0350554497887003  0.2789947936208819  1.0000
  C   C18       1.0  0.7446126636343705  0.9649437554625493  0.221005451449507  1.0000
  C   C19       1.0  0.755385152856519  0.9649454744587372  0.7789945651384186  1.0000
  C   C20       1.0  0.7553864341139659  0.0350584380274128  0.7210051027063926  1.0000
  C   C21       1.0  0.255386056708403  0.9649453890585772  0.721005565028065  1.0000
  C   C22       1.0  0.25538596961904153  0.03505708338473569  0.7789949071994471  1.0000
  C   C23       1.0  0.24461348039673683  0.0350553643882634  0.2210053744302058  1.0000
  C   C24       1.0  0.24461502095578425  0.9649437472837332  0.2789944177820871  1.0000
  C   C25       1.0  0.7306292134145664  0.9926406274215508  0.3795200725583641  1.0000
  C   C26       1.0  0.7306304144352892  0.0073585752126916985  0.120480171567408  1.0000
  C   C27       1.0  0.7693700006759984  0.007360430690461299  0.8795193020975276  1.0000
  C   C28       1.0  0.7693714313485885  0.9926407914850585  0.6204807857721946  1.0000
  C   C29       1.0  0.26936941983868223  0.007357518497691699  0.6204807051707419  1.0000
  C   C30       1.0  0.2693710406341481  0.9926409171701347  0.879519348920894  1.0000
  C   C31       1.0  0.23062863257710828  0.9926417546201377  0.1204797993105302  1.0000
  C   C32       1.0  0.2306300237210053  0.007358700898052499  0.37951915379643714  1.0000
  C   C33       1.0  0.731467264802781  0.9210315883408456  0.3256636358544895  1.0000
  C   C34       1.0  0.7314685220423058  0.07896761444997939  0.1743361892475761  1.0000
  C   C35       1.0  0.7685290879434276  0.07896939805338118  0.8256637127586544  1.0000
  C   C36       1.0  0.7685319523613573  0.9210331704293254  0.6743367941347245  1.0000
  C   C37       1.0  0.2685313684504749  0.07896790404227967  0.6743367227943794  1.0000
  C   C38       1.0  0.2685315221190478  0.9210332243968792  0.8256633312407686  1.0000
  C   C39       1.0  0.23146813440158812  0.9210314407934914  0.1743362268099204  1.0000
  C   C40       1.0  0.23146950270823652  0.07896497548990307  0.3256635645141515  1.0000
  N   N1        1.0  0.740092083014126  0.1705017386951724  0.3899060874974651  1.0000
  N   N2        1.0  0.7400920571292462  0.8294961192455829  0.1100937381871248  1.0000
  N   N3        1.0  0.7599071386990276  0.8294966403191636  0.8899054227229186  1.0000
  N   N4        1.0  0.7599083701233342  0.1705045800849945  0.6100942454271987  1.0000
  N   N5        1.0  0.2599079611470572  0.8294950607597681  0.6100942711512758  1.0000
  N   N6        1.0  0.2599079870321077  0.17050471960127564  0.8899057823012201  1.0000
  N   N7        1.0  0.2400914945539157  0.17050285206340018  0.11009409776529108  1.0000
  N   N8        1.0  0.24009167403769993  0.8294935658335446  0.38990527506096845  1.0000
  Cl  Cl1       1.0  1.834887016e-07  3.329133661999999e-07  0.5000001301035155  1.0000
  Cl  Cl2       1.0  0.0  0.0  0.0  1.0000
  Cl  Cl3       1.0  0.5000004857757219  4.67896868e-08  1.6888954199999995e-08  1.0000
  Cl  Cl4       1.0  0.49999925835617637  3.7970291799999983e-07  0.5000001469924271  1.0000
  Cl  Cl5       1.0  0.9279898990964598  0.5701997575026283  0.5641324800780438  1.0000
  Cl  Cl6       1.0  0.9279886082443909  0.42980149435970816  0.9358676185072738  1.0000
  Cl  Cl7       1.0  0.5720104944225568  0.4298022270872152  0.0641323288716507  1.0000
  Cl  Cl8       1.0  0.5720106472027952  0.5701982923239586  0.43586748545823895  1.0000
  Cl  Cl9       1.0  0.0720101450650432  0.4298010813445074  0.43586745949063044  1.0000
  Cl  Cl10      1.0  0.0720100250088649  0.5701979980234171  0.0641327401415879  1.0000
  Cl  Cl11      1.0  0.42798954973894615  0.5701986117599134  0.9358676106970236  1.0000
  Cl  Cl12      1.0  0.4279893969585515  0.42980120005901756  0.564132454110343  1.0000
