data_image0
_chemical_formula_structural       Co6H6C24O18
_chemical_formula_sum              "Co6 H6 C24 O18"
_cell_length_a       6.771833012665355
_cell_length_b       15.250111924964106
_cell_length_c       15.254209373574932
_cell_angle_alpha    117.84940620349218
_cell_angle_beta     98.52892740117643
_cell_angle_gamma    98.50047392376973

_space_group_name_H-M_alt    "P 1"
_space_group_IT_number       1

loop_
  _space_group_symop_operation_xyz
  'x, y, z'

loop_
  _atom_site_type_symbol
  _atom_site_label
  _atom_site_symmetry_multiplicity
  _atom_site_fract_x
  _atom_site_fract_y
  _atom_site_fract_z
  _atom_site_occupancy
  Co  Co1       1.0  0.2106432132093445  0.3282427555783372  0.7283918296164701  1.0000
  Co  Co2       1.0  0.8826470809104023  0.4003596966607219  0.671894422055118  1.0000
  Co  Co3       1.0  0.48216067805932994  0.2715211300101359  0.5997591819582767  1.0000
  Co  Co4       1.0  0.7893576081863427  0.671758625041612  0.2716128226147917  1.0000
  Co  Co5       1.0  0.11735186763866062  0.5996409184000555  0.32810909239344  1.0000
  Co  Co6       1.0  0.5178352399735215  0.7284764226124166  0.40024401239585217  1.0000
  H   H1        1.0  0.6481580796806341  0.4685136573956825  0.02391514240630952  1.0000
  H   H2        1.0  0.17962576529374982  0.555435906568185  0.5314385601714448  1.0000
  H   H3        1.0  0.624169511420966  0.9760225743827036  0.44452006226693197  1.0000
  H   H4        1.0  0.3518525230801756  0.53149231688284  0.9760883727897111  1.0000
  H   H5        1.0  0.8203730728073494  0.4445555212239824  0.468560004633197  1.0000
  H   H6        1.0  0.3758261116910901  0.023977275446100097  0.555473695328935  1.0000
  C   C1        1.0  0.6426721559804489  0.39368809543051253  0.8287166327459518  1.0000
  C   C2        1.0  0.24923059660439145  0.4351794542267838  0.6064287291575284  1.0000
  C   C3        1.0  0.8139330636683366  0.17128446773849498  0.5649145253047722  1.0000
  C   C4        1.0  0.35733617867123235  0.6063163475915799  0.1712879832459179  1.0000
  C   C5        1.0  0.7507720250473398  0.5648165671144696  0.39357354264761574  1.0000
  C   C6        1.0  0.18605994955055388  0.8287161476855546  0.43508072640761253  1.0000
  C   C7        1.0  0.8285311090845012  0.44869358070166504  0.9145263838990658  1.0000
  C   C8        1.0  0.38002905324277225  0.4659480135412365  0.5514047230819729  1.0000
  C   C9        1.0  0.9140030544117009  0.08548749703333408  0.5341675498602783  1.0000
  C   C10       1.0  0.17147351148290102  0.5513123935855616  0.08547869863971155  1.0000
  C   C11       1.0  0.6199575259175132  0.5340487736216628  0.4485968351481731  1.0000
  C   C12       1.0  0.08599826258820534  0.9145177121873898  0.4658231884556302  1.0000
  C   C13       1.0  0.031174713848798753  0.4660020330340373  0.8993916291220003  1.0000
  C   C14       1.0  0.5653231770182429  0.4334123301719969  0.5340631571632458  1.0000
  C   C15       1.0  0.13177278596914727  0.1006258252358094  0.5666792079192576  1.0000
  C   C16       1.0  0.9688302859932347  0.5340016446851692  0.10060519603295148  1.0000
  C   C17       1.0  0.43467871034435734  0.5665821602002196  0.4659317957042574  1.0000
  C   C18       1.0  0.8682135013945568  0.899373259156988  0.4333122582140305  1.0000
  C   C19       1.0  0.8030087088360388  0.4827222576578194  0.013660941773359475  1.0000
  C   C20       1.0  0.3203114279509264  0.5309985657175886  0.5172761902616401  1.0000
  C   C21       1.0  0.7893395431639403  0.9863213134845948  0.46900124350990074  1.0000
  C   C22       1.0  0.19699965742459807  0.5172852477477432  0.986346416330811  1.0000
  C   C23       1.0  0.6796851389168239  0.46899133079450905  0.48272413067744685  1.0000
  C   C24       1.0  0.2106576328802134  0.013681598920527395  0.5309894578191603  1.0000
  O   O1        1.0  0.463956195497424  0.3769989940137179  0.8431397577963582  1.0000
  O   O2        1.0  0.08743542118779143  0.4664860767613064  0.6233003024376275  1.0000
  O   O3        1.0  0.6207072493576007  0.15680828116161655  0.5338317726366315  1.0000
  O   O4        1.0  0.5360483840883601  0.623003917819119  0.15686454864590615  1.0000
  O   O5        1.0  0.9125694369641124  0.533508413452914  0.3766981264593596  1.0000
  O   O6        1.0  0.37929329273836726  0.8431953967827751  0.46616016614337497  1.0000
  O   O7        1.0  0.668920047706898  0.36219499474995587  0.7376114770646043  1.0000
  O   O8        1.0  0.3066430326120011  0.3752954404013804  0.6376620187640256  1.0000
  O   O9        1.0  0.9313110058763953  0.26241976111899123  0.6244239857109266  1.0000
  O   O10       1.0  0.33108113421811675  0.6378040891601415  0.26238884981440697  1.0000
  O   O11       1.0  0.6933592851130895  0.6247059402222986  0.362342077796896  1.0000
  O   O12       1.0  0.06867704149534853  0.7375770258348948  0.3755829148962491  1.0000
  O   O13       1.0  0.0725009447473325  0.43700855433416297  0.8073185404001324  1.0000
  O   O14       1.0  0.6357091610689665  0.3703784890704682  0.5631371579612576  1.0000
  O   O15       1.0  0.2651816081685254  0.19271860342440308  0.6298341479032814  1.0000
  O   O16       1.0  0.9275055455424733  0.5629981854885955  0.19268833525993756  1.0000
  O   O17       1.0  0.364288183826943  0.6296129387416085  0.43686130717512134  1.0000
  O   O18       1.0  0.734818877691559  0.8072850740944942  0.370169586971457  1.0000
