data_image0
_chemical_formula_structural       Zn4H54C88O20
_chemical_formula_sum              "Zn4 H54 C88 O20"
_cell_length_a       12.491247369842677
_cell_length_b       15.592787086368569
_cell_length_c       15.922491978632578
_cell_angle_alpha    89.29500085894848
_cell_angle_beta     83.78128430530025
_cell_angle_gamma    88.0587667983424

_space_group_name_H-M_alt    "P 1"
_space_group_IT_number       1

loop_
  _space_group_symop_operation_xyz
  'x, y, z'

loop_
  _atom_site_type_symbol
  _atom_site_label
  _atom_site_symmetry_multiplicity
  _atom_site_fract_x
  _atom_site_fract_y
  _atom_site_fract_z
  _atom_site_occupancy
  Zn  Zn1       1.0  0.6425398638544165  0.028120377521403797  0.9058234567572467  1.0000
  Zn  Zn2       1.0  0.4192691106850219  0.042981344712792705  0.9295393614035132  1.0000
  Zn  Zn3       1.0  0.12271047850821049  0.537068932402157  0.40741145909493054  1.0000
  Zn  Zn4       1.0  0.9076518513391818  0.5384927099424387  0.4465382029131531  1.0000
  H   H1        1.0  0.33093608027190413  0.5280701271947876  0.3377448817684296  1.0000
  H   H2        1.0  0.7197574181398564  0.5863058906781261  0.4144578551481643  1.0000
  H   H3        1.0  0.8913446702946712  0.7645215474420366  0.5979738533967164  1.0000
  H   H4        1.0  0.9034613935751564  0.8904955368388129  0.6884454718320538  1.0000
  H   H5        1.0  0.2350396515722082  0.8186383379737876  0.7151854274662667  1.0000
  H   H6        1.0  0.22339735581807224  0.6960985916414654  0.6184782929425123  1.0000
  H   H7        1.0  0.9603403642163498  0.018886830388076696  0.6912054109947261  1.0000
  H   H8        1.0  0.8877233518902944  0.8734696848977136  0.8330855977699866  1.0000
  H   H9        1.0  0.8793102184210111  0.8551922126260719  0.9851141415293937  1.0000
  H   H10       1.0  0.2123581791862534  0.18697879271062592  0.6317163566981987  1.0000
  H   H11       1.0  0.18055865273068145  0.3173804924853342  0.5444442549716795  1.0000
  H   H12       1.0  0.8496703344753483  0.3301190457341505  0.6500599603864855  1.0000
  H   H13       1.0  0.8810168235380901  0.20177459104456827  0.7405016384169014  1.0000
  H   H14       1.0  0.8502274967973024  0.3357282715691809  0.2728782817275642  1.0000
  H   H15       1.0  0.8458026720436324  0.20496437672843373  0.18397771299084548  1.0000
  H   H16       1.0  0.1927982574472011  0.1926088081708528  0.14928527290245336  1.0000
  H   H17       1.0  0.19558132557318686  0.32288271198149937  0.23866039918649298  1.0000
  H   H18       1.0  0.9731959467204092  0.030237726367289497  0.21367253544901377  1.0000
  H   H19       1.0  0.09411472043104399  0.24734416061109943  0.009633872041177894  1.0000
  H   H20       1.0  0.12484113556912749  0.2509532070305625  0.853146634253008  1.0000
  H   H21       1.0  0.0782813779560527  0.8117274967101764  0.06371010071088529  1.0000
  H   H22       1.0  0.09344699959092401  0.6863144802918907  0.16028730123246496  1.0000
  H   H23       1.0  0.8420035813209951  0.7972999268288136  0.3349947549036826  1.0000
  H   H24       1.0  0.8327106540272168  0.9264096852774202  0.24245374091049846  1.0000
  H   H25       1.0  0.3185143656462516  0.57801651080257  0.42325607461548015  1.0000
  H   H26       1.0  0.6972974920021856  0.5098091953751335  0.4783385971599259  1.0000
  H   H27       1.0  0.3554463667671683  0.3368188567666833  0.615075961387987  1.0000
  H   H28       1.0  0.3493166690273241  0.24491249420486835  0.7454011709738422  1.0000
  H   H29       1.0  0.3728517565936044  0.8335916662497455  0.5773062693128493  1.0000
  H   H30       1.0  0.3925467054950289  0.9193177309248808  0.7065191625671685  1.0000
  H   H31       1.0  0.37129422129715556  0.3673863691805506  0.23341295435393758  1.0000
  H   H32       1.0  0.36214660549744343  0.2771669296602326  0.1061367155556638  1.0000
  H   H33       1.0  0.34642307292225644  0.7928361310825236  0.27412244011129866  1.0000
  H   H34       1.0  0.3544362982200369  0.8799460164743779  0.14070911863025506  1.0000
  H   H35       1.0  0.6821532255095876  0.1703925133613637  0.6835616988217266  1.0000
  H   H36       1.0  0.6884965003304159  0.2595242600087673  0.5511352940393762  1.0000
  H   H37       1.0  0.5314961171979035  0.24346468537378024  0.4184703438984626  1.0000
  H   H38       1.0  0.5136997490203681  0.4556304006027857  0.6352306360498046  1.0000
  H   H39       1.0  0.7444186783392154  0.12346201248626439  0.973330711098221  1.0000
  H   H40       1.0  0.8351262644804367  0.051377055669838995  0.9526445002356495  1.0000
  H   H41       1.0  0.5090848212413377  0.6133554847790917  0.6373863343252137  1.0000
  H   H42       1.0  0.7078448146313647  0.8053036107578676  0.7199587961612008  1.0000
  H   H43       1.0  0.686037104236675  0.7145441953724613  0.5948655996918291  1.0000
  H   H44       1.0  0.6603215815422132  0.14836386935504456  0.15025749067096675  1.0000
  H   H45       1.0  0.6677847694377803  0.23540606568723624  0.28007783281957177  1.0000
  H   H46       1.0  0.5263229160841972  0.4654249236338969  0.20617040884970805  1.0000
  H   H47       1.0  0.6995295317599215  0.8517294164309845  0.11080469277156614  1.0000
  H   H48       1.0  0.6926872134469305  0.7638505696705592  0.24340985614139032  1.0000
  H   H49       1.0  0.5190473220832601  0.8344940958001814  0.42430662105987677  1.0000
  H   H50       1.0  0.5210852765917763  0.6230032826447099  0.2085848883289145  1.0000
  H   H51       1.0  0.1629530179344698  0.09311840945790809  0.7237441111332782  1.0000
  H   H52       1.0  0.17053412011188843  0.9559891832662897  0.7641769010585973  1.0000
  H   H53       1.0  0.22481379707331686  0.0022325617502189994  0.989107043817064  1.0000
  H   H54       1.0  0.21382146485343867  0.061123545564065296  0.9105573040937001  1.0000
  C   C1        1.0  0.5120632516263582  0.14698985429247807  0.7988287597375459  1.0000
  C   C2        1.0  0.5071666612591343  0.15319263520772347  0.043965769697635375  1.0000
  C   C3        1.0  0.05669967284530489  0.7228959729197227  0.6013100324179275  1.0000
  C   C4        1.0  0.966558668096475  0.7771578703613072  0.6237348594435088  1.0000
  C   C5        1.0  0.9740498592873478  0.8476919688638842  0.6751336981650835  1.0000
  C   C6        1.0  0.07146795566512044  0.8650402167962029  0.7076716757661998  1.0000
  C   C7        1.0  0.15954014633102528  0.8073944496443699  0.6890238510257303  1.0000
  C   C8        1.0  0.15312799984370426  0.7382677889634691  0.6352972371304373  1.0000
  C   C9        1.0  0.08720634805784039  0.9453194610220165  0.7530056817673054  1.0000
  C   C10       1.0  0.0185599542110069  0.022952550258111198  0.7371897695448266  1.0000
  C   C11       1.0  0.0774422544189335  0.10824293698159686  0.7451285244497541  1.0000
  C   C12       1.0  0.07041708349717618  0.12149371462231068  0.8398738618038022  1.0000
  C   C13       1.0  0.03280337308892461  0.04827269804393809  0.8820763424405411  1.0000
  C   C14       1.0  0.0011909990256456042  0.9810786448932587  0.826011033189374  1.0000
  C   C15       1.0  0.9298799615737322  0.9175610716831031  0.8694073402012562  1.0000
  C   C16       1.0  0.9255165801545928  0.907369035907962  0.9548539414166864  1.0000
  C   C17       1.0  0.04918768852946442  0.18508338147863404  0.691995759147886  1.0000
  C   C18       1.0  0.13254851705413268  0.21856463636655826  0.6361983423110614  1.0000
  C   C19       1.0  0.11561302225218378  0.29122655210526455  0.5873562242112766  1.0000
  C   C20       1.0  0.01362100127075649  0.33212095216253346  0.5921898737153198  1.0000
  C   C21       1.0  0.9291313311375332  0.2983693046595448  0.6467255903521475  1.0000
  C   C22       1.0  0.946869366535985  0.22602451766120168  0.6968076253629646  1.0000
  C   C23       1.0  0.9987458709238055  0.4106073395220093  0.5384433575635368  1.0000
  C   C24       1.0  0.026633475178385914  0.4155005260845002  0.3142311028960591  1.0000
  C   C25       1.0  0.023220267562400896  0.33759958441724075  0.2604445863673063  1.0000
  C   C26       1.0  0.9246638433418041  0.3037435094360674  0.24557827572836285  1.0000
  C   C27       1.0  0.9226750616781556  0.2306083372668155  0.1964735013615878  1.0000
  C   C28       1.0  0.018860091048353008  0.18991546453078456  0.16110197252846345  1.0000
  C   C29       1.0  0.117536863776813  0.2240194775361104  0.17605346057533913  1.0000
  C   C30       1.0  0.1193990201000403  0.2968627160591522  0.22556562843445954  1.0000
  C   C31       1.0  0.013434467896672702  0.1128542387919822  0.10812709260247287  1.0000
  C   C32       1.0  0.9830600715613257  0.0352146191488671  0.14484642135675327  1.0000
  C   C33       1.0  0.9664748610988028  0.9603641559175103  0.09825378917160067  1.0000
  C   C34       1.0  0.971436790129509  0.967259444633285  0.00982661813159071  1.0000
  C   C35       1.0  0.014547225077052398  0.04391046963008449  0.9708838708600991  1.0000
  C   C36       1.0  0.036867566245980796  0.11757695339501587  0.0181620202431176  1.0000
  C   C37       1.0  0.0774701433681599  0.19125907521496538  0.9736540834644456  1.0000
  C   C38       1.0  0.09514735856394908  0.19325193246856998  0.8859966550167256  1.0000
  C   C39       1.0  0.9553635957175786  0.8787679261418689  0.14651878411638813  1.0000
  C   C40       1.0  0.02569266783385158  0.8085134977977759  0.12298539690780066  1.0000
  C   C41       1.0  0.034425261727598404  0.7381325087539565  0.17695274734730043  1.0000
  C   C42       1.0  0.9691295390646885  0.7339536418831756  0.25416097542762367  1.0000
  C   C43       1.0  0.8940297434632284  0.8011569474627719  0.2755469744596795  1.0000
  C   C44       1.0  0.8887405978684555  0.873223254092359  0.2233562840878277  1.0000
  C   C45       1.0  0.9810682463616018  0.6609557381500153  0.3153724118411389  1.0000
  C   C46       1.0  0.4269171616135594  0.3000594304018022  0.6301318313473558  1.0000
  C   C47       1.0  0.42327067055953893  0.24923689914910338  0.7027070204392698  1.0000
  C   C48       1.0  0.44580346711089186  0.8269684495086265  0.6091778142580251  1.0000
  C   C49       1.0  0.4565361318931522  0.874805623801258  0.6807691626851309  1.0000
  C   C50       1.0  0.4352562127122822  0.31977648097910105  0.21475128085295833  1.0000
  C   C51       1.0  0.42966849452799494  0.2694309895240252  0.14387220956678695  1.0000
  C   C52       1.0  0.4237441603360921  0.805853091142083  0.2382665896495482  1.0000
  C   C53       1.0  0.4278933160259299  0.854082333544973  0.16391789154199188  1.0000
  C   C54       1.0  0.5156286530225885  0.20277814172943917  0.7218843296885848  1.0000
  C   C55       1.0  0.6112208361529382  0.20692563703747874  0.6674613034501462  1.0000
  C   C56       1.0  0.6142728068986756  0.2562232081407955  0.5938589834448817  1.0000
  C   C57       1.0  0.5222412552270155  0.303357023650875  0.574831930396506  1.0000
  C   C58       1.0  0.5246941485413359  0.35519190035031295  0.4962478767928927  1.0000
  C   C59       1.0  0.5294850748978277  0.31349673277134127  0.4189239774392987  1.0000
  C   C60       1.0  0.5187966685344775  0.4459413363927283  0.4987281196027097  1.0000
  C   C61       1.0  0.5141295823627345  0.4921084013732582  0.5764305789134454  1.0000
  C   C62       1.0  0.5116234762416384  0.5796728967840394  0.5776386587919757  1.0000
  C   C63       1.0  0.5179250474658305  0.7196042586695268  0.500395452953718  1.0000
  C   C64       1.0  0.5144569327134575  0.6290434859539359  0.5011133067733906  1.0000
  C   C65       1.0  0.515952154765607  0.5848701369572425  0.4225369060243266  1.0000
  C   C66       1.0  0.5279874714878899  0.7685178263987282  0.5781178648172797  1.0000
  C   C67       1.0  0.551008153263126  0.867481465714448  0.7207704610971317  1.0000
  C   C68       1.0  0.6340915477637027  0.8102068337588904  0.6891206111701321  1.0000
  C   C69       1.0  0.6219063495678726  0.7598891661570306  0.6192564009701016  1.0000
  C   C70       1.0  0.5248142771828411  0.3580591776608769  0.3425238891929111  1.0000
  C   C71       1.0  0.5215211721370636  0.44889049564213207  0.3425152710923242  1.0000
  C   C72       1.0  0.5189764653157666  0.4930555408351508  0.42110495019139177  1.0000
  C   C73       1.0  0.5209752753402698  0.30812848421030736  0.2646485021307042  1.0000
  C   C74       1.0  0.511452282446413  0.20807825775187888  0.11995683165643098  1.0000
  C   C75       1.0  0.5974402821217665  0.19664962438778838  0.16908180490040076  1.0000
  C   C76       1.0  0.6013482086362387  0.24515953821181563  0.24135436049148493  1.0000
  C   C77       1.0  0.5220416807302184  0.4987262995372674  0.266228851705172  1.0000
  C   C78       1.0  0.5307932416109508  0.926008171994148  0.04042171315143859  1.0000
  C   C79       1.0  0.5272508502993603  0.8708481651326706  0.11800477555934916  1.0000
  C   C80       1.0  0.6226465760885985  0.8381010880350884  0.14676926390663425  1.0000
  C   C81       1.0  0.6185701874387988  0.7895114623036648  0.22087661840129152  1.0000
  C   C82       1.0  0.5192375874420919  0.7736839092507636  0.267456085229739  1.0000
  C   C83       1.0  0.516077991271949  0.7229174520810203  0.346979181163121  1.0000
  C   C84       1.0  0.5163516181639521  0.7645951323805135  0.42395292065430806  1.0000
  C   C85       1.0  0.516993669730553  0.6323449401622836  0.3450024063112238  1.0000
  C   C86       1.0  0.5196195223475825  0.586409197052241  0.2674216626930316  1.0000
  C   C87       1.0  0.04962061760473801  0.6528446103314562  0.5388094028852066  1.0000
  C   C88       1.0  0.560985652868453  0.9225413705069483  0.7956963561204871  1.0000
  O   O1        1.0  0.7820878837172173  0.0882210018895364  0.9274558121681904  1.0000
  O   O2        1.0  0.6229048573208402  0.9403953182690399  0.0009590294506552056  1.0000
  O   O3        1.0  0.4154330841162022  0.13965973342256888  0.0197920614458482  1.0000
  O   O4        1.0  0.25895310990034653  0.015461891489501096  0.9327889898257167  1.0000
  O   O5        1.0  0.47359197719730156  0.9515048114258845  0.8352363326872874  1.0000
  O   O6        1.0  0.28837052994484935  0.5325053935223777  0.39266951556651  1.0000
  O   O7        1.0  0.7439119473616174  0.558004029090817  0.4642829702359704  1.0000
  O   O8        1.0  0.1196958272723023  0.4450966436212339  0.3201980403782016  1.0000
  O   O9        1.0  0.938021763936426  0.4461094553428636  0.35076579559491705  1.0000
  O   O10       1.0  0.08391479275721282  0.44210307312189184  0.5006089101791318  1.0000
  O   O11       1.0  0.9559709879152221  0.6284986411064181  0.5275661230470304  1.0000
  O   O12       1.0  0.1378770651702652  0.6238078921630572  0.499413844630318  1.0000
  O   O13       1.0  0.41905523375565684  0.12950465814709838  0.835200506889599  1.0000
  O   O14       1.0  0.5966222290148478  0.12183649557887578  0.009294702278310802  1.0000
  O   O15       1.0  0.9031182698155716  0.44046022231496806  0.5331978977160502  1.0000
  O   O16       1.0  0.6558922693962471  0.9381165424868596  0.8138121490775273  1.0000
  O   O17       1.0  0.6019642969792968  0.12009162134584267  0.8216870877177979  1.0000
  O   O18       1.0  0.4404324922395374  0.9558872185733235  0.02064378447269631  1.0000
  O   O19       1.0  0.8949646325608924  0.6352444985759503  0.3571689774374817  1.0000
  O   O20       1.0  0.07604187557107167  0.6314629644594946  0.3222734394042347  1.0000
