data_image0
_chemical_formula_structural       Zn2H48C56N8O8
_chemical_formula_sum              "Zn2 H48 C56 N8 O8"
_cell_length_a       6.095322479468346
_cell_length_b       12.870471710708054
_cell_length_c       16.33497847677968
_cell_angle_alpha    85.83163956591395
_cell_angle_beta     79.19401082461059
_cell_angle_gamma    76.1951518127707

_space_group_name_H-M_alt    "P 1"
_space_group_IT_number       1

loop_
  _space_group_symop_operation_xyz
  'x, y, z'

loop_
  _atom_site_type_symbol
  _atom_site_label
  _atom_site_symmetry_multiplicity
  _atom_site_fract_x
  _atom_site_fract_y
  _atom_site_fract_z
  _atom_site_occupancy
  Zn  Zn1       1.0  0.6186283869574181  0.24988842703000813  0.7498224279211243  1.0000
  Zn  Zn2       1.0  0.3813778295689615  0.7501275329278344  0.2501626702428084  1.0000
  H   H1        1.0  0.24526205911617174  0.11165847720993577  0.7677244387845903  1.0000
  H   H2        1.0  0.12363924012724668  0.38760682950582753  0.7322530110233174  1.0000
  H   H3        1.0  0.7547176420279558  0.8883659130491708  0.23224796764506556  1.0000
  H   H4        1.0  0.8763359622547214  0.6123888110966647  0.26774822419318417  1.0000
  H   H5        1.0  0.6554480896891517  0.20482423660058666  0.5493165822637637  1.0000
  H   H6        1.0  0.40934557471818767  0.29524153552326043  0.9505435423712144  1.0000
  H   H7        1.0  0.3445387718586018  0.795201173093915  0.45066299222941103  1.0000
  H   H8        1.0  0.590650487810322  0.7047290323072345  0.0494501767172579  1.0000
  H   H9        1.0  0.35794751596146307  0.09459351613580222  0.5048835114419532  1.0000
  H   H10       1.0  0.956491561291195  0.40551279001410023  0.9950299433471202  1.0000
  H   H11       1.0  0.6420400539924246  0.9054189569973374  0.4950922020059779  1.0000
  H   H12       1.0  0.04354763500213473  0.5944434286127774  0.004966563760142196  1.0000
  H   H13       1.0  0.9603405692048383  0.06641705034640921  0.598377102502262  1.0000
  H   H14       1.0  0.6233283371570197  0.4336553992841489  0.9018245414214051  1.0000
  H   H15       1.0  0.039651935598073014  0.9335879322799415  0.40161554773897024  1.0000
  H   H16       1.0  0.376647479641065  0.5663345068222299  0.09819857050589322  1.0000
  H   H17       1.0  0.9531730990709305  0.05302053097889113  0.7067094666184915  1.0000
  H   H18       1.0  0.711723001217081  0.4467994477542092  0.7933557740652476  1.0000
  H   H19       1.0  0.04679234441637468  0.9469827938616576  0.2932810595245954  1.0000
  H   H20       1.0  0.2882628162574008  0.5531735971164339  0.20666620535243402  1.0000
  H   H21       1.0  0.8422992561747761  0.9083188514790311  0.5842541722141733  1.0000
  H   H22       1.0  0.33269497701551426  0.5922375709216894  0.9151387715238927  1.0000
  H   H23       1.0  0.15767903926428758  0.09167324529278181  0.4157360857442002  1.0000
  H   H24       1.0  0.6673208181203876  0.4077130877293202  0.08488499015039251  1.0000
  H   H25       1.0  0.9310303080653165  0.7091504147035863  0.5785755865416321  1.0000
  H   H26       1.0  0.2165120919591744  0.7914930075831135  0.9209246209676608  1.0000
  H   H27       1.0  0.06897077365143628  0.2908503703526435  0.4214369182268173  1.0000
  H   H28       1.0  0.7834569997057628  0.2084693455284851  0.07908815172633153  1.0000
  H   H29       1.0  0.2741187789590853  0.5997917179540481  0.633653489770218  1.0000
  H   H30       1.0  0.5067450193588671  0.9000556884641638  0.8664361721279975  1.0000
  H   H31       1.0  0.7258738429574901  0.4002227275621096  0.36636028070684296  1.0000
  H   H32       1.0  0.49319647362533187  0.09991813372419497  0.1335585257048777  1.0000
  H   H33       1.0  0.5238885919656578  0.6907985594543932  0.6919341893364007  1.0000
  H   H34       1.0  0.9065484966291351  0.8083295798556593  0.8085019140404058  1.0000
  H   H35       1.0  0.4760995504216509  0.3092167592839417  0.3080818685412723  1.0000
  H   H36       1.0  0.09340449416652055  0.1916666733519179  0.19149294467401035  1.0000
  H   H37       1.0  0.4366579355581094  0.8883639664285354  0.6966147760782136  1.0000
  H   H38       1.0  0.021099619351247184  0.6107286325192192  0.803732815062439  1.0000
  H   H39       1.0  0.5633399379438018  0.11165801097006071  0.30338352014496195  1.0000
  H   H40       1.0  0.978872947551359  0.38927038991364804  0.19627414748435973  1.0000
  H   H41       1.0  0.12555550550339212  0.14928601253748752  0.9136063223132994  1.0000
  H   H42       1.0  0.1887632526409956  0.35053691539819454  0.5863524490141572  1.0000
  H   H43       1.0  0.8744480585687027  0.850710161656231  0.086386570445427  1.0000
  H   H44       1.0  0.8112951018016755  0.6494888795168094  0.41366645371596183  1.0000
  H   H45       1.0  0.6684912221663596  0.9359906855317845  0.9718062232386586  1.0000
  H   H46       1.0  0.5757242679177921  0.5642507260636194  0.528060351126939  1.0000
  H   H47       1.0  0.331556314752966  0.06399697879199101  0.028170998951573312  1.0000
  H   H48       1.0  0.42431297423402736  0.43578225457470415  0.4719575237472143  1.0000
  C   C1        1.0  0.3217182560794423  0.12100133720167612  0.7029531244757907  1.0000
  C   C2        1.0  0.14472946351192909  0.3784647225000982  0.7969966086180663  1.0000
  C   C3        1.0  0.6782590463726732  0.8790311598345114  0.29702236707987595  1.0000
  C   C4        1.0  0.8552467955069147  0.621511859504004  0.20301006719312653  1.0000
  C   C5        1.0  0.5296501527347813  0.16737605267432804  0.5883941531155231  1.0000
  C   C6        1.0  0.2850113906708384  0.33254066637851315  0.9114467605393842  1.0000
  C   C7        1.0  0.47034349965656447  0.8326436826342842  0.4115833337755391  1.0000
  C   C8        1.0  0.7149956907621159  0.6674396786131924  0.0885524153327424  1.0000
  C   C9        1.0  0.38236215889906305  0.11373490138093705  0.5653964638225375  1.0000
  C   C10       1.0  0.06060573979485862  0.38613154395074645  0.9345048450152903  1.0000
  C   C11       1.0  0.6176186298979259  0.8862760983665013  0.43458334702416584  1.0000
  C   C12       1.0  0.9394288642458051  0.6138434952984966  0.06550444698634551  1.0000
  C   C13       1.0  0.0633950105062839  0.03162687064666161  0.6461492822797439  1.0000
  C   C14       1.0  0.7394890217561497  0.4682117371562598  0.8539291608607584  1.0000
  C   C15       1.0  0.9365872364815573  0.9683909881111463  0.3538451558658765  1.0000
  C   C16       1.0  0.26052578846154273  0.5317621684949998  0.1460950976602433  1.0000
  C   C17       1.0  0.13450486419634425  0.9113489202636417  0.6395502802160423  1.0000
  C   C18       1.0  0.68391072452345  0.5885279204043242  0.8604304652508717  1.0000
  C   C19       1.0  0.8654900916438636  0.08866643953066951  0.3604412027472748  1.0000
  C   C20       1.0  0.31609413169285716  0.41146102055416384  0.13958766723622062  1.0000
  C   C21       1.0  0.9934510646513531  0.8597784147273373  0.6067841558154684  1.0000
  C   C22       1.0  0.4580584476796046  0.6405521441267298  0.8928612646435141  1.0000
  C   C23       1.0  0.006527334500312058  0.14023709423381803  0.39321197062288604  1.0000
  C   C24       1.0  0.5419342890567833  0.35942754696876733  0.10716850375175822  1.0000
  C   C25       1.0  0.041976179924951555  0.7483304760816053  0.6043549536570582  1.0000
  C   C26       1.0  0.3928010752819803  0.7520036969902081  0.8953281794688623  1.0000
  C   C27       1.0  0.9580262234956082  0.2516820006383611  0.39564703858118133  1.0000
  C   C28       1.0  0.6071745203877797  0.24797399015421462  0.10468835229681163  1.0000
  C   C29       1.0  0.23341748503438692  0.6870085643246854  0.6349412391089758  1.0000
  C   C30       1.0  0.5542875162349143  0.8128408915924796  0.8650618189234295  1.0000
  C   C31       1.0  0.7665933844966234  0.31300701160068917  0.36505744314329297  1.0000
  C   C32       1.0  0.4456833187011854  0.18714122504022168  0.13494242686890354  1.0000
  C   C33       1.0  0.3750630996265516  0.7381059014628876  0.6675010872028865  1.0000
  C   C34       1.0  0.7800814710672553  0.761335907781998  0.8327388193952175  1.0000
  C   C35       1.0  0.6249462900822635  0.26191065571099165  0.33250342227891855  1.0000
  C   C36       1.0  0.21987540826725652  0.23866121553736266  0.16725832464548063  1.0000
  C   C37       1.0  0.3262418800689274  0.8497247211588785  0.6699230731889119  1.0000
  C   C38       1.0  0.8450823555784621  0.6497173563123938  0.8302827325043013  1.0000
  C   C39       1.0  0.673755212330228  0.15029244869847255  0.3300751794219111  1.0000
  C   C40       1.0  0.1548929592248527  0.35028099300710386  0.16972841377261721  1.0000
  C   C41       1.0  0.7577391344677408  0.0983294869259197  0.8669990338022943  1.0000
  C   C42       1.0  0.7228898276824933  0.40155922044466763  0.6328077265732831  1.0000
  C   C43       1.0  0.2423011910185834  0.9016693356271405  0.13297625757771672  1.0000
  C   C44       1.0  0.27712640859160576  0.5984462388514517  0.36720066722850225  1.0000
  C   C45       1.0  0.8851829621441493  0.04711509406521942  0.9350401654796628  1.0000
  C   C46       1.0  0.8671216839931689  0.45282453083702023  0.5648452282580436  1.0000
  C   C47       1.0  0.1148408163403262  0.9528767298830942  0.06494177917203811  1.0000
  C   C48       1.0  0.1328980496284019  0.5471829450084867  0.4351766497328314  1.0000
  C   C49       1.0  0.07153185369524073  0.08366591328491783  0.9513639785348361  1.0000
  C   C50       1.0  0.10669749749766998  0.41621990651271557  0.5486119994290349  1.0000
  C   C51       1.0  0.9285042954355089  0.9163394918743182  0.048616906976469906  1.0000
  C   C52       1.0  0.8933513879634633  0.5837893129019066  0.45141481018204394  1.0000
  C   C53       1.0  0.8146172446389525  0.963141852841517  0.9842437863423897  1.0000
  C   C54       1.0  0.7616433863290625  0.5369567735673826  0.5156918940158591  1.0000
  C   C55       1.0  0.1854324288393272  0.03684762154529151  0.0157402054953479  1.0000
  C   C56       1.0  0.23837178136349724  0.46306843681442456  0.48433352351634806  1.0000
  N   N1        1.0  0.49056001529255844  0.17074708037857533  0.6744726992297388  1.0000
  N   N2        1.0  0.33533742227238844  0.32890570550436843  0.8253847067841279  1.0000
  N   N3        1.0  0.5094282643833663  0.8292831178029234  0.3255063082743561  1.0000
  N   N4        1.0  0.6646355958976712  0.6710763952628512  0.17461905011218454  1.0000
  N   N5        1.0  0.25150612385509413  0.08550643478141502  0.6386162823419782  1.0000
  N   N6        1.0  0.9743446278673246  0.41409048699658524  0.8613717193024827  1.0000
  N   N7        1.0  0.7484739565357615  0.9145175015273778  0.3613673895499759  1.0000
  N   N8        1.0  0.025649414575894924  0.5858912838689109  0.13864757104328623  1.0000
  O   O1        1.0  0.8289814145453108  0.17895136593488561  0.8267664467502414  1.0000
  O   O2        1.0  0.8348894217771554  0.3208277847762632  0.6729757166231565  1.0000
  O   O3        1.0  0.17100470532235323  0.8210748569499419  0.1732394990875648  1.0000
  O   O4        1.0  0.16513633386785634  0.6791856225637787  0.3270307537133307  1.0000
  O   O5        1.0  0.5939656393128419  0.06475171661585931  0.8513015930605549  1.0000
  O   O6        1.0  0.5095259138492804  0.43518987805023107  0.6485734479339486  1.0000
  O   O7        1.0  0.40614626833022527  0.9351957728934864  0.1486464831855727  1.0000
  O   O8        1.0  0.4904792014616174  0.5648301594140437  0.35143996359080637  1.0000
