data_image0
_chemical_formula_structural       Ga8H64C40
_chemical_formula_sum              "Ga8 H64 C40"
_cell_length_a       7.8865868329350315
_cell_length_b       9.806405520737895
_cell_length_c       14.151790652258454
_cell_angle_alpha    89.99937542582573
_cell_angle_beta     89.99980135984985
_cell_angle_gamma    97.3004866753693

_space_group_name_H-M_alt    "P 1"
_space_group_IT_number       1

loop_
  _space_group_symop_operation_xyz
  'x, y, z'

loop_
  _atom_site_type_symbol
  _atom_site_label
  _atom_site_symmetry_multiplicity
  _atom_site_fract_x
  _atom_site_fract_y
  _atom_site_fract_z
  _atom_site_occupancy
  Ga  Ga1       1.0  0.8996083789452454  0.7466971869267809  0.831634554674693  1.0000
  Ga  Ga2       1.0  0.10039644822720817  0.7533000684049965  0.3316328744368136  1.0000
  Ga  Ga3       1.0  0.10039206686941778  0.2532981032546715  0.16836422606201754  1.0000
  Ga  Ga4       1.0  0.8996066992601682  0.24669624266103798  0.6683659062934241  1.0000
  Ga  Ga5       1.0  0.4908070457535487  0.7218332079109544  0.7830030450614274  1.0000
  Ga  Ga6       1.0  0.5091926347674087  0.778161798975887  0.2830010741512011  1.0000
  Ga  Ga7       1.0  0.5091956686668196  0.27816824704186155  0.21700209526937195  1.0000
  Ga  Ga8       1.0  0.49080847854524734  0.22183760350184653  0.7169955866964982  1.0000
  H   H1        1.0  0.685412286210713  0.46185808876781914  0.8270173281905357  1.0000
  H   H2        1.0  0.31460100607108643  0.0381222183424796  0.3270281256644196  1.0000
  H   H3        1.0  0.3145818226118634  0.5381372193940521  0.17297933267933274  1.0000
  H   H4        1.0  0.6854140803098189  0.9618617162873165  0.6729805478409221  1.0000
  H   H5        1.0  0.6154015173272356  0.3676244331595768  0.5306856364899843  1.0000
  H   H6        1.0  0.38461089157314626  0.13240203050778382  0.030701247954375805  1.0000
  H   H7        1.0  0.3846027982870054  0.6323790744354056  0.4693081978418618  1.0000
  H   H8        1.0  0.615395358853192  0.867605585623885  0.9693102519692689  1.0000
  H   H9        1.0  0.7672363272650315  0.5961202113461112  0.4895174087765426  1.0000
  H   H10       1.0  0.23276196003204316  0.9039206763605421  0.9895185409191924  1.0000
  H   H11       1.0  0.23275724922638827  0.4038874408418849  0.5104785454236662  1.0000
  H   H12       1.0  0.7672296498280532  0.0960982953227827  0.010483066235828203  1.0000
  H   H13       1.0  0.8699641270337037  0.76126183562927  0.6156703404407367  1.0000
  H   H14       1.0  0.13003747982350689  0.738754510007375  0.11566305634435992  1.0000
  H   H15       1.0  0.13003225040996816  0.23873963733380077  0.3843291469014289  1.0000
  H   H16       1.0  0.8699582977240538  0.26125107885641796  0.8843328978613202  1.0000
  H   H17       1.0  0.059603225962668156  0.9915170533054504  0.8283352516640576  1.0000
  H   H18       1.0  0.9403864211295527  0.5084803008368297  0.32833654569405724  1.0000
  H   H19       1.0  0.940401022046629  0.0084782260865452  0.17166494231762644  1.0000
  H   H20       1.0  0.059608788214944815  0.49151397565100313  0.671661528427265  1.0000
  H   H21       1.0  0.07919105113371934  0.9130844480001915  0.7160974300296561  1.0000
  H   H22       1.0  0.9208043769533204  0.5869209595014836  0.21609747400645324  1.0000
  H   H23       1.0  0.9208158985390538  0.08691185225849551  0.2839048838186358  1.0000
  H   H24       1.0  0.07919606887057276  0.41307433069786725  0.7838991868571838  1.0000
  H   H25       1.0  0.20459474931273286  0.8693174933932326  0.8134081215987337  1.0000
  H   H26       1.0  0.7954039671687169  0.630688315870877  0.313409503170135  1.0000
  H   H27       1.0  0.7954083981592531  0.1306788176429663  0.1865941922532954  1.0000
  H   H28       1.0  0.2045941107237681  0.36930800957711096  0.6865878643163728  1.0000
  H   H29       1.0  0.9981318309666491  0.6142027320388338  0.9707770577840833  1.0000
  H   H30       1.0  0.0018708506729012988  0.8857942329115289  0.4707731764428971  1.0000
  H   H31       1.0  0.0018673474446728934  0.3857925617291542  0.029222429578233306  1.0000
  H   H32       1.0  0.9981278947114163  0.1142062048208103  0.5292234844033175  1.0000
  H   H33       1.0  0.7720010724380515  0.6027593179341009  0.976103152836366  1.0000
  H   H34       1.0  0.22800393073434572  0.8972365217899492  0.4761008568550693  1.0000
  H   H35       1.0  0.2279992065013445  0.39723494417178523  0.0238963345286862  1.0000
  H   H36       1.0  0.7719970156968826  0.10276185260028109  0.5238979238696899  1.0000
  H   H37       1.0  0.8996457425158794  0.7556615761201967  0.013702693179631404  1.0000
  H   H38       1.0  0.100355782900742  0.7443348950549195  0.513702446756426  1.0000
  H   H39       1.0  0.10035343589544249  0.24433371764778405  0.9862967941826781  1.0000
  H   H40       1.0  0.8996404276645861  0.2556655498266238  0.4862984538384297  1.0000
  H   H41       1.0  0.2588619050721804  0.7227961805552284  0.6570870509913362  1.0000
  H   H42       1.0  0.7411325351373889  0.7772009710325136  0.15708462611721072  1.0000
  H   H43       1.0  0.7411421443349369  0.2772134989722517  0.3429159694345287  1.0000
  H   H44       1.0  0.25886350858652196  0.22279844583910344  0.8429092082380408  1.0000
  H   H45       1.0  0.4619928438610045  0.7795559099742847  0.6057108077122353  1.0000
  H   H46       1.0  0.5380009432813609  0.7204431410068819  0.10571062132893161  1.0000
  H   H47       1.0  0.538010438762427  0.22045685735449183  0.39429221270292913  1.0000
  H   H48       1.0  0.46199129822330315  0.2795562866064428  0.8942874527762187  1.0000
  H   H49       1.0  0.3998051436061658  0.6012315072757842  0.6285899084004215  1.0000
  H   H50       1.0  0.6001898785453222  0.8987681817642471  0.1285882743881999  1.0000
  H   H51       1.0  0.6002006738270184  0.39878125288588256  0.3714109921391753  1.0000
  H   H52       1.0  0.3998048977598643  0.1012312386640701  0.8714097997144491  1.0000
  H   H53       1.0  0.3383164625252562  0.5068200307548167  0.8674095679100802  1.0000
  H   H54       1.0  0.6616770795017074  0.9931715087377528  0.3674064040931313  1.0000
  H   H55       1.0  0.6616737447708301  0.49318248820456023  0.1325941591804849  1.0000
  H   H56       1.0  0.33832066464947264  0.006822760577009001  0.6325902567769719  1.0000
  H   H57       1.0  0.4955727230153214  0.5948509249897569  0.9439668877381493  1.0000
  H   H58       1.0  0.504423787540162  0.9051382825743273  0.44396610340174913  1.0000
  H   H59       1.0  0.5044209527402541  0.4051495270588886  0.0560361327322809  1.0000
  H   H60       1.0  0.4955771588879897  0.09486009180994158  0.5560333839473728  1.0000
  H   H61       1.0  0.2986398042569505  0.660158107427158  0.9258595918471855  1.0000
  H   H62       1.0  0.7013571977512427  0.839833462109482  0.4258589008780902  1.0000
  H   H63       1.0  0.7013547058688019  0.33984748498737366  0.07414130873025473  1.0000
  H   H64       1.0  0.29864628347127814  0.16016490507784203  0.5741419997172557  1.0000
  C   C1        1.0  0.7844108742207678  0.6243235482346635  0.7314796000580586  1.0000
  C   C2        1.0  0.21559112235294714  0.8756682094025692  0.2314803153699643  1.0000
  C   C3        1.0  0.21559023908880448  0.37567585423710176  0.2685177674140036  1.0000
  C   C4        1.0  0.784408322210112  0.12432091232550137  0.768522705136796  1.0000
  C   C5        1.0  0.7006315015710313  0.49250008834965087  0.752801149494566  1.0000
  C   C6        1.0  0.2993809711401879  0.0074958760712676  0.2528072583026031  1.0000
  C   C7        1.0  0.2993664094615696  0.5074952090526068  0.2471933914984845  1.0000
  C   C8        1.0  0.7006316480389855  0.9924962939345789  0.7471964688041055  1.0000
  C   C9        1.0  0.6364398454456365  0.39724931314712114  0.6823292129428254  1.0000
  C   C10       1.0  0.3635744091255972  0.10275503797493002  0.1823429663931222  1.0000
  C   C11       1.0  0.3635622015290564  0.6027480296108577  0.31766603466287785  1.0000
  C   C12       1.0  0.6364415791935086  0.8972422651521159  0.8176657070616926  1.0000
  C   C13       1.0  0.6624049053641413  0.43794280303960403  0.5873848673003293  1.0000
  C   C14       1.0  0.33760027142157156  0.06207243672411522  0.087391201604909  1.0000
  C   C15       1.0  0.3375962079546682  0.5620565994500667  0.41261038029865194  1.0000
  C   C16       1.0  0.6624067458192325  0.937932091665942  0.9126132320858462  1.0000
  C   C17       1.0  0.7473349442637839  0.5677779344221179  0.5636586814072474  1.0000
  C   C18       1.0  0.25266895115355936  0.9322505983872273  0.0636603162908642  1.0000
  C   C19       1.0  0.2526612663169345  0.43222251048926097  0.43633868606581677  1.0000
  C   C20       1.0  0.7473312960527777  0.0677590919177646  0.9363427041387383  1.0000
  C   C21       1.0  0.8054340668761383  0.6598657185711474  0.6349453736431343  1.0000
  C   C22       1.0  0.19456957312785053  0.8401482381257355  0.1349449813046846  1.0000
  C   C23       1.0  0.19456484536190996  0.340135747194978  0.3650555269452482  1.0000
  C   C24       1.0  0.8054325414025597  0.1598573327397403  0.8650552126409181  1.0000
  C   C25       1.0  0.07814461395217623  0.8951633833220358  0.7926524740422779  1.0000
  C   C26       1.0  0.9218510810091374  0.6048386714023622  0.29265520939084416  1.0000
  C   C27       1.0  0.9218601346706166  0.10483498027278422  0.2073484265518175  1.0000
  C   C28       1.0  0.07814919792718199  0.3951555906975557  0.7073449845985706  1.0000
  C   C29       1.0  0.8889426540739009  0.6725766287524307  0.9613837920104589  1.0000
  C   C30       1.0  0.11106341095510427  0.8274173998511288  0.4613815402609661  1.0000
  C   C31       1.0  0.11105872539664567  0.3274166016973226  0.0386149887329665  1.0000
  C   C32       1.0  0.88893736860701  0.17257994647548  0.5386165338434239  1.0000
  C   C33       1.0  0.3936299467619761  0.7056674612821253  0.6550102116265963  1.0000
  C   C34       1.0  0.6063646784016185  0.7943307534401356  0.15500934074357534  1.0000
  C   C35       1.0  0.6063742695204083  0.29434324632092057  0.3449921021709272  1.0000
  C   C36       1.0  0.39363153217909286  0.20566969147124328  0.8449880267294888  1.0000
  C   C37       1.0  0.39752239725398647  0.6083193316943465  0.8909679883941806  1.0000
  C   C38       1.0  0.6024731406328813  0.8916697465505053  0.3909671091316369  1.0000
  C   C39       1.0  0.6024698442352872  0.3916800958891499  0.10903361883276123  1.0000
  C   C40       1.0  0.39752873945730727  0.108326568114002  0.6090309649754887  1.0000
