data_image0
_chemical_formula_structural       ZnH16C22S6N6
_chemical_formula_sum              "Zn1 H16 C22 S6 N6"
_cell_length_a       9.03986430666993
_cell_length_b       10.255390601339561
_cell_length_c       10.296420466568193
_cell_angle_alpha    104.72227479123664
_cell_angle_beta     96.87157709609535
_cell_angle_gamma    108.6458492565525

_space_group_name_H-M_alt    "P 1"
_space_group_IT_number       1

loop_
  _space_group_symop_operation_xyz
  'x, y, z'

loop_
  _atom_site_type_symbol
  _atom_site_label
  _atom_site_symmetry_multiplicity
  _atom_site_fract_x
  _atom_site_fract_y
  _atom_site_fract_z
  _atom_site_occupancy
  Zn  Zn1       1.0  0.9999992171649336  6.015616520037961e-07  4.279939887145073e-07  1.0000
  H   H1        1.0  0.038879840779500796  0.20104080899793786  0.2970823563859994  1.0000
  H   H2        1.0  0.9611260822682298  0.79896361887392  0.7029223636615427  1.0000
  H   H3        1.0  0.2384309436292682  0.333352890659107  0.5207630300865417  1.0000
  H   H4        1.0  0.7615742883606343  0.6666471838971333  0.47924144896389703  1.0000
  H   H5        1.0  0.21553801602577488  0.9804003913422363  0.7822756525501403  1.0000
  H   H6        1.0  0.7844589964984293  0.019598718253014603  0.2177258221152555  1.0000
  H   H7        1.0  0.3608510351328462  0.04789588625011021  0.11621367889816268  1.0000
  H   H8        1.0  0.6391519647910969  0.9521042425374238  0.883787681125547  1.0000
  H   H9        1.0  0.5757571026580875  0.17940687643999811  0.3251171213632986  1.0000
  H   H10       1.0  0.42424301836746986  0.8205943865929585  0.6748832824664176  1.0000
  H   H11       1.0  0.12433337439070867  0.3208351097643813  0.025833487042518782  1.0000
  H   H12       1.0  0.8756607437436799  0.6791651595442902  0.9741641227902347  1.0000
  H   H13       1.0  0.3972748820413016  0.14135094682201546  0.6759844863135455  1.0000
  H   H14       1.0  0.6027223261880934  0.8586460001479426  0.32401449658477327  1.0000
  H   H15       1.0  0.30557283888734327  0.49944172769489376  0.9349901035641677  1.0000
  H   H16       1.0  0.6944208126283797  0.5005574844706189  0.06500426869558136  1.0000
  C   C1        1.0  0.4229464430129397  0.26440651591000364  0.44258073370039597  1.0000
  C   C2        1.0  0.5770567681076244  0.7355914247842321  0.5574210431948854  1.0000
  C   C3        1.0  0.7845581041691715  0.1908156978206748  0.04540271512082229  1.0000
  C   C4        1.0  0.2154337531652786  0.8091791669215382  0.9545922804940117  1.0000
  C   C5        1.0  0.15786553874823986  0.1951154370636843  0.3098933468761372  1.0000
  C   C6        1.0  0.8421372212451032  0.8048814210193953  0.6901081010848101  1.0000
  C   C7        1.0  0.26957206822788754  0.27003506223231716  0.43367552888204836  1.0000
  C   C8        1.0  0.7304333882011775  0.7299683084963892  0.5663259535924965  1.0000
  C   C9        1.0  0.2360948994579033  0.09567729784616572  0.810565529917774  1.0000
  C   C10       1.0  0.7639032213535656  0.9043217973674373  0.18943604994166202  1.0000
  C   C11       1.0  0.3363358690325668  0.1107307239341608  0.20768458601248335  1.0000
  C   C12       1.0  0.6636686667357095  0.8892650057958064  0.7923186824946382  1.0000
  C   C13       1.0  0.4569717668873068  0.18378999120783854  0.3261699344529275  1.0000
  C   C14       1.0  0.5430330559518808  0.8162199438007534  0.67383029740688  1.0000
  C   C15       1.0  0.1878360955193088  0.28615884369143163  0.9483011035308521  1.0000
  C   C16       1.0  0.8121613474768736  0.7138413824723172  0.051696821884014824  1.0000
  C   C17       1.0  0.3378792606224934  0.1856481322208197  0.7521034014033816  1.0000
  C   C18       1.0  0.6621168341558246  0.8143488376201163  0.24789450675468308  1.0000
  C   C19       1.0  0.28880980518803057  0.38490890587095095  0.8973351525608493  1.0000
  C   C20       1.0  0.7111845138153542  0.6150891923230973  0.10266093505104118  1.0000
  C   C21       1.0  0.3653679108841955  0.3335742459681157  0.7963127315375472  1.0000
  C   C22       1.0  0.6346290861485713  0.6664248890951329  0.20368583448919242  1.0000
  S   S1        1.0  0.5790452178974518  0.3508719968662461  0.592001330894142  1.0000
  S   S2        1.0  0.4209617898673841  0.649126949336882  0.4080049687024711  1.0000
  S   S3        1.0  0.629147346218076  0.23362372153342661  0.019279779058074098  1.0000
  S   S4        1.0  0.37084450078874903  0.7663711601874609  0.9807132774643249  1.0000
  S   S5        1.0  0.48946430019878306  0.46416483182014895  0.7327251676540172  1.0000
  S   S6        1.0  0.5105377974707038  0.5358331317450721  0.2672755345010103  1.0000
  N   N1        1.0  0.8963935247675607  0.15477639756786493  0.0629828450309304  1.0000
  N   N2        1.0  0.10360060369445284  0.8452238547621321  0.9370167038942582  1.0000
  N   N3        1.0  0.1883998553112107  0.11495594703716704  0.1984974835642674  1.0000
  N   N4        1.0  0.8116060419174573  0.8850485232813627  0.8015023887521764  1.0000
  N   N5        1.0  0.1605341651032361  0.14349056597518484  0.9061536486646631  1.0000
  N   N6        1.0  0.8394617288060784  0.8565085749803744  0.09384578171426475  1.0000
