data_image0
_chemical_formula_structural       Sm2Cd2H24C30S2N4O24
_chemical_formula_sum              "Sm2 Cd2 H24 C30 S2 N4 O24"
_cell_length_a       8.679830546352338
_cell_length_b       8.919666906978879
_cell_length_c       13.309283295471772
_cell_angle_alpha    87.86269784019146
_cell_angle_beta     90.03434706488396
_cell_angle_gamma    75.57516389130008

_space_group_name_H-M_alt    "P 1"
_space_group_IT_number       1

loop_
  _space_group_symop_operation_xyz
  'x, y, z'

loop_
  _atom_site_type_symbol
  _atom_site_label
  _atom_site_symmetry_multiplicity
  _atom_site_fract_x
  _atom_site_fract_y
  _atom_site_fract_z
  _atom_site_occupancy
  Sm  Sm1       1.0  0.21543786231473666  0.8133650544583944  0.5040501626724847  1.0000
  Sm  Sm2       1.0  0.7845488052009983  0.1866381482991457  0.4959512014298183  1.0000
  Cd  Cd1       1.0  0.36128782818904176  0.34661300322957095  0.27591958189286453  1.0000
  Cd  Cd2       1.0  0.6387018475246008  0.653383224657361  0.7240797511179763  1.0000
  H   H1        1.0  0.07237743371741347  0.6586620562447721  0.3502034680549712  1.0000
  H   H2        1.0  0.9276201924662714  0.34133889809244533  0.6497949500161581  1.0000
  H   H3        1.0  0.967930777806167  0.827825345898809  0.3223516362975687  1.0000
  H   H4        1.0  0.0320630935023587  0.1721767016856859  0.6776452480540341  1.0000
  H   H5        1.0  0.5225035787360638  0.8820957738250714  0.4092413490139961  1.0000
  H   H6        1.0  0.47749152661193517  0.11790180554371692  0.5907654473621804  1.0000
  H   H7        1.0  0.3644319557664204  0.9766919948822803  0.3657401838961291  1.0000
  H   H8        1.0  0.6355641729033864  0.0232973359203541  0.6342593654448263  1.0000
  H   H9        1.0  0.2122237124918911  0.07243864148718161  0.1889993863502681  1.0000
  H   H10       1.0  0.7877755907197467  0.9275646813725801  0.8110004554256988  1.0000
  H   H11       1.0  0.10004807742429732  0.005865004838412301  0.029175175874747997  1.0000
  H   H12       1.0  0.899955821445232  0.9941383328287543  0.9708224055321679  1.0000
  H   H13       1.0  0.06880539338573041  0.19217863131419927  0.8797056129754777  1.0000
  H   H14       1.0  0.931207165755616  0.807822469580593  0.120291279070031  1.0000
  H   H15       1.0  0.10949581550533338  0.4429466689560756  0.8046153258002204  1.0000
  H   H16       1.0  0.8905207171694658  0.5570568523188086  0.19538448823117696  1.0000
  H   H17       1.0  0.2163091472869283  0.6732514522296996  0.8215500313161214  1.0000
  H   H18       1.0  0.783704468270443  0.3267543719559286  0.17845046282848637  1.0000
  H   H19       1.0  0.35824816815416227  0.826322096664477  0.9257849791072416  1.0000
  H   H20       1.0  0.6417643872059245  0.17367913124130752  0.0742194228399171  1.0000
  H   H21       1.0  0.4665094443249346  0.8691462053491533  0.09582867619097608  1.0000
  H   H22       1.0  0.5334962181155163  0.13085498129387932  0.9041779898244966  1.0000
  H   H23       1.0  0.45259066644070595  0.6851112752440474  0.23888385281804858  1.0000
  H   H24       1.0  0.5474101835741791  0.31488631945872214  0.7611199303492808  1.0000
  C   C1        1.0  0.19740903141411084  0.15082119021268173  0.12287509495566698  1.0000
  C   C2        1.0  0.802594867077289  0.8491821601555857  0.8771232374414167  1.0000
  C   C3        1.0  0.132319163127363  0.11556696114512732  0.03307111580495809  1.0000
  C   C4        1.0  0.867687962598367  0.8844329152787938  0.9669258227768508  1.0000
  C   C5        1.0  0.115160206061887  0.21838751066315615  0.9511861145299034  1.0000
  C   C6        1.0  0.8848546503412112  0.7816136166869825  0.048810773816335  1.0000
  C   C7        1.0  0.16724706268965414  0.35561830157151775  0.9586669431127033  1.0000
  C   C8        1.0  0.8327707100746337  0.6443805482700783  0.04133076710063929  1.0000
  C   C9        1.0  0.16071344401421334  0.46445201200688047  0.8759444778427007  1.0000
  C   C10       1.0  0.8393054770028171  0.5355468637634857  0.12405398151117447  1.0000
  C   C11       1.0  0.21996685645775932  0.591675927819047  0.8853536491180234  1.0000
  C   C12       1.0  0.7800517540642461  0.4083241316860154  0.1146462749280701  1.0000
  C   C13       1.0  0.2881518559040543  0.6206488892665264  0.9786762751120504  1.0000
  C   C14       1.0  0.7118647663387206  0.379350010852889  0.0213251919017523  1.0000
  C   C15       1.0  0.3544500537146007  0.7486426719182121  0.9906470483898955  1.0000
  C   C16       1.0  0.6455639607713907  0.25135738548054576  0.009355887015402702  1.0000
  C   C17       1.0  0.41507292122155803  0.7716027008454275  0.0834007736664759  1.0000
  C   C18       1.0  0.5849356594706947  0.22839614478355938  0.9166029592652833  1.0000
  C   C19       1.0  0.41055682270994964  0.6665684549504577  0.1641280595682559  1.0000
  C   C20       1.0  0.5894494607205517  0.33343036422318306  0.8358756770627733  1.0000
  C   C21       1.0  0.29285279206222015  0.5175107916697784  0.06334765264330848  1.0000
  C   C22       1.0  0.7071606951610717  0.4824868723308172  0.9366516042370276  1.0000
  C   C23       1.0  0.2330468085133361  0.3813470628611881  0.05239798172894439  1.0000
  C   C24       1.0  0.7669660596105317  0.6186529051033035  0.9476004495850103  1.0000
  C   C25       1.0  0.4648887800536626  0.4808037172695236  0.4509593608169381  1.0000
  C   C26       1.0  0.5350714189062629  0.5192165583452848  0.5490384751461618  1.0000
  C   C27       1.0  0.9709278238946624  0.6380190672078143  0.6119483624598558  1.0000
  C   C28       1.0  0.02907333964025578  0.3619772421514612  0.3880479480939485  1.0000
  C   C29       1.0  0.8700584109809526  0.8092530205905961  0.6011384375675419  1.0000
  C   C30       1.0  0.1299279099205322  0.19073849565344153  0.3988595500139595  1.0000
  S   S1        1.0  0.29169200978375887  0.9517784798501343  0.7013436442817208  1.0000
  S   S2        1.0  0.708303628120703  0.048221315101436305  0.2986563167571177  1.0000
  N   N1        1.0  0.24542787433685484  0.27986031213310275  0.1318010483593781  1.0000
  N   N2        1.0  0.7545769529927496  0.7201395759387667  0.8681981468922045  1.0000
  N   N3        1.0  0.353757215339776  0.5421416523925374  0.15373447694309308  1.0000
  N   N4        1.0  0.6462493785857504  0.45785598304640734  0.8462677949957252  1.0000
  O   O1        1.0  0.10510919627886034  0.607590156435535  0.5700666378246169  1.0000
  O   O2        1.0  0.8948815343383034  0.3924108455466283  0.42993930124598007  1.0000
  O   O3        1.0  0.06983975733350435  0.7699798612942247  0.3553747725173224  1.0000
  O   O4        1.0  0.930153803479996  0.2300233700249663  0.6446235765264986  1.0000
  O   O5        1.0  0.928504678833235  0.9071648536586567  0.5522883405526642  1.0000
  O   O6        1.0  0.0714823887455012  0.09283254420871863  0.4477132118398328  1.0000
  O   O7        1.0  0.41796099277949145  0.8675634414382715  0.38825084608625815  1.0000
  O   O8        1.0  0.5820384891899694  0.1324306518116529  0.6117530526446869  1.0000
  O   O9        1.0  0.7355085613467197  0.8430118790810185  0.6424296413358305  1.0000
  O   O10       1.0  0.26447440738949274  0.15697483661243442  0.35756174388518497  1.0000
  O   O11       1.0  0.9100297077647569  0.5449856813612471  0.66270318064317  1.0000
  O   O12       1.0  0.08996266413926433  0.45500480619416095  0.33729858992907663  1.0000
  O   O13       1.0  0.5334089221943473  0.3519889035215229  0.4130898454511892  1.0000
  O   O14       1.0  0.4665694877594504  0.6480106422105367  0.5869071393715614  1.0000
  O   O15       1.0  0.3458308452694254  0.5755819952304579  0.4132454677172532  1.0000
  O   O16       1.0  0.654155692777863  0.42441308544534456  0.5867569120912677  1.0000
  O   O17       1.0  0.19356592934774836  0.8369782713054051  0.6871714943892967  1.0000
  O   O18       1.0  0.8064232544661678  0.16302845883375747  0.3128305032899305  1.0000
  O   O19       1.0  0.339143815900428  0.9890295011351145  0.5954301862850429  1.0000
  O   O20       1.0  0.6608526608961327  0.0109714653766275  0.4045697356160502  1.0000
  O   O21       1.0  0.434431682141664  0.8811567075769634  0.7647536548056306  1.0000
  O   O22       1.0  0.5655634258532133  0.1188407828841349  0.23524788463939925  1.0000
  O   O23       1.0  0.19790430588797386  0.0931571361314454  0.7468925110003536  1.0000
  O   O24       1.0  0.8020940677292073  0.9068496744269154  0.25310796990144263  1.0000
