data_image0
_chemical_formula_structural       Co12H48C72N30Cl6O24
_chemical_formula_sum              "Co12 H48 C72 N30 Cl6 O24"
_cell_length_a       11.921264140449741
_cell_length_b       16.307244652409167
_cell_length_c       16.30492886049845
_cell_angle_alpha    114.27144914630586
_cell_angle_beta     104.10584487494877
_cell_angle_gamma    104.10084213018455

_space_group_name_H-M_alt    "P 1"
_space_group_IT_number       1

loop_
  _space_group_symop_operation_xyz
  'x, y, z'

loop_
  _atom_site_type_symbol
  _atom_site_label
  _atom_site_symmetry_multiplicity
  _atom_site_fract_x
  _atom_site_fract_y
  _atom_site_fract_z
  _atom_site_occupancy
  Co  Co1       1.0  0.05880526494708955  0.4468198983861383  0.0421591658732581  1.0000
  Co  Co2       1.0  0.01667681308368425  0.957787767678816  0.40468194760248377  1.0000
  Co  Co3       1.0  0.6121180127741255  0.5954727722813118  0.5532339255518937  1.0000
  Co  Co4       1.0  0.9412245429829724  0.5531850303163992  0.9578285340253319  1.0000
  Co  Co5       1.0  0.9833811399288449  0.04220329922451781  0.5953763103419335  1.0000
  Co  Co6       1.0  0.38784850754763056  0.4045547976045469  0.4467933051279403  1.0000
  Co  Co7       1.0  0.8048704455185315  0.4043579404592137  0.043435071815018565  1.0000
  Co  Co8       1.0  0.7612759601172383  0.9564092231097586  0.3609018465874954  1.0000
  Co  Co9       1.0  0.40063989245736303  0.6392608786383249  0.5957201442270731  1.0000
  Co  Co10      1.0  0.19517782631184138  0.59568203340951  0.9565562183304268  1.0000
  Co  Co11      1.0  0.23868346932691506  0.0435453311774197  0.6390923506969344  1.0000
  Co  Co12      1.0  0.5993230560036551  0.3607477111820502  0.4043238110862646  1.0000
  H   H1        1.0  0.5334880176808525  0.7713911621447308  0.1971087109811337  1.0000
  H   H2        1.0  0.3365939422893262  0.8030981114527049  0.574381251830502  1.0000
  H   H3        1.0  0.7619808476665142  0.4255237916281444  0.22851526296537372  1.0000
  H   H4        1.0  0.4664300079299225  0.22859404840514233  0.8028255425267121  1.0000
  H   H5        1.0  0.6634106875671294  0.19689805653649728  0.42560566400251804  1.0000
  H   H6        1.0  0.2380034648057503  0.5744782142228074  0.7714489025755783  1.0000
  H   H7        1.0  0.41512285734836496  0.8614854538662371  0.4803110426477489  1.0000
  H   H8        1.0  0.9351212745217694  0.5198178960085045  0.3814783464375467  1.0000
  H   H9        1.0  0.5535316097846775  0.6185562936642768  0.13825779829419113  1.0000
  H   H10       1.0  0.5848083989371062  0.1384398864382987  0.5196157983971403  1.0000
  H   H11       1.0  0.06493127633265058  0.4801497993996549  0.6185270413184584  1.0000
  H   H12       1.0  0.4465180184133857  0.3814719896357063  0.8616768163715707  1.0000
  H   H13       1.0  0.21960786040135363  0.4098148482049737  0.27907301961580094  1.0000
  H   H14       1.0  0.9403933787744023  0.7207208086819321  0.1308857004926339  1.0000
  H   H15       1.0  0.8095874360091742  0.8693484662514734  0.5900232164404927  1.0000
  H   H16       1.0  0.7804115714927278  0.5901696406929557  0.7209332558661289  1.0000
  H   H17       1.0  0.059627955485972044  0.27923958191848197  0.8690901946174776  1.0000
  H   H18       1.0  0.19031739632261954  0.13059441489969706  0.4100164265823381  1.0000
  H   H19       1.0  0.1479143086197183  0.2908924715732297  0.4511494372879525  1.0000
  H   H20       1.0  0.6971470719279154  0.5490481767129936  0.8396694177173245  1.0000
  H   H21       1.0  0.8574864945694568  0.160522191061176  0.7094535598108322  1.0000
  H   H22       1.0  0.8521260959960699  0.70917379515501  0.5488984256900906  1.0000
  H   H23       1.0  0.302837125757577  0.4509436126320806  0.16032672754197821  1.0000
  H   H24       1.0  0.14252358079181696  0.8394506170034788  0.2905566643014197  1.0000
  H   H25       1.0  0.837168326094833  0.28386042017766033  0.2411327298902252  1.0000
  H   H26       1.0  0.5959413587964304  0.7587090080177317  0.04267548156163762  1.0000
  H   H27       1.0  0.5539082471342026  0.9577399757615621  0.7168405669157494  1.0000
  H   H28       1.0  0.16284649836570253  0.7161722634992527  0.7589225073676574  1.0000
  H   H29       1.0  0.4041046800089063  0.2413265861726543  0.9573215835855677  1.0000
  H   H30       1.0  0.44602559371683986  0.042286132259413  0.28317033969500477  1.0000
  H   H31       1.0  0.27062284408476245  0.7039962336891464  0.3228528912195687  1.0000
  H   H32       1.0  0.9478446008832506  0.6773161342893914  0.3815988730619894  1.0000
  H   H33       1.0  0.5664983185074347  0.6186797708247126  0.2957728934269781  1.0000
  H   H34       1.0  0.7293155154535642  0.29593275480756626  0.6770601698395141  1.0000
  H   H35       1.0  0.05214718117918685  0.3226705509658742  0.6184413255092664  1.0000
  H   H36       1.0  0.43354183001073915  0.38137625828263566  0.7041713722173385  1.0000
  H   H37       1.0  0.9165139548737145  0.2370576619371789  0.3674215627472891  1.0000
  H   H38       1.0  0.5493182303489805  0.6326328716798956  0.869509074762668  1.0000
  H   H39       1.0  0.6802431649819168  0.13079823008308009  0.7636591278018372  1.0000
  H   H40       1.0  0.08351838752014364  0.763023942679375  0.6326611772661793  1.0000
  H   H41       1.0  0.45069585857064004  0.36737206140312395  0.13050399568197696  1.0000
  H   H42       1.0  0.31972136390182015  0.8692161895936437  0.2363145170092622  1.0000
  H   H43       1.0  0.6147539493308259  0.9632278044146007  0.48599791730914915  1.0000
  H   H44       1.0  0.12929115360498136  0.514220574837843  0.47741053559309427  1.0000
  H   H45       1.0  0.6515218839089485  0.522389338778872  0.0366122323581806  1.0000
  H   H46       1.0  0.38515534769569365  0.0367384251096041  0.5139459943567672  1.0000
  H   H47       1.0  0.8707931033401336  0.48575515190095325  0.5226014249750506  1.0000
  H   H48       1.0  0.34843391319389383  0.47755060632913165  0.9633360709571973  1.0000
  C   C1        1.0  0.3914997926692364  0.725610727113647  0.2482850869701139  1.0000
  C   C2        1.0  0.14334288536315398  0.7518720646411055  0.4775941823280335  1.0000
  C   C3        1.0  0.6657384859117457  0.5225274539592846  0.274256736159579  1.0000
  C   C4        1.0  0.6084333759170663  0.2743562280951081  0.7516346148106124  1.0000
  C   C5        1.0  0.8566652241077648  0.24811242653942137  0.5224247652913903  1.0000
  C   C6        1.0  0.3342270910491294  0.47747674051827  0.7256932834301892  1.0000
  C   C7        1.0  0.5043106320531975  0.7876047391401286  0.2582813126703912  1.0000
  C   C8        1.0  0.2462908182215385  0.7419172299037624  0.5294912405984533  1.0000
  C   C9        1.0  0.71661421577884  0.4704839209582302  0.21231436519486385  1.0000
  C   C10       1.0  0.4956183841610553  0.21237828162949055  0.7416583253638719  1.0000
  C   C11       1.0  0.7537246385279702  0.25807675308215755  0.47053169790069665  1.0000
  C   C12       1.0  0.2833789369262476  0.5295253864314091  0.7876543907178543  1.0000
  C   C13       1.0  0.024107781740674714  0.35207996457400276  0.25259846006526493  1.0000
  C   C14       1.0  0.771448084579596  0.7472635488725672  0.09952047191109162  1.0000
  C   C15       1.0  0.6721916651305619  0.9007974591822716  0.6481440770486061  1.0000
  C   C16       1.0  0.9759210374682041  0.6479286212942481  0.7474316512789231  1.0000
  C   C17       1.0  0.22861346802724106  0.25274064655324924  0.9004524312223836  1.0000
  C   C18       1.0  0.32772506080395664  0.09919652753442418  0.3518855338599991  1.0000
  C   C19       1.0  0.4385146124293868  0.8374966574869446  0.4160995464778239  1.0000
  C   C20       1.0  0.022677757780627337  0.5840589697110444  0.4216485336716502  1.0000
  C   C21       1.0  0.600884389602939  0.5783408288213465  0.16227107204056074  1.0000
  C   C22       1.0  0.5614059564035899  0.16244693434111207  0.5838181181553354  1.0000
  C   C23       1.0  0.9773701310449069  0.41592552169719704  0.578378837304122  1.0000
  C   C24       1.0  0.3991548668219949  0.42169110781400576  0.8376797223386347  1.0000
  C   C25       1.0  0.15094598300247947  0.37464341597823386  0.29977956100006514  1.0000
  C   C26       1.0  0.8510731989307914  0.7000386404087492  0.07491730124655765  1.0000
  C   C27       1.0  0.7762878411342626  0.9253131596053022  0.6253688756789229  1.0000
  C   C28       1.0  0.8490880429369554  0.6253841527277401  0.700251908780814  1.0000
  C   C29       1.0  0.14896369736747767  0.2999319702468383  0.925052102911053  1.0000
  C   C30       1.0  0.22364478046971936  0.074643591708778  0.37466369050897447  1.0000
  C   C31       1.0  0.10936659685543051  0.3065497903475247  0.39403756976022924  1.0000
  C   C32       1.0  0.7155351243484417  0.606038713907061  0.9124671065354023  1.0000
  C   C33       1.0  0.8032652726842713  0.08775881570326757  0.6937684995337322  1.0000
  C   C34       1.0  0.8906637177998891  0.6935033353361885  0.6060141243060712  1.0000
  C   C35       1.0  0.28446637492470467  0.3939581852832815  0.0875262889424562  1.0000
  C   C36       1.0  0.19674026417414575  0.9122118014203265  0.30623693940894003  1.0000
  C   C37       1.0  0.30590285221435926  0.6359402126445987  0.1517068750432743  1.0000
  C   C38       1.0  0.15426663526480405  0.8483870662783487  0.48443613827063103  1.0000
  C   C39       1.0  0.6697909595285623  0.5156359645813495  0.36392746820112626  1.0000
  C   C40       1.0  0.6940750216159159  0.36402600968153814  0.8482028281422416  1.0000
  C   C41       1.0  0.8457371438074404  0.15160618855016136  0.5155972689251982  1.0000
  C   C42       1.0  0.3301256056805997  0.48434121543007785  0.6360105912072883  1.0000
  C   C43       1.0  0.9368953453460803  0.3026993577772074  0.2773367991004747  1.0000
  C   C44       1.0  0.6595916716651329  0.7226124918102312  0.02535402909448691  1.0000
  C   C45       1.0  0.6346598498564688  0.9750419872446586  0.6978321843951181  1.0000
  C   C46       1.0  0.06312564294872672  0.6973508496742583  0.7227273451547308  1.0000
  C   C47       1.0  0.34047642108416915  0.2774274841786806  0.9746543407478115  1.0000
  C   C48       1.0  0.36529974453464586  0.02498047290103499  0.30220028652392733  1.0000
  C   C49       1.0  0.35868983094758283  0.7510765315445981  0.3296138507291389  1.0000
  C   C50       1.0  0.029210965822215933  0.6705611026265644  0.4218237968651268  1.0000
  C   C51       1.0  0.6074771765047801  0.5783380522117838  0.2487154249885962  1.0000
  C   C52       1.0  0.6412326057389706  0.2488655998835227  0.6703029402601076  1.0000
  C   C53       1.0  0.9707912632254079  0.3294168171710439  0.5781913949587079  1.0000
  C   C54       1.0  0.3925516388737051  0.4216989961541343  0.7512398676784288  1.0000
  C   C55       1.0  0.987486121739046  0.3838757222743823  0.179719283019118  1.0000
  C   C56       1.0  0.8076500031784164  0.8200770556754478  0.20421498962552678  1.0000
  C   C57       1.0  0.603786688220154  0.7960540124425249  0.6162490472472798  1.0000
  C   C58       1.0  0.01255397422639237  0.6160824789351124  0.8202658559398229  1.0000
  C   C59       1.0  0.192408417761726  0.1798986677911145  0.7957714427701745  1.0000
  C   C60       1.0  0.3961000073823158  0.2039596913408346  0.3838022205927416  1.0000
  C   C61       1.0  0.9805796711058861  0.27816149694429265  0.3477580385831517  1.0000
  C   C62       1.0  0.6329510830756035  0.6522565709234627  0.9303591007561636  1.0000
  C   C63       1.0  0.7030002609950258  0.0699776853140506  0.7223378603513525  1.0000
  C   C64       1.0  0.019450207239287778  0.7219047740736569  0.6523155210256419  1.0000
  C   C65       1.0  0.3670752797163884  0.3477658843155068  0.06965355504037522  1.0000
  C   C66       1.0  0.2969888870028612  0.9300360070985576  0.27765833995400874  1.0000
  C   C67       1.0  0.5496148294250462  0.8948119822744192  0.42004995552167684  1.0000
  C   C68       1.0  0.12994005230443403  0.5801297982236803  0.47490795312564427  1.0000
  C   C69       1.0  0.6547637230669636  0.5249589333685805  0.10504514482279607  1.0000
  C   C70       1.0  0.4502889165228297  0.10516373684583159  0.5798815063609766  1.0000
  C   C71       1.0  0.870129465327956  0.419856149402264  0.5250975547447894  1.0000
  C   C72       1.0  0.3452382584499958  0.475029929074843  0.8949125399231833  1.0000
  N   N1        1.0  0.5832931117636235  0.8700761500545227  0.34269836088623873  1.0000
  N   N2        1.0  0.24092837865071456  0.6575320990875609  0.5275522890486145  1.0000
  N   N3        1.0  0.7131527085420757  0.4723752849829665  0.12983392346875192  1.0000
  N   N4        1.0  0.41662798876893004  0.12990833091837567  0.6572398299442739  1.0000
  N   N5        1.0  0.7591305312348097  0.34247429491609443  0.47247316848131504  1.0000
  N   N6        1.0  0.2868345269242667  0.5276135786889284  0.8701290671256531  1.0000
  N   N7        1.0  0.19346992854998746  0.35487107752531694  0.3707519933508365  1.0000
  N   N8        1.0  0.8227931036922199  0.6291862189806139  0.9841418404408274  1.0000
  N   N9        1.0  0.8387734451410226  0.0160487180203503  0.6452082026612729  1.0000
  N   N10       1.0  0.806551874228532  0.6451667143631423  0.6292881994631331  1.0000
  N   N11       1.0  0.17721956855144325  0.37078439184374895  0.015824407954092096  1.0000
  N   N12       1.0  0.16122742523617006  0.983904382113593  0.35483214839162264  1.0000
  N   N13       1.0  0.9431831146060006  0.5266497390296649  0.07506271739599409  1.0000
  N   N14       1.0  0.8681169930116537  0.925052881308943  0.4516425681517121  1.0000
  N   N15       1.0  0.4165713157635054  0.5484387944482235  0.4734944729512947  1.0000
  N   N16       1.0  0.056934464754917265  0.4734238291091088  0.9250008719201759  1.0000
  N   N17       1.0  0.13196122407975958  0.07500097552736658  0.5484242247969463  1.0000
  N   N18       1.0  0.5833806572093891  0.45159316522801873  0.5265889625659029  1.0000
  N   N19       1.0  0.9908700720413821  0.595171175767092  0.1597815632645236  1.0000
  N   N20       1.0  0.8311390067211661  0.8403845850235924  0.43554032784327756  1.0000
  N   N21       1.0  0.3956410223370028  0.5645618484849065  0.40493800387724127  1.0000
  N   N22       1.0  0.009305240023728277  0.4049191848941546  0.8402926032179039  1.0000
  N   N23       1.0  0.16896120149456098  0.15967000189048255  0.5645301293595537  1.0000
  N   N24       1.0  0.604273065139047  0.4354584299496123  0.5951417655579121  1.0000
  N   N25       1.0  0.03689989362541717  0.6601969459658007  0.23847703116204147  1.0000
  N   N26       1.0  0.7984799449494275  0.7617129185153998  0.4218976427530735  1.0000
  N   N27       1.0  0.376536674825374  0.5781270998789195  0.3398493460895865  1.0000
  N   N28       1.0  0.9633264509441518  0.33989487103576727  0.7615812051136289  1.0000
  N   N29       1.0  0.20164787432237571  0.2383380167989344  0.5781707939582504  1.0000
  N   N30       1.0  0.623314644883621  0.4218749251491333  0.6602146569247794  1.0000
  Cl  Cl1       1.0  0.8770831758510339  0.29482781948944853  0.9401359105146341  1.0000
  Cl  Cl2       1.0  0.9367572888407025  0.059670626184931984  0.3545319397129703  1.0000
  Cl  Cl3       1.0  0.5823657076603155  0.6454080712825531  0.705252654514105  1.0000
  Cl  Cl4       1.0  0.1229320516989531  0.7051646885721607  0.05979254497216153  1.0000
  Cl  Cl5       1.0  0.06329414051231899  0.9403503731659626  0.645512867104685  1.0000
  Cl  Cl6       1.0  0.4175545272205525  0.3545961338540025  0.29475785783035496  1.0000
  O   O1        1.0  0.07367205737013899  0.4237408813707688  0.1596799478963717  1.0000
  O   O2        1.0  0.9138477789034809  0.8401139655297382  0.2641365232352443  1.0000
  O   O3        1.0  0.6499050067869162  0.736068992677687  0.5761470969688389  1.0000
  O   O4        1.0  0.9263749309846931  0.5762085571485257  0.8402973285378509  1.0000
  O   O5        1.0  0.0861914652478504  0.1598442352968021  0.735846008197939  1.0000
  O   O6        1.0  0.3499009333172793  0.2639089256015694  0.42382399644584723  1.0000
  O   O7        1.0  0.21473796708320236  0.5757765639553866  0.15009871688693013  1.0000
  O   O8        1.0  0.06478751701308036  0.849958127996466  0.4257756033451587  1.0000
  O   O9        1.0  0.6390545785626783  0.5743642724193946  0.42419397500598427  1.0000
  O   O10       1.0  0.7852715269091846  0.42418381879964057  0.8498247410299273  1.0000
  O   O11       1.0  0.9352426455250723  0.1500723652354168  0.5742815114724991  1.0000
  O   O12       1.0  0.36090093898899056  0.42565598331417204  0.5757473111895166  1.0000
  O   O13       1.0  0.8718722762886202  0.3709477639364139  0.14566171626699295  1.0000
  O   O14       1.0  0.7261315170257417  0.8541814654032578  0.22536950822182436  1.0000
  O   O15       1.0  0.5012174592427314  0.7749536624759086  0.6293550756948961  1.0000
  O   O16       1.0  0.12816214099876794  0.629025040520041  0.8543296041473738  1.0000
  O   O17       1.0  0.27390965770407405  0.1457738168192293  0.7746250565186515  1.0000
  O   O18       1.0  0.498730374780422  0.22508268614042493  0.3707809274894985  1.0000
  O   O19       1.0  0.3313115872527987  0.6269416890520957  0.0767208178508413  1.0000
  O   O20       1.0  0.25470845426437444  0.9233378388667504  0.5503824407113883  1.0000
  O   O21       1.0  0.7040676670086441  0.449580767970346  0.37285068998055243  1.0000
  O   O22       1.0  0.6686845354462252  0.3730281843427433  0.9231955224022459  1.0000
  O   O23       1.0  0.7452942754166256  0.07665322416402631  0.4496412923480407  1.0000
  O   O24       1.0  0.2958078323975357  0.5503818098975798  0.6270800914985558  1.0000
