data_image0
_chemical_formula_structural       Zn2H36C50N2O8F4
_chemical_formula_sum              "Zn2 H36 C50 N2 O8 F4"
_cell_length_a       10.960034142411935
_cell_length_b       14.001637743166148
_cell_length_c       15.298528921474258
_cell_angle_alpha    92.0644019841247
_cell_angle_beta     92.7987966129397
_cell_angle_gamma    89.83843523081693

_space_group_name_H-M_alt    "P 1"
_space_group_IT_number       1

loop_
  _space_group_symop_operation_xyz
  'x, y, z'

loop_
  _atom_site_type_symbol
  _atom_site_label
  _atom_site_symmetry_multiplicity
  _atom_site_fract_x
  _atom_site_fract_y
  _atom_site_fract_z
  _atom_site_occupancy
  Zn  Zn1       1.0  0.49691667136949047  0.39806309418785435  0.5063822731939069  1.0000
  Zn  Zn2       1.0  0.49460953633479215  0.595278198369634  0.49570542908730897  1.0000
  H   H1        1.0  0.29644990572139557  0.7982005418802555  0.7974312095944214  1.0000
  H   H2        1.0  0.7084533802884464  0.1864078191634135  0.20728137233298582  1.0000
  H   H3        1.0  0.3228917259487361  0.9317070302271657  0.4284415388991932  1.0000
  H   H4        1.0  0.6164661244979398  0.06506351896469197  0.6223637125950889  1.0000
  H   H5        1.0  0.6618211274913861  0.7451425822698354  0.5585148459663715  1.0000
  H   H6        1.0  0.40557315510966413  0.2448007315678282  0.3894133101518022  1.0000
  H   H7        1.0  0.6793672288312463  0.9235868489656553  0.5649743191681367  1.0000
  H   H8        1.0  0.39933924402949117  0.06611945393422759  0.3772037674110039  1.0000
  H   H9        1.0  0.24587947729606438  0.6328089817936728  0.8362246606075276  1.0000
  H   H10       1.0  0.7642015450235318  0.34903725298460125  0.16337588605893671  1.0000
  H   H11       1.0  0.12735207808918858  0.7438996101561982  0.5399189362853961  1.0000
  H   H12       1.0  0.8531313680489416  0.2545369277164369  0.4691917223167082  1.0000
  H   H13       1.0  0.2342758381708521  0.8555313192720674  0.6487609403278256  1.0000
  H   H14       1.0  0.7527237465548138  0.13829396623773957  0.3613260969481616  1.0000
  H   H15       1.0  0.8845988657471863  0.6153193370701826  0.590378745987934  1.0000
  H   H16       1.0  0.1088585226206291  0.37853186464382554  0.4119615028753074  1.0000
  H   H17       1.0  0.5959484798582864  0.6119362405637857  0.2501157212915146  1.0000
  H   H18       1.0  0.3902522021370912  0.4069181152913187  0.7680339849580664  1.0000
  H   H19       1.0  0.1496667252956954  0.44067262828728093  0.6888967460563862  1.0000
  H   H20       1.0  0.1691381977371051  0.47913711201818626  0.8009219374434482  1.0000
  H   H21       1.0  0.024998663482577402  0.48976758831710737  0.7436296637910618  1.0000
  H   H22       1.0  0.855959996703298  0.5475225468194579  0.3081142428398779  1.0000
  H   H23       1.0  0.9784544734772282  0.4936874265205091  0.2540770780840091  1.0000
  H   H24       1.0  0.8342534102791603  0.5058990653866359  0.1971665232346353  1.0000
  H   H25       1.0  0.41209784777085895  0.28380017852212086  0.01316985701623  1.0000
  H   H26       1.0  0.5430250448747671  0.33096179223984723  0.9670361002360013  1.0000
  H   H27       1.0  0.5576759793809387  0.2699509610192976  0.0663534947990385  1.0000
  H   H28       1.0  0.5061040594055938  0.7088562770038888  0.01740183977940999  1.0000
  H   H29       1.0  0.6519465474594526  0.7282638925494849  0.976394732218495  1.0000
  H   H30       1.0  0.5181120733512046  0.7568053002569428  0.9131452682929224  1.0000
  H   H31       1.0  0.360020533079762  0.321480547601034  0.2569723168081737  1.0000
  H   H32       1.0  0.3711934620744586  0.2688168027553601  0.1501786021554565  1.0000
  H   H33       1.0  0.4956674988821277  0.2621135884095551  0.2293290874890985  1.0000
  H   H34       1.0  0.6756200199329995  0.6642021933245059  0.7266587733492005  1.0000
  H   H35       1.0  0.5544913715785428  0.7398245283631367  0.754659493541162  1.0000
  H   H36       1.0  0.6822770882525474  0.7267572178701727  0.8301753165696938  1.0000
  C   C1        1.0  0.4832592783055958  0.4776412029315934  0.3301235069686897  1.0000
  C   C2        1.0  0.5153200039528585  0.5188403196913497  0.6708305747670238  1.0000
  C   C3        1.0  0.8691571064461314  0.5005954065669228  0.49336653859196394  1.0000
  C   C4        1.0  0.12421845055310138  0.492973405512231  0.5087738827875584  1.0000
  C   C5        1.0  0.9309299925205464  0.43235623137921647  0.4420987884148886  1.0000
  C   C6        1.0  0.062228273866402596  0.5612282630026681  0.560253533693974  1.0000
  C   C7        1.0  0.4907752390976015  0.411463095728962  0.0836101122394837  1.0000
  C   C8        1.0  0.5477997941899347  0.6071307365360212  0.9128811082279356  1.0000
  C   C9        1.0  0.47112941796659397  0.40131676585220777  0.1734350578700372  1.0000
  C   C10       1.0  0.5597310713642187  0.6054172597078844  0.8210498040945567  1.0000
  C   C11       1.0  0.49911802081766876  0.4776967670777095  0.23341322314094984  1.0000
  C   C12       1.0  0.5114699499641802  0.5282693245593606  0.7685856417006108  1.0000
  C   C13       1.0  0.5589156796416929  0.5573611155335527  0.2038413463130624  1.0000
  C   C14       1.0  0.44156563141231686  0.4601793717939414  0.8080319955242103  1.0000
  C   C15       1.0  0.574682232837155  0.5656473786520306  0.11577079261010681  1.0000
  C   C16       1.0  0.4349125651515421  0.46261700102587605  0.897613360387048  1.0000
  C   C17       1.0  0.5216712988680426  0.5028814809345477  0.0497958455627838  1.0000
  C   C18       1.0  0.5054197609074222  0.5242793231570956  0.9557675483135527  1.0000
  C   C19       1.0  0.4018310562273584  0.8951409028261775  0.4574106522689689  1.0000
  C   C20       1.0  0.5691232002969855  0.09999516225318668  0.568088384585579  1.0000
  C   C21       1.0  0.4035678668992306  0.7959091497030855  0.4567684909229684  1.0000
  C   C22       1.0  0.5671651239466867  0.19917543751935798  0.5670124033224582  1.0000
  C   C23       1.0  0.2607572632976627  0.48775326865634827  0.5097098454793569  1.0000
  C   C24       1.0  0.7325968674260397  0.5045989551381138  0.49202775200211596  1.0000
  C   C25       1.0  0.5899174956530402  0.7907061903013215  0.5312215527175255  1.0000
  C   C26       1.0  0.4495626645220695  0.20076299927403332  0.43904103816763046  1.0000
  C   C27       1.0  0.5979555838446586  0.8894900265451042  0.5347848370079902  1.0000
  C   C28       1.0  0.4463915007224485  0.10187270234452228  0.4334368245194043  1.0000
  C   C29       1.0  0.5021737993443267  0.9439101875649384  0.4973534677112141  1.0000
  C   C30       1.0  0.5060867532517364  0.049374827569820895  0.4995825127551116  1.0000
  C   C31       1.0  0.2194773444201275  0.6578239779176511  0.7712168593836497  1.0000
  C   C32       1.0  0.7841466277223359  0.3276810783410652  0.23051608294019843  1.0000
  C   C33       1.0  0.15781034883517003  0.594691226353596  0.7111369038165947  1.0000
  C   C34       1.0  0.8418542543750219  0.39346683629861445  0.29016495386579083  1.0000
  C   C35       1.0  0.1259524632576685  0.6266976009234424  0.6266395875185184  1.0000
  C   C36       1.0  0.8666311064157028  0.3657159539676228  0.37701045110481607  1.0000
  C   C37       1.0  0.15259566431721788  0.720674456871599  0.6056714963498422  1.0000
  C   C38       1.0  0.834018684137746  0.27415601017247576  0.40154098400930854  1.0000
  C   C39       1.0  0.21343286512247772  0.7826927894930904  0.6663752396222336  1.0000
  C   C40       1.0  0.7772767927142396  0.2094811328895503  0.3412666400370128  1.0000
  C   C41       1.0  0.24798430209607147  0.7507510962800623  0.7494485715359716  1.0000
  C   C42       1.0  0.7523029550508652  0.23649883175847458  0.2552179881634089  1.0000
  C   C43       1.0  0.9348344361675627  0.5637924189857272  0.550739641495831  1.0000
  C   C44       1.0  0.058252599068310894  0.43012441688886577  0.45118588917843994  1.0000
  C   C45       1.0  0.12439739098182657  0.4958970630857704  0.7376108745247478  1.0000
  C   C46       1.0  0.8789738189142183  0.49024599220950893  0.26076983637096174  1.0000
  C   C47       1.0  0.49959791878212195  0.3197281468280976  0.0288221387619529  1.0000
  C   C48       1.0  0.5584059119843657  0.7047693259622108  0.9583205432907818  1.0000
  C   C49       1.0  0.4216906564664952  0.3082335392946546  0.2035280724760327  1.0000
  C   C50       1.0  0.6218103137485258  0.6886817584159387  0.7816023698140313  1.0000
  N   N1        1.0  0.49296845667446115  0.7440240405148301  0.4923349523915662  1.0000
  N   N2        1.0  0.5088618225966285  0.24930750338244684  0.5060803851214501  1.0000
  O   O1        1.0  0.4917294361382999  0.39921395492046213  0.3695493388527283  1.0000
  O   O2        1.0  0.5365684393271835  0.5930067115179863  0.6280861338399647  1.0000
  O   O3        1.0  0.4664948042765005  0.559848143510834  0.36636082328175956  1.0000
  O   O4        1.0  0.4932793194827453  0.43571249982151977  0.6370448889866865  1.0000
  O   O5        1.0  0.3090810422743715  0.40548594243887237  0.4987089323296416  1.0000
  O   O6        1.0  0.6817411342765495  0.5850544180851427  0.4789376615267216  1.0000
  O   O7        1.0  0.3176727698701356  0.5666759957195209  0.5191561670233613  1.0000
  O   O8        1.0  0.6792787304675512  0.4267355980223542  0.5067013381492204  1.0000
  F   F1        1.0  0.6539392947259798  0.6362677481032648  0.0958820507098537  1.0000
  F   F2        1.0  0.34673821213590367  0.4054038623893916  0.9290974190247926  1.0000
  F   F3        1.0  0.3094541980420971  0.7476484789221871  0.41753347002458  1.0000
  F   F4        1.0  0.627147811718089  0.24925484956448676  0.6318587649731883  1.0000
