data_image0
_chemical_formula_structural       Zn8H36C54O32
_chemical_formula_sum              "Zn8 H36 C54 O32"
_cell_length_a       16.43007683942689
_cell_length_b       17.227865973060155
_cell_length_c       16.803149726204353
_cell_angle_alpha    124.63101104181555
_cell_angle_beta     114.25910595495768
_cell_angle_gamma    90.35325343202997

_space_group_name_H-M_alt    "P 1"
_space_group_IT_number       1

loop_
  _space_group_symop_operation_xyz
  'x, y, z'

loop_
  _atom_site_type_symbol
  _atom_site_label
  _atom_site_symmetry_multiplicity
  _atom_site_fract_x
  _atom_site_fract_y
  _atom_site_fract_z
  _atom_site_occupancy
  Zn  Zn1       1.0  0.862367454975171  0.9459366732200892  0.8864837949904325  1.0000
  Zn  Zn2       1.0  0.06285153845469447  0.9581766619381041  0.9036986916196453  1.0000
  Zn  Zn3       1.0  0.018974935172821054  0.9003728724054272  0.03515841857827709  1.0000
  Zn  Zn4       1.0  0.0515729874021602  0.1210952110125803  0.11944798235892758  1.0000
  Zn  Zn5       1.0  0.6345645658810994  0.518322629406974  0.03329106156348143  1.0000
  Zn  Zn6       1.0  0.4849795042964685  0.5658209504126289  0.11317272139884685  1.0000
  Zn  Zn7       1.0  0.4463047473646781  0.3458267420144025  0.9067726058157745  1.0000
  Zn  Zn8       1.0  0.43477689143046655  0.5130242052474685  0.876000654314808  1.0000
  H   H1        1.0  0.7212641829126127  0.7430762928024635  0.6087162696527885  1.0000
  H   H2        1.0  0.6938584259955576  0.611948064570143  0.505342079062494  1.0000
  H   H3        1.0  0.813656084248471  0.6914565499428206  0.5928420703987027  1.0000
  H   H4        1.0  0.8017682021789552  0.8079211131936502  0.314517585232238  1.0000
  H   H5        1.0  0.9350487911095227  0.9552408560274372  0.5002648770678206  1.0000
  H   H6        1.0  0.9709579694308629  0.9741307159479291  0.6708074974348576  1.0000
  H   H7        1.0  0.7137025752920251  0.8480181532611792  0.9691207138118186  1.0000
  H   H8        1.0  0.7225466394405797  0.8704219048682517  0.09073724361863347  1.0000
  H   H9        1.0  0.8242134798293034  0.8662292226792516  0.07469818035819005  1.0000
  H   H10       1.0  0.5927041380409008  0.41238389612938425  0.6688059195833205  1.0000
  H   H11       1.0  0.6665216767528717  0.4407172660993695  0.5794850453807782  1.0000
  H   H12       1.0  0.7670821566307139  0.6112425758218408  0.6812127247299244  1.0000
  H   H13       1.0  0.689790029165188  0.2703373603330165  0.8676651906390163  1.0000
  H   H14       1.0  0.6835069446444706  0.14418406332364944  0.7714441060267986  1.0000
  H   H15       1.0  0.6058049384568702  0.16892822541562674  0.8266821628341176  1.0000
  H   H16       1.0  0.6580504613259563  0.3756828801813014  0.19652157684187435  1.0000
  H   H17       1.0  0.7672926686673164  0.33582324496462956  0.31346198021761046  1.0000
  H   H18       1.0  0.8644489395268805  0.23099880454931565  0.24605961852656566  1.0000
  H   H19       1.0  0.2315169198669267  0.6284441578266496  0.9981625265795985  1.0000
  H   H20       1.0  0.11994952242362442  0.584449205896611  0.8780378871735478  1.0000
  H   H21       1.0  0.22056950856975277  0.5588954404147372  0.8620795424277927  1.0000
  H   H22       1.0  0.5214163059320855  0.8639022181500098  0.21921644788675118  1.0000
  H   H23       1.0  0.5025108501212685  0.028737173235732896  0.2767976320736807  1.0000
  H   H24       1.0  0.3459073207614906  0.034808032981260305  0.16931254287233344  1.0000
  H   H25       1.0  0.2555743914629146  0.08815458240116668  0.949308207700085  1.0000
  H   H26       1.0  0.37929360119054684  0.1552552715169924  0.04191030950549644  1.0000
  H   H27       1.0  0.3009848321893429  0.1829932566168466  0.09676218139165371  1.0000
  H   H28       1.0  0.20038548900311076  0.48100117865763553  0.026623399837212937  1.0000
  H   H29       1.0  0.05818165231634256  0.4329835562251817  0.030316433197405995  1.0000
  H   H30       1.0  0.035106029405689305  0.2912119718832145  0.03221608371502068  1.0000
  H   H31       1.0  0.2823469015313193  0.20196359300361882  0.3500080380262602  1.0000
  H   H32       1.0  0.3922388483477519  0.2222182905275432  0.45741832709861535  1.0000
  H   H33       1.0  0.2961416708183862  0.11006940678391429  0.3703220404056253  1.0000
  H   H34       1.0  0.1761827921134795  0.20958753236179456  0.6808291073595852  1.0000
  H   H35       1.0  0.030548679010912797  0.06947739940262919  0.5056794345617348  1.0000
  H   H36       1.0  0.0081626887008213  0.007431381387270601  0.3207500174250201  1.0000
  C   C1        1.0  0.7396536576387759  0.6858623753173917  0.548743357324831  1.0000
  C   C2        1.0  0.7784166105639018  0.764945754270464  0.48042613954409324  1.0000
  C   C3        1.0  0.760519656800973  0.752778868597268  0.3830402345213811  1.0000
  C   C4        1.0  0.8172630065845256  0.820998421134391  0.39150426301741703  1.0000
  C   C5        1.0  0.8917651882016459  0.9020435351058469  0.49436466165547455  1.0000
  C   C6        1.0  0.9114316713660884  0.9126808033611622  0.5893535408262592  1.0000
  C   C7        1.0  0.855612844380417  0.8462141764781137  0.5843571664690116  1.0000
  C   C8        1.0  0.8874854566102641  0.8736123171035005  0.697017169879558  1.0000
  C   C9        1.0  0.6838404268730756  0.6677436022446699  0.2678159345977776  1.0000
  C   C10       1.0  0.7471450617380526  0.8349900767012315  0.030351541574717103  1.0000
  C   C11       1.0  0.7104366219107021  0.6616327616658212  0.8756834074209434  1.0000
  C   C12       1.0  0.6531087117191774  0.5650340221820828  0.8172530317822081  1.0000
  C   C13       1.0  0.6373994679475672  0.4862841593470364  0.7117541166145003  1.0000
  C   C14       1.0  0.6780621429058159  0.5022144135212514  0.6617322199944696  1.0000
  C   C15       1.0  0.7339616994366408  0.5975031131007356  0.7184069127401285  1.0000
  C   C16       1.0  0.7517845341500831  0.6776691102570354  0.8255889670307681  1.0000
  C   C17       1.0  0.8214886246386826  0.7734961116524134  0.8815465259176136  1.0000
  C   C18       1.0  0.6093579308166281  0.5476900531411459  0.8708806073701821  1.0000
  C   C19       1.0  0.6769234929277345  0.19606612105712168  0.8452344105549088  1.0000
  C   C20       1.0  0.7448870347912121  0.2335088447511708  0.026749295804634643  1.0000
  C   C21       1.0  0.6924727842896773  0.2948192023215768  0.06621703632293212  1.0000
  C   C22       1.0  0.6998152541540108  0.3288100271090856  0.16797984312903932  1.0000
  C   C23       1.0  0.7609793850681116  0.3068989236624233  0.23355504509999053  1.0000
  C   C24       1.0  0.8147045653173208  0.24831349494010618  0.19599820609406032  1.0000
  C   C25       1.0  0.8049682941269507  0.20943555919895124  0.09246454620619453  1.0000
  C   C26       1.0  0.8604022396855482  0.14211804047516813  0.054239139670975926  1.0000
  C   C27       1.0  0.6324842317968091  0.3354512268309336  0.013066690272197026  1.0000
  C   C28       1.0  0.19649181711362476  0.6132622810014895  0.9168591702927316  1.0000
  C   C29       1.0  0.2916689578520391  0.7828498067836096  0.021594829914903604  1.0000
  C   C30       1.0  0.3804805057852647  0.779394511724448  0.07975849910396006  1.0000
  C   C31       1.0  0.4542588640908747  0.8687506464721791  0.17373647277270968  1.0000
  C   C32       1.0  0.4435693071234539  0.960478882041244  0.205716606169979  1.0000
  C   C33       1.0  0.3564985888156116  0.963829240784648  0.1456809191398635  1.0000
  C   C34       1.0  0.2803169953979535  0.8763744751675305  0.05703318613462488  1.0000
  C   C35       1.0  0.18497922426019633  0.8842500831560399  0.006164340355454049  1.0000
  C   C36       1.0  0.40526115840698645  0.6858156141615195  0.04439395347490905  1.0000
  C   C37       1.0  0.3085019130394712  0.1604672467146955  0.02496616249026567  1.0000
  C   C38       1.0  0.2336120416720533  0.2782420645002261  0.011941423140967754  1.0000
  C   C39       1.0  0.24808199313250873  0.3614956203720681  0.015301254205631663  1.0000
  C   C40       1.0  0.1858962304286891  0.4166568466009081  0.02265413570258088  1.0000
  C   C41       1.0  0.10746723245649291  0.3907281516385197  0.02598824735225946  1.0000
  C   C42       1.0  0.09438323238604342  0.3112316420608466  0.026363261614136487  1.0000
  C   C43       1.0  0.15572275253330758  0.2540142310566509  0.018643000036938393  1.0000
  C   C44       1.0  0.1286827003177606  0.16927172469092264  0.016143683617102056  1.0000
  C   C45       1.0  0.3317978844117064  0.39383785144951133  0.01394965121635039  1.0000
  C   C46       1.0  0.31532757333559397  0.19028340883799194  0.412243885103365  1.0000
  C   C47       1.0  0.2159038124418231  0.1940359582169222  0.4883424397489975  1.0000
  C   C48       1.0  0.2286534742393656  0.22731112795614192  0.592408748316096  1.0000
  C   C49       1.0  0.1627263239358356  0.18319155650402763  0.598800518069794  1.0000
  C   C50       1.0  0.0822799133511083  0.10425502270703652  0.5011214479910251  1.0000
  C   C51       1.0  0.06965547329954798  0.06981505858623649  0.39818870774199405  1.0000
  C   C52       1.0  0.1341280893842907  0.11452957139824349  0.3893501042331877  1.0000
  C   C53       1.0  0.10497404263494302  0.0769882113158005  0.2737771429132465  1.0000
  C   C54       1.0  0.3171145615547744  0.3066885899582488  0.6993068630602224  1.0000
  O   O1        1.0  0.9967975738984619  0.9809895769367216  0.9857510293855893  1.0000
  O   O2        1.0  0.722069483050518  0.6921733787541199  0.4621135143474929  1.0000
  O   O3        1.0  0.9683291235151827  0.8671728925524248  0.7435498287299892  1.0000
  O   O4        1.0  0.83594838415803  0.9077329707686772  0.7406700275847768  1.0000
  O   O5        1.0  0.6056439895456123  0.6332825325455715  0.2532503336986735  1.0000
  O   O6        1.0  0.7031849807069647  0.6377845521555727  0.19029364232548568  1.0000
  O   O7        1.0  0.71856451060286  0.731133187083884  0.9775352221635955  1.0000
  O   O8        1.0  0.9030283919401327  0.7963178050056927  0.9594315019259199  1.0000
  O   O9        1.0  0.7951515127304559  0.8205223607808135  0.8434444531861799  1.0000
  O   O10       1.0  0.5236340765986043  0.5441168418450034  0.839342957090082  1.0000
  O   O11       1.0  0.662397677155816  0.536112312127372  0.9413260862406997  1.0000
  O   O12       1.0  0.7471371738229139  0.19651490348301337  0.9317373465658177  1.0000
  O   O13       1.0  0.9487410879376837  0.17754629724986876  0.12334848587494193  1.0000
  O   O14       1.0  0.815167296844187  0.05512004986778859  0.9598866727723417  1.0000
  O   O15       1.0  0.5434462527808107  0.29733184282751074  0.9634520150187882  1.0000
  O   O16       1.0  0.6756370124068242  0.40780841000518125  0.027497011845810024  1.0000
  O   O17       1.0  0.21351710118633346  0.7032657926155322  0.9310159947704192  1.0000
  O   O18       1.0  0.121347659584103  0.8499210369081139  0.01294626476927615  1.0000
  O   O19       1.0  0.17665912418446084  0.9289379565225461  0.9644764642203824  1.0000
  O   O20       1.0  0.38815569817660384  0.6261799490250581  0.9435630719316491  1.0000
  O   O21       1.0  0.4452891701414217  0.676667090262207  0.12016595913614486  1.0000
  O   O22       1.0  0.301988041439337  0.23450533426403555  0.009908741241829869  1.0000
  O   O23       1.0  0.12926763884989606  0.1928602279061593  0.103523172377237  1.0000
  O   O24       1.0  0.1023929294434751  0.08111285889766859  0.9258243639816897  1.0000
  O   O25       1.0  0.3444577004131233  0.32921466836676677  0.9340205243384929  1.0000
  O   O26       1.0  0.38216570775594505  0.4853945243035867  0.0927738078932521  1.0000
  O   O27       1.0  0.2883124879682342  0.24171522522155434  0.4958036520908706  1.0000
  O   O28       1.0  0.062227604329635325  0.983548375121849  0.19588736299428414  1.0000
  O   O29       1.0  0.1199552423452985  0.14038216376602716  0.25992827987597167  1.0000
  O   O30       1.0  0.32497971828338734  0.3964999201353763  0.7377455272369174  1.0000
  O   O31       1.0  0.37554907986884695  0.2765204776813306  0.7447421922007109  1.0000
  O   O32       1.0  0.4996836558162556  0.48638226582421856  0.9811036035175961  1.0000
