data_image0
_chemical_formula_structural       Cu2H8C36N4O8F20
_chemical_formula_sum              "Cu2 H8 C36 N4 O8 F20"
_cell_length_a       4.773666183638415
_cell_length_b       12.858793337294262
_cell_length_c       15.392353200793965
_cell_angle_alpha    90.81600737763127
_cell_angle_beta     90.84225016414607
_cell_angle_gamma    87.58980863201815

_space_group_name_H-M_alt    "P 1"
_space_group_IT_number       1

loop_
  _space_group_symop_operation_xyz
  'x, y, z'

loop_
  _atom_site_type_symbol
  _atom_site_label
  _atom_site_symmetry_multiplicity
  _atom_site_fract_x
  _atom_site_fract_y
  _atom_site_fract_z
  _atom_site_occupancy
  Cu  Cu1       1.0  0.7639135399311953  0.2495752696892311  0.480421100993162  1.0000
  Cu  Cu2       1.0  0.23609070140585683  0.7504258105606639  0.519579864579427  1.0000
  H   H1        1.0  0.21581365929444724  0.1398520367878434  0.5820465164606006  1.0000
  H   H2        1.0  0.7841844258556561  0.8601482523095004  0.4179550869893873  1.0000
  H   H3        1.0  0.6321543311290937  0.049053591111437804  0.395408720112755  1.0000
  H   H4        1.0  0.3678374716083043  0.9509466785796834  0.6045928747227123  1.0000
  H   H5        1.0  0.877896940066975  0.45637047722621554  0.40000374825601875  1.0000
  H   H6        1.0  0.1221157006188065  0.5436290123947246  0.5999913741057269  1.0000
  H   H7        1.0  0.303097762360089  0.35914376757022387  0.5802903477656045  1.0000
  H   H8        1.0  0.6969108381143201  0.6408541324336454  0.4197028128911883  1.0000
  C   C1        1.0  0.2073190981785302  0.25262407820789434  0.3566029309300447  1.0000
  C   C2        1.0  0.7926864571430414  0.7473832554927001  0.6434000132594235  1.0000
  C   C3        1.0  0.7556734193186256  0.2533446068561177  0.6614099267416051  1.0000
  C   C4        1.0  0.2442997677546117  0.7466540544862926  0.33859228544498177  1.0000
  C   C5        1.0  0.32105308790201537  0.2786533494805213  0.2688909354522053  1.0000
  C   C6        1.0  0.6789446185707887  0.721349254855845  0.7311087285220311  1.0000
  C   C7        1.0  0.5170830486488851  0.21125935614826127  0.2274160715809117  1.0000
  C   C8        1.0  0.4829387757477335  0.7887511229249855  0.7725849594020958  1.0000
  C   C9        1.0  0.6400430185835404  0.23582532263348815  0.14935214861647952  1.0000
  C   C10       1.0  0.35996875555763796  0.7641828221318153  0.8506521070630556  1.0000
  C   C11       1.0  0.5662746982293924  0.33007978431592033  0.1096405768824482  1.0000
  C   C12       1.0  0.43371575585877037  0.669930611001007  0.890361710606264  1.0000
  C   C13       1.0  0.36822719574840324  0.39838523202695353  0.1479200513444496  1.0000
  C   C14       1.0  0.6317476242353307  0.601614912903024  0.8520743728382598  1.0000
  C   C15       1.0  0.24998275498077044  0.37229706879625024  0.2266398769984193  1.0000
  C   C16       1.0  0.749985613648924  0.6277046267697346  0.7733558447425537  1.0000
  C   C17       1.0  0.6308936305673354  0.22937772519472335  0.7482915328702546  1.0000
  C   C18       1.0  0.36909878338179414  0.7706178675566663  0.2517093923926339  1.0000
  C   C19       1.0  0.6736183304156498  0.13187628074302896  0.7855945822655102  1.0000
  C   C20       1.0  0.3263847857953124  0.8681177942219949  0.2144070005495848  1.0000
  C   C21       1.0  0.5528546546856389  0.1077253341915139  0.8642981087642738  1.0000
  C   C22       1.0  0.44713995874927526  0.8922694866448926  0.1357028160728788  1.0000
  C   C23       1.0  0.38117412434659304  0.18310739371302281  0.9058796677805816  1.0000
  C   C24       1.0  0.6188313593310323  0.8168851508654389  0.09412386067901929  1.0000
  C   C25       1.0  0.3349699409929912  0.2814829494132455  0.8696777027090832  1.0000
  C   C26       1.0  0.6650500953389694  0.7185112304007578  0.1303291013913181  1.0000
  C   C27       1.0  0.4620107712721476  0.3036530464976651  0.7916158776809823  1.0000
  C   C28       1.0  0.5379880721930094  0.6963418005509827  0.2083863524774969  1.0000
  C   C29       1.0  0.11750993597328828  0.07728219408296161  0.5460143428309435  1.0000
  C   C30       1.0  0.8824860977547999  0.9227172902497646  0.4539853050828384  1.0000
  C   C31       1.0  0.7968660329512501  0.026267924011961  0.4417788561627489  1.0000
  C   C32       1.0  0.2031343987879665  0.9737308280614417  0.5582240431425803  1.0000
  C   C33       1.0  0.7112756124838029  0.4762146006880742  0.4455355309971551  1.0000
  C   C34       1.0  0.2887372180208486  0.5237833255280364  0.554458934980964  1.0000
  C   C35       1.0  0.3935780160999798  0.42170098058105776  0.5444794818209003  1.0000
  C   C36       1.0  0.6064364245167297  0.578300045726543  0.4555130508502074  1.0000
  N   N1        1.0  0.9152881165375176  0.10252308309485164  0.4877175693023545  1.0000
  N   N2        1.0  0.08471210546571223  0.8974764141753515  0.5122820843544389  1.0000
  N   N3        1.0  0.606094246624572  0.39823441040297075  0.4902252178600861  1.0000
  N   N4        1.0  0.3939162154529753  0.601765857770346  0.5097705547165461  1.0000
  O   O1        1.0  0.9508856494603037  0.28317616069586654  0.3701169870867176  1.0000
  O   O2        1.0  0.049128303289101886  0.7168312055170675  0.629886618377931  1.0000
  O   O3        1.0  0.6063666143500724  0.22024110869632815  0.596596516980199  1.0000
  O   O4        1.0  0.39363633291956995  0.7797545363109111  0.40340637200768725  1.0000
  O   O5        1.0  0.3638096546615657  0.20477449463003697  0.4100189679280248  1.0000
  O   O6        1.0  0.6362061616118808  0.79523361661105  0.5899807449704326  1.0000
  O   O7        1.0  0.9762957473435561  0.3003035842368648  0.657102470989919  1.0000
  O   O8        1.0  0.02369299320523056  0.6997028662310076  0.34289524861701176  1.0000
  F   F1        1.0  0.5923502011632136  0.11765427532888854  0.2612804167488605  1.0000
  F   F2        1.0  0.4076802095196684  0.8823554844225187  0.7387238713687125  1.0000
  F   F3        1.0  0.8284800280890395  0.16925681169261966  0.1118105969563459  1.0000
  F   F4        1.0  0.17155626449125794  0.8307560876372835  0.8881943627538504  1.0000
  F   F5        1.0  0.6854710148938918  0.3545437326672032  0.034567005481648  1.0000
  F   F6        1.0  0.31454122335568957  0.6454605002673193  0.9654352843442311  1.0000
  F   F7        1.0  0.06848047290833387  0.4436554406060652  0.2625584462989892  1.0000
  F   F8        1.0  0.9314778682643661  0.5563423041480675  0.7374346454416383  1.0000
  F   F9        1.0  0.8372655829869586  0.05787570418507222  0.7446189709799  1.0000
  F   F10       1.0  0.1627266838588425  0.9421206536752681  0.2553806580019113  1.0000
  F   F11       1.0  0.6006580498541608  0.0137262431188532  0.9002759892019724  1.0000
  F   F12       1.0  0.3993350607377975  0.9862630761010468  0.0997203611589299  1.0000
  F   F13       1.0  0.26199207696656396  0.16150259952417662  0.9819359443684164  1.0000
  F   F14       1.0  0.7380010317045061  0.8384883428370175  0.018066910478509602  1.0000
  F   F15       1.0  0.16997082002872324  0.3534066269968153  0.9107391093876842  1.0000
  F   F16       1.0  0.8300574020742031  0.6465899536676292  0.0892716148253854  1.0000
  F   F17       1.0  0.4178470331294051  0.3991208382651836  0.7571607049874274  1.0000
  F   F18       1.0  0.5821312058822413  0.6008716155822926  0.2428421363534241  1.0000
  F   F19       1.0  0.2939038059357628  0.48843212023755483  0.10895386363525722  1.0000
  F   F20       1.0  0.7060401088083665  0.5115632175346861  0.8910365989564825  1.0000
