data_image0
_chemical_formula_structural       Cu6H60C36N18
_chemical_formula_sum              "Cu6 H60 C36 N18"
_cell_length_a       11.883664792456159
_cell_length_b       12.266548973193219
_cell_length_c       13.11620706399722
_cell_angle_alpha    108.73881945493414
_cell_angle_beta     108.22974399467091
_cell_angle_gamma    104.24680158295986

_space_group_name_H-M_alt    "P 1"
_space_group_IT_number       1

loop_
  _space_group_symop_operation_xyz
  'x, y, z'

loop_
  _atom_site_type_symbol
  _atom_site_label
  _atom_site_symmetry_multiplicity
  _atom_site_fract_x
  _atom_site_fract_y
  _atom_site_fract_z
  _atom_site_occupancy
  Cu  Cu1       1.0  0.3823208879053794  0.3948291978666206  0.009305868067961973  1.0000
  Cu  Cu2       1.0  0.6176787906613583  0.6051691806120303  0.9906935828483441  1.0000
  Cu  Cu3       1.0  0.022820067028533095  0.89629254543658  0.8914105907101088  1.0000
  Cu  Cu4       1.0  0.9771807251940176  0.103708630158124  0.10858924995516639  1.0000
  Cu  Cu5       1.0  0.12541438305424885  0.48424440588283346  0.5937367813990093  1.0000
  Cu  Cu6       1.0  0.8745836098476047  0.5157586423513862  0.4062635861140508  1.0000
  H   H1        1.0  0.2875437640854202  0.44122566707314076  0.23406765127742088  1.0000
  H   H2        1.0  0.7124574570877725  0.5587699150604591  0.7659344518839503  1.0000
  H   H3        1.0  0.1228735978700826  0.3718319874925413  0.1987948641077395  1.0000
  H   H4        1.0  0.8771276233295423  0.6281635914915996  0.801205713286393  1.0000
  H   H5        1.0  0.1711698569906517  0.5675274274828865  0.16732436436572584  1.0000
  H   H6        1.0  0.8288355052884029  0.43247188858412505  0.8326830805167731  1.0000
  H   H7        1.0  0.06654738163430807  0.4356092337882487  0.02896985647314663  1.0000
  H   H8        1.0  0.9334571804534731  0.5643947459924091  0.9710364674696379  1.0000
  H   H9        1.0  0.23251947677039198  0.5031894898176574  0.0651387182722303  1.0000
  H   H10       1.0  0.7674855995239511  0.4968135573230653  0.9348682354576994  1.0000
  H   H11       1.0  0.26899274291331216  0.1288569124265493  0.8057871310004998  1.0000
  H   H12       1.0  0.7310081923280265  0.8711423944818434  0.19421142947381753  1.0000
  H   H13       1.0  0.21226215177782123  0.9853391726765036  0.814226808723717  1.0000
  H   H14       1.0  0.7877375268021255  0.0146592042274207  0.18577187930896608  1.0000
  H   H15       1.0  0.45203459455246536  0.0630561900311761  0.876452120457472  1.0000
  H   H16       1.0  0.5479654552284714  0.9369431213444059  0.12354771466969809  1.0000
  H   H17       1.0  0.4191231520007221  0.062417312183121985  0.9998293909715414  1.0000
  H   H18       1.0  0.580875641145255  0.9375810660385329  0.00016904594675551607  1.0000
  H   H19       1.0  0.4729297680836737  0.2048825391368752  0.9885935226325344  1.0000
  H   H20       1.0  0.5270720525652095  0.7951167696032401  0.011406814723422276  1.0000
  H   H21       1.0  0.7803261445664091  0.7025033784802089  0.4987873712813952  1.0000
  H   H22       1.0  0.21967450467700195  0.297499661076614  0.501211460923976  1.0000
  H   H23       1.0  0.7651097993347379  0.7397779251968828  0.6347637659102291  1.0000
  H   H24       1.0  0.234892620803052  0.26022510857502107  0.3652340427566827  1.0000
  H   H25       1.0  0.7994374551419127  0.925197824730077  0.588386807434148  1.0000
  H   H26       1.0  0.2005572820616237  0.0748014914024395  0.41160999523942365  1.0000
  H   H27       1.0  0.9306583702724893  0.9573864361445601  0.7210216871224091  1.0000
  H   H28       1.0  0.0693373375945043  0.042617542640868984  0.2789752597238575  1.0000
  H   H29       1.0  0.947152949011311  0.9217490640344079  0.5854165092930331  1.0000
  H   H30       1.0  0.052841873408496595  0.07825491764347699  0.4145809493224633  1.0000
  H   H31       1.0  0.2838573545298999  0.6976472996800993  0.8386112210817559  1.0000
  H   H32       1.0  0.7161396677349146  0.30235108275175543  0.16138747649137736  1.0000
  H   H33       1.0  0.2760442029585945  0.8427045583366917  0.9116959615310095  1.0000
  H   H34       1.0  0.7239548183695845  0.15729662304293157  0.08830490267273217  1.0000
  H   H35       1.0  0.27378365388495507  0.7202961243482306  0.03151660941291121  1.0000
  H   H36       1.0  0.7262133683930827  0.2797022565088909  0.968481325276592  1.0000
  H   H37       1.0  0.12626267389239837  0.7416214871342887  0.9841860475766565  1.0000
  H   H38       1.0  0.8737339771450081  0.258375963975368  0.01581302866922858  1.0000
  H   H39       1.0  0.13390472804274367  0.5955156796859596  0.9109299848216423  1.0000
  H   H40       1.0  0.8660935508702466  0.4044836343250822  0.08906934807674126  1.0000
  H   H41       1.0  0.5516161218164014  0.6776774313190259  0.8008090267265614  1.0000
  H   H42       1.0  0.448382014077808  0.3223237513783345  0.1991915863627797  1.0000
  H   H43       1.0  0.4080081880252635  0.6954069736408215  0.730794303178925  1.0000
  H   H44       1.0  0.5919908333161317  0.3045942061640758  0.2692057981411865  1.0000
  H   H45       1.0  0.4997822137834119  0.625683948680674  0.5856964025058815  1.0000
  H   H46       1.0  0.5002173217777539  0.37431629690956925  0.41430356571776633  1.0000
  H   H47       1.0  0.3479461853969569  0.509797259591565  0.5414036639323498  1.0000
  H   H48       1.0  0.6520524647170233  0.49020298889113434  0.45859681606052766  1.0000
  H   H49       1.0  0.49143460162235897  0.48986396690923323  0.6097957677216285  1.0000
  H   H50       1.0  0.5085644196793879  0.5101372176198566  0.39020662224935176  1.0000
  H   H51       1.0  0.04364585258945656  0.3775169315614236  0.7632261825804887  1.0000
  H   H52       1.0  0.9563533117575033  0.6224823811318885  0.23677340143228784  1.0000
  H   H53       1.0  0.12099763602337528  0.3006802154004333  0.8374890537708948  1.0000
  H   H54       1.0  0.8790006428764058  0.6993191001853489  0.16251104201111838  1.0000
  H   H55       1.0  0.9523063367093272  0.14917265433460605  0.6311098222463727  1.0000
  H   H56       1.0  0.04769334188383574  0.8508257209945854  0.3688881029026876  1.0000
  H   H57       1.0  0.1066610947184117  0.1548492402249551  0.6420970461877715  1.0000
  H   H58       1.0  0.8933402117107008  0.8451510027298211  0.3579034242646557  1.0000
  H   H59       1.0  0.030958017716535797  0.23468306768211986  0.5693879264402  1.0000
  H   H60       1.0  0.9690420320644011  0.7653162436934551  0.4306119086869702  1.0000
  C   C1        1.0  0.1818032691014011  0.272814141698646  0.07548805521491896  1.0000
  C   C2        1.0  0.8181967807059678  0.7271851665274767  0.9245102541450052  1.0000
  C   C3        1.0  0.19041045912308627  0.39320086945567573  0.16021595707042752  1.0000
  C   C4        1.0  0.8095923899256976  0.6067965755793097  0.8397864027434494  1.0000
  C   C5        1.0  0.1634557676808015  0.4798902317441858  0.10205751115015725  1.0000
  C   C6        1.0  0.8365507082937143  0.5201118767146866  0.8979480348304493  1.0000
  C   C7        1.0  0.21606021999117792  0.1398922987771556  0.947603750501642  1.0000
  C   C8        1.0  0.7839416006709143  0.8601070083882264  0.05239582397069156  1.0000
  C   C9        1.0  0.27272583008506496  0.0851652624908112  0.8675890010060242  1.0000
  C   C10       1.0  0.7272747339420745  0.9148331115206503  0.13240917525742918  1.0000
  C   C11       1.0  0.41240656877977244  0.10480805930172465  0.937058930764273  1.0000
  C   C12       1.0  0.587593481001164  0.8951912520738571  0.06294090436289679  1.0000
  C   C13       1.0  0.939601675343127  0.7203783918006721  0.6408252758612251  1.0000
  C   C14       1.0  0.060400373527599464  0.2796237153732193  0.35917520012930737  1.0000
  C   C15       1.0  0.8327602793354388  0.760142257206489  0.5954701776236321  1.0000
  C   C16       1.0  0.16723962746635118  0.2398589181312119  0.4045286490436268  1.0000
  C   C17       1.0  0.8801473179642587  0.8992246425109018  0.6242180576253633  1.0000
  C   C18       1.0  0.11984787566974832  0.10078027206391481  0.3757797852009972  1.0000
  C   C19       1.0  0.10805420346193269  0.7121448374605706  0.7572375626754777  1.0000
  C   C20       1.0  0.89194510387739  0.2878526096958823  0.24276226691358732  1.0000
  C   C21       1.0  0.22156105939698992  0.7410339050342643  0.8662162721136539  1.0000
  C   C22       1.0  0.7784388473915911  0.2589672718781699  0.13378331743723493  1.0000
  C   C23       1.0  0.18663497190781425  0.6970306421532013  0.9533408763819365  1.0000
  C   C24       1.0  0.8133641924523617  0.3029686689653844  0.046657944747217225  1.0000
  C   C25       1.0  0.3842915418926012  0.5407870136151374  0.7730061171217741  1.0000
  C   C26       1.0  0.6157071082345952  0.4592132332928358  0.22699359998747343  1.0000
  C   C27       1.0  0.4518733208983008  0.6262394248983013  0.7330078948274092  1.0000
  C   C28       1.0  0.5481249580146895  0.3737598891127407  0.26699143807097414  1.0000
  C   C29       1.0  0.4474376455753841  0.5589198795463516  0.6103109671821159  1.0000
  C   C30       1.0  0.5525622611867718  0.44108130051554173  0.38969014813601177  1.0000
  C   C31       1.0  0.23585120908067128  0.4121693745516949  0.786346294886485  1.0000
  C   C32       1.0  0.7641484694860665  0.5878290039269558  0.213653156029821  1.0000
  C   C33       1.0  0.10804202237912365  0.3263368898229332  0.7629376197361211  1.0000
  C   C34       1.0  0.8919571419678363  0.6736624228703789  0.23706196427665582  1.0000
  C   C35       1.0  0.04587697895976818  0.2093710180729857  0.6442950644407687  1.0000
  C   C36       1.0  0.9541230708343846  0.7906282917278702  0.35570400780277833  1.0000
  N   N1        1.0  0.1028288681893912  0.1592753886724907  0.050559193778937625  1.0000
  N   N2        1.0  0.8971716958245324  0.840722986913704  0.9494397453681387  1.0000
  N   N3        1.0  0.1250981555028972  0.073778620399267  0.9683089000943494  1.0000
  N   N4        1.0  0.8749027797384415  0.9262206865091184  0.03168966037996769  1.0000
  N   N5        1.0  0.2538054816954372  0.26450665769103676  0.012572339922194045  1.0000
  N   N6        1.0  0.7461963389666623  0.7354926494743451  0.9874272345501396  1.0000
  N   N7        1.0  0.963673755001544  0.629120945514316  0.5732555759057193  1.0000
  N   N8        1.0  0.036326523001236004  0.3708811642950423  0.4267443978560337  1.0000
  N   N9        1.0  0.07184917208872572  0.6233971549932633  0.6482567777403503  1.0000
  N   N10       1.0  0.9281496210572583  0.37660122322839834  0.3517416591779466  1.0000
  N   N11       1.0  0.02742319520906728  0.7741048504523249  0.7564293972950153  1.0000
  N   N12       1.0  0.972578482447453  0.2258963238246423  0.243570694484653  1.0000
  N   N13       1.0  0.44208258714227366  0.5226894964576658  0.868234199063359  1.0000
  N   N14       1.0  0.5579169484056835  0.4773107507073038  0.131766532043912  1.0000
  N   N15       1.0  0.34654947573059036  0.44000184471390463  0.8768543100278164  1.0000
  N   N16       1.0  0.6534502028493563  0.55999653219002  0.12314437800486656  1.0000
  N   N17       1.0  0.25543412651008873  0.473355071043862  0.7194311297749962  1.0000
  N   N18       1.0  0.7445662944718308  0.5266451748033701  0.2805698524466608  1.0000
