data_image0
_chemical_formula_structural       Zn4H26C48S3O22
_chemical_formula_sum              "Zn4 H26 C48 S3 O22"
_cell_length_a       15.434490597184686
_cell_length_b       15.592295032305055
_cell_length_c       19.555007449560836
_cell_angle_alpha    83.7471744821313
_cell_angle_beta     76.41830521092216
_cell_angle_gamma    66.35842829388884

_space_group_name_H-M_alt    "P 1"
_space_group_IT_number       1

loop_
  _space_group_symop_operation_xyz
  'x, y, z'

loop_
  _atom_site_type_symbol
  _atom_site_label
  _atom_site_symmetry_multiplicity
  _atom_site_fract_x
  _atom_site_fract_y
  _atom_site_fract_z
  _atom_site_occupancy
  Zn  Zn1       1.0  0.40093861742253967  0.5960250353373697  0.4467418106046352  1.0000
  Zn  Zn2       1.0  0.4361393047413531  0.44154284664032417  0.5731330762118886  1.0000
  Zn  Zn3       1.0  0.5534548948212149  0.5700325760047775  0.5412495051232183  1.0000
  Zn  Zn4       1.0  0.603035736989597  0.4082988422450669  0.4369417565883963  1.0000
  H   H1        1.0  0.5333101728880936  0.6223687749090985  0.8759435782126843  1.0000
  H   H2        1.0  0.14204301581001746  0.5551835588182712  0.6705106613860606  1.0000
  H   H3        1.0  0.5118231742982078  0.35744439343005735  0.7727776227660144  1.0000
  H   H4        1.0  0.8952822012109608  0.44775076819551163  0.6759891774298764  1.0000
  H   H5        1.0  0.9931168104477948  0.5199652511045656  0.7064202545764073  1.0000
  H   H6        1.0  0.14725204271849895  0.5315517820176581  0.45351295819483534  1.0000
  H   H7        1.0  0.8559054801786702  0.4530587516651607  0.33653304763299013  1.0000
  H   H8        1.0  0.08651513767134131  0.5067436234316958  0.38428491000670556  1.0000
  H   H9        1.0  0.012076167635420593  0.4753632522040546  0.29694450650375603  1.0000
  H   H10       1.0  0.5147306294039283  0.6322827797624482  0.7518329448794602  1.0000
  H   H11       1.0  0.5650350618867113  0.5426951078221123  0.9771248903505522  1.0000
  H   H12       1.0  0.7205322582472818  0.12504594048896678  0.520749543397869  1.0000
  H   H13       1.0  0.4896137681862955  0.330021133621095  0.13400037600349177  1.0000
  H   H14       1.0  0.49961887707460323  0.34202218556507796  0.25767890677121125  1.0000
  H   H15       1.0  0.4706549711991883  0.39941345532921696  0.0219429450212729  1.0000
  H   H16       1.0  0.5227819003034144  0.5927359350223823  0.08365875145245373  1.0000
  H   H17       1.0  0.5405315851746194  0.7399794276611261  0.13212778256212226  1.0000
  H   H18       1.0  0.7030700522057958  0.4275868841721078  0.697382212655384  1.0000
  H   H19       1.0  0.5142674805451719  0.2144373932634025  0.8496111503063659  1.0000
  H   H20       1.0  0.7290580290285077  0.8215169281223637  0.4951017652445983  1.0000
  H   H21       1.0  0.7669394001587123  0.9523812020228918  0.5144892999562741  1.0000
  H   H22       1.0  0.4299877997908086  0.17467295683945844  0.5103063185404224  1.0000
  H   H23       1.0  0.2830807276886915  0.8865753392219204  0.4545362595739916  1.0000
  H   H24       1.0  0.3433800027384494  0.12436583990018592  0.48452481918417317  1.0000
  H   H25       1.0  0.23241357641735053  0.06008837449312671  0.4601683643606691  1.0000
  H   H26       1.0  0.6150743229031126  0.7571480467648756  0.4784014288637123  1.0000
  C   C1        1.0  0.5470698643929665  0.26073180031463045  0.5167708813580063  1.0000
  C   C2        1.0  0.5023979113699966  0.4486725457306875  0.027578582923553113  1.0000
  C   C3        1.0  0.5351889805720302  0.49218467100369173  0.9700406548069863  1.0000
  C   C4        1.0  0.4428406195810554  0.752778919699665  0.4784062711664062  1.0000
  C   C5        1.0  0.5074849030997798  0.49684913371826406  0.7561098634810716  1.0000
  C   C6        1.0  0.6934930969471653  0.0014863264467734922  0.5124299715991893  1.0000
  C   C7        1.0  0.5720257505964383  0.15825552676329832  0.5155822540760795  1.0000
  C   C8        1.0  0.33254024095312923  0.9160090687009371  0.4635780905934722  1.0000
  C   C9        1.0  0.30442187857461533  0.013000006605785994  0.46710593817048357  1.0000
  C   C10       1.0  0.36735404712730724  0.0488532038629472  0.48070198731455344  1.0000
  C   C11       1.0  0.4618184836254928  0.98996600326587  0.4887267904664937  1.0000
  C   C12       1.0  0.5054147668360187  0.4604179699974651  0.09976496050960999  1.0000
  C   C13       1.0  0.4920703755428663  0.8907663377124777  0.483281808679166  1.0000
  C   C14       1.0  0.5290548784484487  0.027863924122868887  0.5009837816602667  1.0000
  C   C15       1.0  0.6259351041419167  0.9656634699375176  0.5034607710031123  1.0000
  C   C16       1.0  0.24779515428284082  0.5524155876507136  0.5401826089099869  1.0000
  C   C17       1.0  0.6541613195100454  0.8679105291973171  0.49465586968614145  1.0000
  C   C18       1.0  0.5906130150122169  0.831888262591974  0.4852180778693833  1.0000
  C   C19       1.0  0.5035164171026238  0.12429755309472061  0.5096701398750836  1.0000
  C   C20       1.0  0.6682790640657432  0.0963681788973432  0.5164567063839127  1.0000
  C   C21       1.0  0.4237162203888048  0.8549639769757252  0.47325967631105925  1.0000
  C   C22       1.0  0.026729825270663827  0.5230022908723768  0.6510252958247662  1.0000
  C   C23       1.0  0.4978963267937575  0.3906631950094663  0.15009834516271062  1.0000
  C   C24       1.0  0.15183073575585138  0.5442442957206524  0.5595165473365994  1.0000
  C   C25       1.0  0.8943261290074673  0.4589318488519467  0.37479056852126996  1.0000
  C   C26       1.0  0.9806707410743201  0.4733876829960407  0.35288690882950385  1.0000
  C   C27       1.0  0.0227993433175868  0.48992209595778047  0.4023122779852315  1.0000
  C   C28       1.0  0.7507514304275277  0.46423646889832065  0.4627437806680701  1.0000
  C   C29       1.0  0.9850751157270708  0.4856177006107742  0.4753250805690783  1.0000
  C   C30       1.0  0.9018509835164608  0.4617538755937005  0.4980319312660484  1.0000
  C   C31       1.0  0.028692398697657495  0.5059478539963678  0.5266257871487737  1.0000
  C   C32       1.0  0.9876162540471471  0.5016800994686861  0.599634961544801  1.0000
  C   C33       1.0  0.9144945296219975  0.4650577153680757  0.6204451123152805  1.0000
  C   C34       1.0  0.5032632766628283  0.39721182172651476  0.21918260022231806  1.0000
  C   C35       1.0  0.8755534537860685  0.44254874573587694  0.5723917321300218  1.0000
  C   C36       1.0  0.11125332075673104  0.5286114485130397  0.5081669149392097  1.0000
  C   C37       1.0  0.10845110528548939  0.5427324579040942  0.6315848040287761  1.0000
  C   C38       1.0  0.8532673414147356  0.45643040972552734  0.4458606691816625  1.0000
  C   C39       1.0  0.4948033685142337  0.5022863408268422  0.6821566034109167  1.0000
  C   C40       1.0  0.5082393913868516  0.4822886680978868  0.3177995394859606  1.0000
  C   C41       1.0  0.5119780885376458  0.4752478347364644  0.24118310998851186  1.0000
  C   C42       1.0  0.5185034994116223  0.5457258954631499  0.19113961426842246  1.0000
  C   C43       1.0  0.5163358500131991  0.5379447740032504  0.12148201154450784  1.0000
  C   C44       1.0  0.5277862756176077  0.40846110809457764  0.8655967451709613  1.0000
  C   C45       1.0  0.514283084827362  0.4157734705568998  0.796897475440957  1.0000
  C   C46       1.0  0.517025212916799  0.5704988215640514  0.7844803981141693  1.0000
  C   C47       1.0  0.5281365198654058  0.5639466887304039  0.8534581604171619  1.0000
  C   C48       1.0  0.5307495235675719  0.48499650382031234  0.8973323845499336  1.0000
  S   S1        1.0  0.530834152659395  0.6459708937684709  0.21764756191371498  1.0000
  S   S2        1.0  0.8138296255880919  0.3663533788490057  0.6085360292826036  1.0000
  S   S3        1.0  0.546672745772732  0.2980362225011817  0.9107428353782082  1.0000
  O   O1        1.0  0.49678276273490257  0.5048878174834853  0.49689295723443644  1.0000
  O   O2        1.0  0.4751511867726067  0.4375995786138489  0.6628774383446581  1.0000
  O   O3        1.0  0.5685361385267599  0.4130347627632318  0.34515669690239287  1.0000
  O   O4        1.0  0.505077035262218  0.5707892435062475  0.6443021799966644  1.0000
  O   O5        1.0  0.44229248165275703  0.5553643603483707  0.3476502882993343  1.0000
  O   O6        1.0  0.43770335725353976  0.7213727575849305  0.23669459781049795  1.0000
  O   O7        1.0  0.5989748257780222  0.6141957223506651  0.2629133837178443  1.0000
  O   O8        1.0  0.585054617414535  0.6773489165640852  0.1432400989907094  1.0000
  O   O9        1.0  0.858400575191027  0.3117151471271242  0.6646666433387621  1.0000
  O   O10       1.0  0.8028710273605245  0.32142322764638454  0.5527768237346179  1.0000
  O   O11       1.0  0.7066406233562221  0.43646540555602087  0.6465600974942944  1.0000
  O   O12       1.0  0.2739615768874943  0.583036110730255  0.47893251151878485  1.0000
  O   O13       1.0  0.6330049493301148  0.2691938342358497  0.937641010133646  1.0000
  O   O14       1.0  0.4568093324180397  0.29985279818999533  0.9555295512206355  1.0000
  O   O15       1.0  0.5714611108618897  0.22834404278130188  0.8470383564179755  1.0000
  O   O16       1.0  0.7262959034833615  0.4224612569543567  0.4229353615096797  1.0000
  O   O17       1.0  0.46160916350366676  0.3135975969844722  0.5477978061769163  1.0000
  O   O18       1.0  0.5055767655168709  0.70164524036894  0.5137901634064119  1.0000
  O   O19       1.0  0.6142291405589901  0.288377141368457  0.48606713503756527  1.0000
  O   O20       1.0  0.3924943100534081  0.7245800878311781  0.4498628950575423  1.0000
  O   O21       1.0  0.2979355789695149  0.5247942195769753  0.5878540147385464  1.0000
  O   O22       1.0  0.6948940455215933  0.5196284562984701  0.5127404626790975  1.0000
