data_image0
_chemical_formula_structural       Zn2H20C32O16
_chemical_formula_sum              "Zn2 H20 C32 O16"
_cell_length_a       6.978797713391654
_cell_length_b       7.823281024601527
_cell_length_c       14.908624554091755
_cell_angle_alpha    90.31685869000641
_cell_angle_beta     84.8174563196349
_cell_angle_gamma    118.4941458988883

_space_group_name_H-M_alt    "P 1"
_space_group_IT_number       1

loop_
  _space_group_symop_operation_xyz
  'x, y, z'

loop_
  _atom_site_type_symbol
  _atom_site_label
  _atom_site_symmetry_multiplicity
  _atom_site_fract_x
  _atom_site_fract_y
  _atom_site_fract_z
  _atom_site_occupancy
  Zn  Zn1       1.0  0.9316784521042863  0.6997837365462231  0.4341226821879189  1.0000
  Zn  Zn2       1.0  0.06834564570413453  0.2997747720881137  0.5657736872557635  1.0000
  H   H1        1.0  0.9074576007245909  0.9831928000795287  0.8679704663087263  1.0000
  H   H2        1.0  0.09264551132061169  0.016667919796979895  0.1317870225507605  1.0000
  H   H3        1.0  0.8254272800713025  0.34929381644201374  0.7600841684283351  1.0000
  H   H4        1.0  0.17492561816571586  0.6504162718223013  0.24002990171743474  1.0000
  H   H5        1.0  0.6495636611782415  0.07594918834323042  0.0668174448305763  1.0000
  H   H6        1.0  0.3506513321810374  0.9242047573880897  0.9333291704322163  1.0000
  H   H7        1.0  0.5742360053154485  0.10411651251612848  0.2319097709542532  1.0000
  H   H8        1.0  0.4261620467941257  0.8963361444421664  0.76823692548934  1.0000
  H   H9        1.0  0.6077876855309156  0.41684918611089455  0.28913714822221687  1.0000
  H   H10       1.0  0.3924642854691955  0.5836060262338806  0.7108704044078777  1.0000
  H   H11       1.0  0.7004696039988971  0.6936291040457049  0.18135766242191656  1.0000
  H   H12       1.0  0.2996934551575805  0.3067026049010904  0.8185248051662484  1.0000
  H   H13       1.0  0.31751979166803324  0.011474584263318405  0.42451975207695364  1.0000
  H   H14       1.0  0.6802121962590207  0.9896894664703595  0.5757280094466919  1.0000
  H   H15       1.0  0.26370403299164746  0.9488673715225957  0.5283628757496855  1.0000
  H   H16       1.0  0.7344406125496549  0.05150036468874221  0.4718466076437764  1.0000
  H   H17       1.0  0.45509517309327663  0.5135889892968493  0.4245155065407572  1.0000
  H   H18       1.0  0.5449344436794519  0.48634829055041  0.5751555206587753  1.0000
  H   H19       1.0  0.6144778678148838  0.7444822977433885  0.3922218262888747  1.0000
  H   H20       1.0  0.3860465182613098  0.25584332105827196  0.607876997006457  1.0000
  C   C1        1.0  0.8904881244748427  0.8460802831851737  0.8428753288153245  1.0000
  C   C2        1.0  0.10960286038862677  0.15370613508117964  0.1569777727225699  1.0000
  C   C3        1.0  0.9396531002892203  0.8267515453087597  0.7516720155614677  1.0000
  C   C4        1.0  0.06037350407739693  0.17283530630759  0.24819635657952685  1.0000
  C   C5        1.0  0.90790366361113  0.644741462038489  0.7213135491378679  1.0000
  C   C6        1.0  0.09235831314790487  0.35486101786666063  0.2786344055896421  1.0000
  C   C7        1.0  0.8432495371247267  0.48886430899154465  0.7820611456899655  1.0000
  C   C8        1.0  0.15699931106759377  0.5108785121207616  0.21796438956840797  1.0000
  C   C9        1.0  0.8053189879079665  0.510621525730201  0.8736896263821591  1.0000
  C   C10       1.0  0.19486913407477155  0.489256925359058  0.1263131777340334  1.0000
  C   C11       1.0  0.7524026583395907  0.3431186469626438  0.9359401983081523  1.0000
  C   C12       1.0  0.2478115735206147  0.656861633475721  0.0641195370220444  1.0000
  C   C13       1.0  0.712945383832981  0.36563143305269824  0.0330779783872757  1.0000
  C   C14       1.0  0.2872782599454667  0.6344798459332354  0.9669693856206151  1.0000
  C   C15       1.0  0.6585581608211085  0.20901464195781472  0.09341262745875409  1.0000
  C   C16       1.0  0.3416876722097868  0.7911802112967903  0.9066893746755582  1.0000
  C   C17       1.0  0.6176782852697755  0.2264424151581892  0.1850668257580637  1.0000
  C   C18       1.0  0.3826410233978734  0.7739056646724974  0.8150213380646747  1.0000
  C   C19       1.0  0.6351233536581873  0.40141723448062544  0.21721063123431605  1.0000
  C   C20       1.0  0.36515097010077124  0.5989769651319108  0.7827975307253678  1.0000
  C   C21       1.0  0.6886055804990292  0.5573321658295923  0.1575895181431051  1.0000
  C   C22       1.0  0.3116257178675781  0.4429714488447941  0.8423651782669667  1.0000
  C   C23       1.0  0.7259990825596673  0.5407582772039347  0.0648059644633818  1.0000
  C   C24       1.0  0.2742622600636794  0.45941745729687256  0.9351646848667484  1.0000
  C   C25       1.0  0.7753749319582965  0.7071584705359442  0.002309082736203999  1.0000
  C   C26       1.0  0.22489651330014473  0.29293650723288056  0.9976098010771749  1.0000
  C   C27       1.0  0.8244465485513431  0.6880429754313795  0.9044349540315366  1.0000
  C   C28       1.0  0.17575611664396718  0.31189450554117565  0.09549975686582707  1.0000
  C   C29       1.0  0.05149980370595128  0.9963791702539877  0.6841884175034847  1.0000
  C   C30       1.0  0.9481488309533077  0.0029738814857296057  0.31555896158535285  1.0000
  C   C31       1.0  0.9433103596464392  0.6147677017752641  0.6238332211419432  1.0000
  C   C32       1.0  0.05700317262305533  0.3846224649237087  0.3761363812238514  1.0000
  O   O1        1.0  0.7704362260179138  0.8538311081799106  0.03059694824052169  1.0000
  O   O2        1.0  0.22991600623259964  0.1463476740816034  0.969274052588915  1.0000
  O   O3        1.0  0.7471725913955608  0.19316312244720985  0.9062625012987765  1.0000
  O   O4        1.0  0.25309813575685075  0.8067762163965143  0.0938753247273425  1.0000
  O   O5        1.0  0.22857295128193297  0.01738353677700391  0.641194633286517  1.0000
  O   O6        1.0  0.7709878820049951  0.9819759528167326  0.3584571568864376  1.0000
  O   O7        1.0  0.9658668684617024  0.10660505554883305  0.6736497496290211  1.0000
  O   O8        1.0  0.033582203425787355  0.8925591733176645  0.3260462495319061  1.0000
  O   O9        1.0  0.8441164903351182  0.6659463053430345  0.5695473754801412  1.0000
  O   O10       1.0  0.15595793677753989  0.3330105165582181  0.4303842518377436  1.0000
  O   O11       1.0  0.06570785487345895  0.5415714891710337  0.6001825971445242  1.0000
  O   O12       1.0  0.9349521711274064  0.4580967535510823  0.39989292669254434  1.0000
  O   O13       1.0  0.2596966053353641  0.8992680267555571  0.46666345621718347  1.0000
  O   O14       1.0  0.7391637354898181  0.10169481102538211  0.5334008610742629  1.0000
  O   O15       1.0  0.6056629612904629  0.6222992057141921  0.416551526810366  1.0000
  O   O16       1.0  0.39413367853661185  0.37822435628739726  0.5843414318589311  1.0000
