data_image0
_chemical_formula_structural       Zr6H30C64O36F10
_chemical_formula_sum              "Zr6 H30 C64 O36 F10"
_cell_length_a       14.880683543216884
_cell_length_b       14.875818027638244
_cell_length_c       14.881828934005084
_cell_angle_alpha    59.79345557159099
_cell_angle_beta     59.771612586236515
_cell_angle_gamma    59.81110708606907

_space_group_name_H-M_alt    "P 1"
_space_group_IT_number       1

loop_
  _space_group_symop_operation_xyz
  'x, y, z'

loop_
  _atom_site_type_symbol
  _atom_site_label
  _atom_site_symmetry_multiplicity
  _atom_site_fract_x
  _atom_site_fract_y
  _atom_site_fract_z
  _atom_site_occupancy
  Zr  Zr1       1.0  0.8809642782061361  0.3822792915867835  0.6167225016483542  1.0000
  Zr  Zr2       1.0  0.12143738444714103  0.618193968983384  0.3795990345740349  1.0000
  Zr  Zr3       1.0  0.11912622575892592  0.3810696045363926  0.6207550765080255  1.0000
  Zr  Zr4       1.0  0.8850030554079709  0.6186039021607569  0.37828427356226507  1.0000
  Zr  Zr5       1.0  0.882000620374896  0.618312174767375  0.618858251944488  1.0000
  Zr  Zr6       1.0  0.12258006141627223  0.3772822898552305  0.38359598270653095  1.0000
  H   H1        1.0  0.9054826854523199  0.40911387067840344  0.7813284085141917  1.0000
  H   H2        1.0  0.9108032341966066  0.7806320813722818  0.40408878283684374  1.0000
  H   H3        1.0  0.2827211016779713  0.404578036189349  0.40904102099388956  1.0000
  H   H4        1.0  0.910159513572111  0.40545216565493547  0.4046855473435755  1.0000
  H   H5        1.0  0.5850257716504073  0.7149275128007061  0.9151956909803046  1.0000
  H   H6        1.0  0.667450474817947  0.595639709655437  0.9943575314433273  1.0000
  H   H7        1.0  0.4987816054012128  0.5957009470738156  0.16580812524482258  1.0000
  H   H8        1.0  0.4164521969633626  0.7128866595630541  0.08527595867303714  1.0000
  H   H9        1.0  0.2382708563250801  0.06664510306090679  0.2984988943773317  1.0000
  H   H10       1.0  0.13062114415549078  0.14617155968482354  0.2409312801247125  1.0000
  H   H11       1.0  0.1364190077654256  0.9729231350861552  0.24237507083254434  1.0000
  H   H12       1.0  0.24057712254545996  0.8924837990392616  0.3051943705591426  1.0000
  H   H13       1.0  0.5171995870527227  0.8452518416397508  0.3784033513154127  1.0000
  H   H14       1.0  0.5919689531046044  0.9362884015566661  0.27091618250802435  1.0000
  H   H15       1.0  0.41397477750903994  0.09786912855538796  0.2827957854615164  1.0000
  H   H16       1.0  0.3408271562335017  0.00692900172148824  0.39605298537818356  1.0000
  H   H17       1.0  0.8686877436337213  0.763505953800049  0.024438024000147617  1.0000
  H   H18       1.0  0.775450288656323  0.6878184748414637  0.10996805343287258  1.0000
  H   H19       1.0  0.7704272205531311  0.6933237655130922  0.9402658829474859  1.0000
  H   H20       1.0  0.8655559695277333  0.7666911019863033  0.8550432009221394  1.0000
  H   H21       1.0  0.8087763993844418  0.26606571109279264  0.9322292119534623  1.0000
  H   H22       1.0  0.6521840798010247  0.2697367294092529  0.10540774117772857  1.0000
  H   H23       1.0  0.8124255761178745  0.9289051127344121  0.2662921015400386  1.0000
  H   H24       1.0  0.6547623283851532  0.10011231250188497  0.2734814548158297  1.0000
  H   H25       1.0  0.5509138497462158  0.3310365881985504  0.7469803303203335  1.0000
  H   H26       1.0  0.6291577791998152  0.25465317376946217  0.654369708582081  1.0000
  H   H27       1.0  0.452910795919344  0.25784675408338836  0.6650218192196462  1.0000
  H   H28       1.0  0.374718348501318  0.338220245142466  0.7538743257672423  1.0000
  H   H29       1.0  0.10431056164861005  0.7280924810116859  0.9994933659611718  1.0000
  H   H30       1.0  0.052781664250780104  0.0634834787140832  0.7229358121267425  1.0000
  C   C1        1.0  0.6937037222212369  0.503357661016004  0.7962638604501393  1.0000
  C   C2        1.0  0.004379237216781479  0.7976984485962645  0.5025506106831017  1.0000
  C   C3        1.0  0.30055854075735766  0.49929742785505477  0.19628072716464828  1.0000
  C   C4        1.0  0.00688389774320805  0.1922994965760906  0.5038061626771579  1.0000
  C   C5        1.0  0.9991127095180231  0.1943341615585652  0.8003194103824284  1.0000
  C   C6        1.0  0.696616973226163  0.5074973463215854  0.49758497847773236  1.0000
  C   C7        1.0  0.00626124631535438  0.7995641986968066  0.1902648465975431  1.0000
  C   C8        1.0  0.29660460652689846  0.5079770942359402  0.5040139490894758  1.0000
  C   C9        1.0  0.005841312036395297  0.5044692526086152  0.7978624931511716  1.0000
  C   C10       1.0  0.2995216118579976  0.1934184304885562  0.5104788127006259  1.0000
  C   C11       1.0  0.01400641993012645  0.5005784068262571  0.1921659889325582  1.0000
  C   C12       1.0  0.700089317103384  0.8009248086928338  0.49977706524764903  1.0000
  C   C13       1.0  0.5923147911053877  0.5037213374778415  0.895189738628318  1.0000
  C   C14       1.0  0.3980921584447683  0.5011358460417483  0.09385820885766087  1.0000
  C   C15       1.0  0.5591259622468815  0.5603319856422144  0.9642703731152836  1.0000
  C   C16       1.0  0.4297050367308869  0.44458104880084176  0.02428932587416433  1.0000
  C   C17       1.0  0.46641370327250814  0.5589584599009781  0.059379014845745676  1.0000
  C   C18       1.0  0.5232485009349759  0.4456736815584461  0.928977925855712  1.0000
  C   C19       1.0  0.5883694810956256  0.6339924510179101  0.9802440325660269  1.0000
  C   C20       1.0  0.4827256400835793  0.632894025678034  0.08794204850040886  1.0000
  C   C21       1.0  0.007700080770511827  0.09077138744368095  0.5059783703986369  1.0000
  C   C22       1.0  0.005532517766248147  0.8956573363119347  0.5054354125409546  1.0000
  C   C23       1.0  0.07537832700961646  0.049290518317000924  0.41836784961955686  1.0000
  C   C24       1.0  0.9363001368551663  0.9373582346293217  0.5938254347787858  1.0000
  C   C25       1.0  0.07516799504303835  0.9553999635164562  0.41879452053061084  1.0000
  C   C26       1.0  0.9386216644424081  0.029793866223670265  0.5948588016644719  1.0000
  C   C27       1.0  0.16061620223086956  0.06978013738164886  0.30375132417378836  1.0000
  C   C28       1.0  0.16242874215920713  0.9616457351737822  0.3056056306059318  1.0000
  C   C29       1.0  0.6021894750619906  0.9031417127544329  0.4999548002816283  1.0000
  C   C30       1.0  0.4025752337456793  0.09651112717736499  0.5076882991834353  1.0000
  C   C31       1.0  0.5377677372050942  0.9439800437903328  0.4357299826786512  1.0000
  C   C32       1.0  0.4687902258020955  0.05838199247292414  0.5701152912599099  1.0000
  C   C33       1.0  0.44216181366597596  0.03594912763430359  0.4401521427243438  1.0000
  C   C34       1.0  0.5648064208534578  0.9654321170194463  0.566414494295749  1.0000
  C   C35       1.0  0.5265621829349882  0.924361839197786  0.35181811626764403  1.0000
  C   C36       1.0  0.41637980018595755  0.026978921040530603  0.3593521209344246  1.0000
  C   C37       1.0  0.018358889636829204  0.5029998873817404  0.08886153536082017  1.0000
  C   C38       1.0  0.012918761669467755  0.5058797163775778  0.8935618953782549  1.0000
  C   C39       1.0  0.9447304923944627  0.5881479298388825  0.03316700921565994  1.0000
  C   C40       1.0  0.089823887162261  0.4207880979278116  0.9473987072233642  1.0000
  C   C41       1.0  0.9418429180397679  0.5897624533137884  0.9401200025360623  1.0000
  C   C42       1.0  0.09224260768426258  0.41922400195876003  0.04125604879758525  1.0000
  C   C43       1.0  0.8491647370723783  0.6953329180528057  0.036301063773343856  1.0000
  C   C44       1.0  0.8464315467360141  0.697888406810797  0.9302422550134964  1.0000
  C   C45       1.0  0.9977989535389681  0.09098070957700315  0.9000255954357853  1.0000
  C   C46       1.0  0.9064529358090712  0.0961336346095435  0.999725296579406  1.0000
  C   C47       1.0  0.0863154341453907  0.9937571334680156  0.8935394284955506  1.0000
  C   C48       1.0  0.8127288294185603  0.19340091272724164  0.006084090178219794  1.0000
  C   C49       1.0  0.7241691404444807  0.19489177181009146  0.10272581086548624  1.0000
  C   C50       1.0  0.0029801423011476744  0.9016000615126529  0.08914229870383374  1.0000
  C   C51       1.0  0.0912606149685473  0.8992669682755758  0.9910510716815893  1.0000
  C   C52       1.0  0.9077507426152277  0.9986412809334267  0.09572990116200908  1.0000
  C   C53       1.0  0.8148380144174752  0.0031374207333455927  0.19392073251809444  1.0000
  C   C54       1.0  0.7254635444431725  0.09903685554773738  0.1974312503638487  1.0000
  C   C55       1.0  0.594190820855509  0.5109942547435579  0.4989464442700393  1.0000
  C   C56       1.0  0.39417926663526265  0.5126679487633653  0.5041331733944716  1.0000
  C   C57       1.0  0.5442365285617186  0.4307485091472145  0.5773927412294667  1.0000
  C   C58       1.0  0.4431976083956567  0.5948816121066115  0.42514942201061956  1.0000
  C   C59       1.0  0.4484596281314169  0.43193604319998957  0.5802357796420594  1.0000
  C   C60       1.0  0.5393447729457391  0.5936222886108239  0.42235385053616176  1.0000
  C   C61       1.0  0.5555694603765174  0.324502839571629  0.6745393902829662  1.0000
  C   C62       1.0  0.4457935239474294  0.327092783360193  0.6791983711974013  1.0000
  C   C63       1.0  0.19199018316681557  0.7961015425261735  0.9905598446733705  1.0000
  C   C64       1.0  0.17301856953463357  0.9860002184258788  0.7834903547243074  1.0000
  O   O1        1.0  0.7351923426212607  0.4267758008463928  0.7564167817380891  1.0000
  O   O2        1.0  0.07932124384471707  0.7630636925012197  0.42243251833919965  1.0000
  O   O3        1.0  0.26303701623633896  0.5759334765721107  0.23470104697948094  1.0000
  O   O4        1.0  0.9290136852024061  0.23450500296863186  0.5778786359366633  1.0000
  O   O5        1.0  0.07312856604584549  0.23340380534003902  0.7674171000161252  1.0000
  O   O6        1.0  0.7390974718805267  0.5818593012050143  0.4210322333679242  1.0000
  O   O7        1.0  0.9305934131322359  0.7596049777620663  0.22902693630944523  1.0000
  O   O8        1.0  0.26084004683403333  0.42921404249603506  0.5804504983356154  1.0000
  O   O9        1.0  0.925785682112803  0.5795431960366813  0.76340315754161  1.0000
  O   O10       1.0  0.2614572940800103  0.22993129672337886  0.43390109339919997  1.0000
  O   O11       1.0  0.08584427757678971  0.4220843158329188  0.23629969675197057  1.0000
  O   O12       1.0  0.7385952657011358  0.757162371093585  0.5774943727661678  1.0000
  O   O13       1.0  0.25760054435427543  0.2340245472330834  0.586423793787695  1.0000
  O   O14       1.0  0.9355462458635485  0.5781434667870611  0.22939920395725713  1.0000
  O   O15       1.0  0.7382745991905469  0.7646164595712717  0.42125992116894645  1.0000
  O   O16       1.0  0.07926547728548879  0.42714349374251265  0.7585563672182758  1.0000
  O   O17       1.0  0.9246068534054644  0.23291323249767967  0.7588786593049476  1.0000
  O   O18       1.0  0.2580267179029009  0.5810331846263562  0.42606902572141797  1.0000
  O   O19       1.0  0.08218013588142993  0.7625620712516433  0.22860466676674918  1.0000
  O   O20       1.0  0.735105017248145  0.42840071903104615  0.5737458776669726  1.0000
  O   O21       1.0  0.0834918469520645  0.23069347471254528  0.4259791151495734  1.0000
  O   O22       1.0  0.733769811579968  0.5780602402707868  0.7608737962385134  1.0000
  O   O23       1.0  0.9285339333567604  0.7572184954456415  0.5780972857694592  1.0000
  O   O24       1.0  0.2639062903084052  0.420103181132383  0.23997143396174883  1.0000
  O   O25       1.0  0.9361711833470067  0.4322682888776796  0.4314924417114839  1.0000
  O   O26       1.0  0.2027427149894764  0.43099774764839077  0.43574035100747455  1.0000
  O   O27       1.0  0.936324056253831  0.7007038201788871  0.42969836709662684  1.0000
  O   O28       1.0  0.9326555574399006  0.4330419081835757  0.7014148039281166  1.0000
  O   O29       1.0  0.050314046785331315  0.5492952473194777  0.5487870360867291  1.0000
  O   O30       1.0  0.8537093622919442  0.5498693470327253  0.5472064728184804  1.0000
  O   O31       1.0  0.053008415898496294  0.5473933085489618  0.3513846476729298  1.0000
  O   O32       1.0  0.04969443875598507  0.351134660165357  0.5513958150717642  1.0000
  O   O33       1.0  0.17894713534216344  0.7078989641548643  0.9966663405688649  1.0000
  O   O34       1.0  0.2779725042594022  0.7876486851625798  0.9885995120716659  1.0000
  O   O35       1.0  0.13353718735207562  0.032518481569731215  0.698439236940125  1.0000
  O   O36       1.0  0.27136827645837514  0.9398188128115307  0.7669552453291358  1.0000
  F   F1        1.0  0.3693359873358233  0.38822414835734503  0.04489501032972492  1.0000
  F   F2        1.0  0.543005681390909  0.38926480574848193  0.8689252714830289  1.0000
  F   F3        1.0  0.8637989969457464  0.8893733380399881  0.6839597453071063  1.0000
  F   F4        1.0  0.8709946805470496  0.056666029908313646  0.6878008214854104  1.0000
  F   F5        1.0  0.4439458080386772  0.1110853566649794  0.635839521133576  1.0000
  F   F6        1.0  0.6215078402197844  0.9398748039108115  0.6286417117771066  1.0000
  F   F7        1.0  0.16493478190616886  0.33379517246216034  0.9128844956608901  1.0000
  F   F8        1.0  0.16844239654523815  0.3308243411256838  0.08510419910572145  1.0000
  F   F9        1.0  0.4002228244903846  0.6801420754509733  0.34642596878688175  1.0000
  F   F10       1.0  0.5774160077994993  0.6769873095038577  0.34031724154537807  1.0000
