data_image0
_chemical_formula_structural       Ag4H28C28N4Cl4O24
_chemical_formula_sum              "Ag4 H28 C28 N4 Cl4 O24"
_cell_length_a       5.232101593773362
_cell_length_b       13.077732657599967
_cell_length_c       15.3924569147644
_cell_angle_alpha    89.9997064461114
_cell_angle_beta     90.00045129562899
_cell_angle_gamma    103.30293109587706

_space_group_name_H-M_alt    "P 1"
_space_group_IT_number       1

loop_
  _space_group_symop_operation_xyz
  'x, y, z'

loop_
  _atom_site_type_symbol
  _atom_site_label
  _atom_site_symmetry_multiplicity
  _atom_site_fract_x
  _atom_site_fract_y
  _atom_site_fract_z
  _atom_site_occupancy
  Ag  Ag1       1.0  0.764986969003971  0.9548560411806479  0.9617610189615318  1.0000
  Ag  Ag2       1.0  0.2351287124279794  0.5451609405154515  0.46176476911850267  1.0000
  Ag  Ag3       1.0  0.235243184742373  0.0451803224070346  0.038244613713253287  1.0000
  Ag  Ag4       1.0  0.7648622409210476  0.45485202858343143  0.5382356648783996  1.0000
  H   H1        1.0  0.5515550669949078  0.9427680711244049  0.7695663067516634  1.0000
  H   H2        1.0  0.44852789672306415  0.5572454482272704  0.2695777003149473  1.0000
  H   H3        1.0  0.4485644506115491  0.0572457880118833  0.23040684191815325  1.0000
  H   H4        1.0  0.5514278142834002  0.4427389734405338  0.7304168865783609  1.0000
  H   H5        1.0  0.4522217351030946  0.05429517912185839  0.728187708332193  1.0000
  H   H6        1.0  0.5478303589595725  0.44569427094298664  0.22818319010642799  1.0000
  H   H7        1.0  0.5478317442638669  0.9456897324356602  0.27180752881272247  1.0000
  H   H8        1.0  0.4521688677462167  0.5542930568526288  0.7718139957097492  1.0000
  H   H9        1.0  0.07743958206757642  0.0357764053262741  0.6434914670374354  1.0000
  H   H10       1.0  0.9225593297860756  0.4642423847457665  0.1434756759464335  1.0000
  H   H11       1.0  0.9226218922129519  0.9642476234299975  0.3564998719680688  1.0000
  H   H12       1.0  0.07740729615391474  0.5357601248889807  0.8565026692100872  1.0000
  H   H13       1.0  0.7488484229837624  0.9214368319351608  0.5449556166111549  1.0000
  H   H14       1.0  0.2511078744615531  0.5785651279663924  0.04493392448496541  1.0000
  H   H15       1.0  0.2511737162990144  0.07857732258372609  0.4550441678981868  1.0000
  H   H16       1.0  0.7488511118036315  0.42144508507356454  0.9550483186047529  1.0000
  H   H17       1.0  0.7131418238404095  0.7273747891182721  0.5457105320721141  1.0000
  H   H18       1.0  0.28685598946658797  0.7726261461995136  0.0456933873993108  1.0000
  H   H19       1.0  0.28686028636495564  0.2726375446263063  0.4543041947093798  1.0000
  H   H20       1.0  0.71310495070135  0.22738799352777048  0.954301849061906  1.0000
  H   H21       1.0  0.0016371952663192673  0.6528531746427931  0.6471238146416666  1.0000
  H   H22       1.0  0.9983895426847483  0.8471484607618862  0.1471184184310061  1.0000
  H   H23       1.0  0.9983325267668377  0.3471517159266639  0.3528935106546314  1.0000
  H   H24       1.0  0.0015504682556085163  0.15284668063274154  0.8528924100422799  1.0000
  H   H25       1.0  0.3186056336765617  0.7773207166960245  0.7432384682292651  1.0000
  H   H26       1.0  0.6814439107561442  0.7226956079267596  0.2432459791713057  1.0000
  H   H27       1.0  0.6813964177724897  0.22268381365399392  0.25676131620272  1.0000
  H   H28       1.0  0.3185090934893964  0.2772872180169088  0.7567603017524647  1.0000
  C   C1        1.0  0.23706044588998773  0.987955201782434  0.8409647813189735  1.0000
  C   C2        1.0  0.7630398675595558  0.5120707062672736  0.3409653977686914  1.0000
  C   C3        1.0  0.7630741665882609  0.0120697771443545  0.15902850712645028  1.0000
  C   C4        1.0  0.2369196928483959  0.4879137654114912  0.6590285394785553  1.0000
  C   C5        1.0  0.3810765103345021  0.9758837943468635  0.7566120416522608  1.0000
  C   C6        1.0  0.6189557466042643  0.524141608727625  0.2566335654570935  1.0000
  C   C7        1.0  0.6189611456521646  0.024146167143868497  0.2433624057938673  1.0000
  C   C8        1.0  0.38103457906008487  0.47583936129095855  0.7433668686784429  1.0000
  C   C9        1.0  0.05188575979123311  0.9507961046020271  0.6411711730213624  1.0000
  C   C10       1.0  0.9481328274515237  0.5491999898626857  0.1411418403434368  1.0000
  C   C11       1.0  0.9481751454630684  0.0492037284599292  0.35883835681659787  1.0000
  C   C12       1.0  0.05178754605312007  0.4507941161705346  0.858857943646278  1.0000
  C   C13       1.0  0.8720767110786839  0.8864197511472226  0.587273340807755  1.0000
  C   C14       1.0  0.12792118594057916  0.6135669536011362  0.08725830857262909  1.0000
  C   C15       1.0  0.1279344247348959  0.11356461027773429  0.412733590125832  1.0000
  C   C16       1.0  0.8720064958604965  0.3864264671405451  0.9127284820865711  1.0000
  C   C17       1.0  0.8526470905439112  0.7781854700189967  0.5884223207357235  1.0000
  C   C18       1.0  0.14734535395775333  0.7218019389882853  0.0884098060569087  1.0000
  C   C19       1.0  0.14739610184821567  0.22181335267588753  0.41158006264325303  1.0000
  C   C20       1.0  0.8526215142181996  0.2781818473526414  0.9115886789191592  1.0000
  C   C21       1.0  0.013476447091292752  0.7369145077655543  0.6440674690815769  1.0000
  C   C22       1.0  0.9865524294415453  0.763091070505773  0.14405748196138998  1.0000
  C   C23       1.0  0.9865602480708731  0.263090472604226  0.3559563533036467  1.0000
  C   C24       1.0  0.013404963119619119  0.23691209938159827  0.8559468498915164  1.0000
  C   C25       1.0  0.19006538123514366  0.8037545281459303  0.6969649167323337  1.0000
  C   C26       1.0  0.8099833153833345  0.6962393657891893  0.19696315669223446  1.0000
  C   C27       1.0  0.80993967839769  0.19624067806668677  0.3030439631232369  1.0000
  C   C28       1.0  0.18999606015799492  0.3037695515598243  0.8030392262600188  1.0000
  N   N1        1.0  0.2070226949984575  0.9086733322545797  0.6943444367890095  1.0000
  N   N2        1.0  0.793009855869343  0.5913531348989663  0.1943414583290846  1.0000
  N   N3        1.0  0.7930114721573176  0.0913534627925046  0.30565339872945424  1.0000
  N   N4        1.0  0.20694555320540792  0.40864220658578887  0.8056492305006415  1.0000
  Cl  Cl1       1.0  0.7195446260492063  0.6932503021051913  0.8955853413378065  1.0000
  Cl  Cl2       1.0  0.2804181836063935  0.8067400225643412  0.3955775612305031  1.0000
  Cl  Cl3       1.0  0.2803482327362161  0.30671925816727713  0.1044332829935826  1.0000
  Cl  Cl4       1.0  0.7195850112073786  0.19326296213593955  0.6044092298379127  1.0000
  O   O1        1.0  0.6519372203627255  0.7609853395439001  0.9642091575763274  1.0000
  O   O2        1.0  0.3480520063670269  0.7390237461699698  0.4642164323558191  1.0000
  O   O3        1.0  0.3480079021286144  0.2390239131125185  0.0357756841101775  1.0000
  O   O4        1.0  0.6519662541263217  0.2609864566398201  0.535776855459254  1.0000
  O   O5        1.0  0.6063974164605739  0.7165610193578331  0.8128193460615305  1.0000
  O   O6        1.0  0.3935914922160891  0.783422213795852  0.31281637580091365  1.0000
  O   O7        1.0  0.39348615067900977  0.2834013978155738  0.1871940808951322  1.0000
  O   O8        1.0  0.6064181696764096  0.2165707114645272  0.6871671670066347  1.0000
  O   O9        1.0  0.6091848653586709  0.583920479754937  0.9196963281335468  1.0000
  O   O10       1.0  0.39073688472742424  0.9160746649833628  0.41967720123948726  1.0000
  O   O11       1.0  0.3906157846275136  0.41607129048789904  0.0803638743546529  1.0000
  O   O12       1.0  0.6092763246739921  0.0839292301083674  0.5803004945206993  1.0000
  O   O13       1.0  0.004009138101622637  0.7118661339152298  0.8873301830669931  1.0000
  O   O14       1.0  0.9959336309926458  0.7881060213777571  0.3873239839550137  1.0000
  O   O15       1.0  0.9958784615276741  0.2880698065464671  0.1127007850909507  1.0000
  O   O16       1.0  0.004066856844907815  0.2118953675795296  0.6126816475013681  1.0000
  O   O17       1.0  0.9897219956444873  0.9707330688204507  0.8383810801738533  1.0000
  O   O18       1.0  0.010396370838307776  0.5292673366353355  0.3383601939172322  1.0000
  O   O19       1.0  0.010426183792432705  0.029253853251319104  0.1616355966012009  1.0000
  O   O20       1.0  0.9895918171304883  0.4707362333568596  0.6616324440785772  1.0000
  O   O21       1.0  0.3852125337452463  0.019236853613357103  0.9059485587102001  1.0000
  O   O22       1.0  0.6148915472009053  0.48079694784489396  0.4059516767488276  1.0000
  O   O23       1.0  0.6149644812971289  0.9807964788628424  0.09403953260082427  1.0000
  O   O24       1.0  0.3850758304229488  0.5192032307237754  0.5940409611375728  1.0000
