data_image0
_chemical_formula_structural       Zn8H36C48N12O26
_chemical_formula_sum              "Zn8 H36 C48 N12 O26"
_cell_length_a       17.886338321028266
_cell_length_b       17.79318363514803
_cell_length_c       18.14270428145036
_cell_angle_alpha    61.31179524575417
_cell_angle_beta     61.525946902963405
_cell_angle_gamma    61.10072480611768

_space_group_name_H-M_alt    "P 1"
_space_group_IT_number       1

loop_
  _space_group_symop_operation_xyz
  'x, y, z'

loop_
  _atom_site_type_symbol
  _atom_site_label
  _atom_site_symmetry_multiplicity
  _atom_site_fract_x
  _atom_site_fract_y
  _atom_site_fract_z
  _atom_site_occupancy
  Zn  Zn1       1.0  0.9539442501013017  0.9695439452442546  0.14313532420941005  1.0000
  Zn  Zn2       1.0  0.9447760703274073  0.9654629826998973  0.9733502087157857  1.0000
  Zn  Zn3       1.0  0.1257541262980838  0.9580587681123875  0.9732057843347374  1.0000
  Zn  Zn4       1.0  0.9536681029597462  0.14135405331708037  0.9713194216460292  1.0000
  Zn  Zn5       1.0  0.5385842945801684  0.5523718306237203  0.3857773497975712  1.0000
  Zn  Zn6       1.0  0.5329754141738191  0.5575737175057967  0.5623820753097561  1.0000
  Zn  Zn7       1.0  0.5417551739156111  0.3773218857041201  0.5557780697665676  1.0000
  Zn  Zn8       1.0  0.3634432172014713  0.5467691857940694  0.5569460503644875  1.0000
  H   H1        1.0  0.9072883821996884  0.6947021686177735  0.21683579689252488  1.0000
  H   H2        1.0  0.8885067321245547  0.5520049315710623  0.3247703776646131  1.0000
  H   H3        1.0  0.7879633682650538  0.5420299706488977  0.3965738822258088  1.0000
  H   H4        1.0  0.5749877113993805  0.8319253049386363  0.3212560563672538  1.0000
  H   H5        1.0  0.6996202768111673  0.9864388486348263  0.21559790195690426  1.0000
  H   H6        1.0  0.5969551007560201  0.975952473048885  0.26153770023076106  1.0000
  H   H7        1.0  0.1970473448627814  0.9223139179780663  0.21993438200675514  1.0000
  H   H8        1.0  0.2544133400655398  0.9008152011252407  0.3271506002398466  1.0000
  H   H9        1.0  0.2989589426799101  0.7974063533407262  0.39328507876967905  1.0000
  H   H10       1.0  0.30056742722776164  0.5872666189261367  0.3051400199703661  1.0000
  H   H11       1.0  0.1282660167158768  0.7099082968092957  0.19984066475961976  1.0000
  H   H12       1.0  0.19789422479227176  0.6076393889319649  0.2413933830967067  1.0000
  H   H13       1.0  0.6836285061270645  0.2166097675210921  0.20353835967490125  1.0000
  H   H14       1.0  0.539356982010503  0.27108326097439334  0.30762693252469814  1.0000
  H   H15       1.0  0.5280522870305407  0.3119073488339197  0.38040092126461605  1.0000
  H   H16       1.0  0.8157919122291659  0.31119352886128854  0.3176081989566625  1.0000
  H   H17       1.0  0.9716544672992456  0.14040705316498506  0.21179805326886478  1.0000
  H   H18       1.0  0.959184144871131  0.20729679435653742  0.26106883017007454  1.0000
  H   H19       1.0  0.18245749208373502  0.6836593403824196  0.9316649540322074  1.0000
  H   H20       1.0  0.23743353916469795  0.5419833454923337  0.9077722416806037  1.0000
  H   H21       1.0  0.2837619286189792  0.5319111715995818  0.8060788366197397  1.0000
  H   H22       1.0  0.2893539719242782  0.8244942953935992  0.6056899595382811  1.0000
  H   H23       1.0  0.1116526926150813  0.9764765404200022  0.7270021910499691  1.0000
  H   H24       1.0  0.18217844531448435  0.9675020312408691  0.6270758369839837  1.0000
  H   H25       1.0  0.9111294692556839  0.21314880155691904  0.6999534452970616  1.0000
  H   H26       1.0  0.891518601069997  0.27083664161276744  0.5580366511575575  1.0000
  H   H27       1.0  0.7894951981709185  0.3159203858855193  0.54567477144041  1.0000
  H   H28       1.0  0.5783470279615984  0.32048369831459683  0.8276937465210918  1.0000
  H   H29       1.0  0.6959685807255767  0.14217640545425778  0.9819649074611403  1.0000
  H   H30       1.0  0.5955891451364295  0.21626060622050156  0.9692866508424127  1.0000
  H   H31       1.0  0.19504351112873766  0.21726436145010547  0.9249288098463349  1.0000
  H   H32       1.0  0.2999680138119913  0.2809013242415901  0.9017827998355439  1.0000
  H   H33       1.0  0.3720246952893548  0.31649647807606135  0.8018531748595376  1.0000
  H   H34       1.0  0.3025561848333212  0.2871675123959605  0.5994890273638018  1.0000
  H   H35       1.0  0.20076002344117685  0.11068046703216791  0.7290069200735017  1.0000
  H   H36       1.0  0.2483614166318446  0.17288821451889186  0.626360281448164  1.0000
  C   C1        1.0  0.853020477675642  0.8762719435139135  0.1538943240817544  1.0000
  C   C2        1.0  0.7947435886197881  0.8183853763553657  0.2157852573519106  1.0000
  C   C3        1.0  0.8341837669222087  0.7240737976324995  0.24259931018349326  1.0000
  C   C4        1.0  0.7823972139104498  0.6671153155304596  0.3035027017442215  1.0000
  C   C5        1.0  0.687872923422674  0.7085012111339212  0.32826328107372377  1.0000
  C   C6        1.0  0.6483733065231762  0.8026657003712074  0.3002089347896654  1.0000
  C   C7        1.0  0.700699720331642  0.8598835042037933  0.24777514834417502  1.0000
  C   C8        1.0  0.6283472474096785  0.6511138838118955  0.38503609619940676  1.0000
  C   C9        1.0  0.13499702979927272  0.8680879074245738  0.15162054869485078  1.0000
  C   C10       1.0  0.19230325755348338  0.8087698264448165  0.21071431396318724  1.0000
  C   C11       1.0  0.21813142860643348  0.8484116527398344  0.24107749814170615  1.0000
  C   C12       1.0  0.26846335635701735  0.7955805629838865  0.2997212164011953  1.0000
  C   C13       1.0  0.29937933619338963  0.7006095427344761  0.31995904684864473  1.0000
  C   C14       1.0  0.2752753807794761  0.6610455032760855  0.2878408375815765  1.0000
  C   C15       1.0  0.2175549585686341  0.7136709287166738  0.2364040083702789  1.0000
  C   C16       1.0  0.3574476082292436  0.641254462670716  0.3779676504323603  1.0000
  C   C17       1.0  0.8636893626648785  0.1517547802888829  0.14845700251603938  1.0000
  C   C18       1.0  0.805466845209267  0.20779131817424465  0.20838870538010923  1.0000
  C   C19       1.0  0.7118911339319992  0.23516336220713902  0.2316254772214207  1.0000
  C   C20       1.0  0.654080980118451  0.28324578184971466  0.291855143904506  1.0000
  C   C21       1.0  0.694133705429252  0.31217772669021565  0.31993508480354627  1.0000
  C   C22       1.0  0.7875118626202137  0.28710639833660423  0.2947361603643372  1.0000
  C   C23       1.0  0.845397100704588  0.23010561313081015  0.24283270574046864  1.0000
  C   C24       1.0  0.6358624448094687  0.37028974714301915  0.3779744189497689  1.0000
  C   C25       1.0  0.1220912153311105  0.8651612525001368  0.8818643859602274  1.0000
  C   C26       1.0  0.1776404877577989  0.8082803849082439  0.8224157417819665  1.0000
  C   C27       1.0  0.20362827393293523  0.7139919263593767  0.8596088710774479  1.0000
  C   C28       1.0  0.2541631009357204  0.6575548779135972  0.8067147296575993  1.0000
  C   C29       1.0  0.28732742052329724  0.6999214833673478  0.7143530315232595  1.0000
  C   C30       1.0  0.26271652952403457  0.7944176635114393  0.6773908607379864  1.0000
  C   C31       1.0  0.20321371126633656  0.8507463178593041  0.7296218666643737  1.0000
  C   C32       1.0  0.34907389780200054  0.6437542432688661  0.6548816793945059  1.0000
  C   C33       1.0  0.8557774274828986  0.14917102037174598  0.8774242503056725  1.0000
  C   C34       1.0  0.797486471300708  0.20756279738603214  0.8192530499275603  1.0000
  C   C35       1.0  0.8377070325925475  0.23460803545045653  0.7273469251357337  1.0000
  C   C36       1.0  0.7861876017145305  0.28628331274983765  0.6698189518700699  1.0000
  C   C37       1.0  0.6917137660153048  0.31858845875314773  0.7084762107337566  1.0000
  C   C38       1.0  0.6515967178174693  0.2939220958709541  0.8004114769635319  1.0000
  C   C39       1.0  0.7027665131805138  0.23379845744258895  0.8578739194532966  1.0000
  C   C40       1.0  0.6329983526618223  0.3771657540736301  0.6510204793834471  1.0000
  C   C41       1.0  0.137743730149964  0.1386341037034455  0.8781580120967688  1.0000
  C   C42       1.0  0.19798961980624336  0.19449372387980904  0.8175295429867259  1.0000
  C   C43       1.0  0.22172891456001048  0.23084398862926048  0.8533422045211051  1.0000
  C   C44       1.0  0.280809214413651  0.2809707791129838  0.8001115759647416  1.0000
  C   C45       1.0  0.3067761890130002  0.3027766694005861  0.7075237973643878  1.0000
  C   C46       1.0  0.28112100322418604  0.26865108778056174  0.6714403416302445  1.0000
  C   C47       1.0  0.23087929571619276  0.20932571002300904  0.72538832520091  1.0000
  C   C48       1.0  0.36322216621831427  0.36293399835115997  0.6473888709891468  1.0000
  N   N1        1.0  0.8219738341384685  0.5727260590589649  0.33345110595575983  1.0000
  N   N2        1.0  0.661233181223231  0.9546263248058154  0.22225276976735125  1.0000
  N   N3        1.0  0.2929285693308188  0.8351962151201494  0.3317078466937458  1.0000
  N   N4        1.0  0.19071117665026105  0.6741680112606404  0.20647191911898938  1.0000
  N   N5        1.0  0.5603792643702975  0.30787575554538893  0.3179949631015261  1.0000
  N   N6        1.0  0.938962159527513  0.20226999040230711  0.22049812418522657  1.0000
  N   N7        1.0  0.27671870442549834  0.5634283297562349  0.8443901068296422  1.0000
  N   N8        1.0  0.17535327088607747  0.9458151581439864  0.69224359419578  1.0000
  N   N9        1.0  0.8265869509540169  0.31074615687016666  0.5775035713916238  1.0000
  N   N10       1.0  0.6622042888840481  0.20618126634380468  0.949814486608055  1.0000
  N   N11       1.0  0.3081006723212667  0.3143047463118478  0.8361436059964472  1.0000
  N   N12       1.0  0.20835142939107953  0.17245267822150373  0.6891201514875787  1.0000
  O   O1        1.0  0.9946550438954987  0.008742028953015804  0.014442093166529236  1.0000
  O   O2        1.0  0.9004703777707305  0.8682417653384465  0.07711881709254001  1.0000
  O   O3        1.0  0.8500228492070364  0.9312409123122977  0.1829389244744062  1.0000
  O   O4        1.0  0.6307044586973092  0.6042644905529784  0.4645197117780881  1.0000
  O   O5        1.0  0.5803487522572084  0.6528934368036305  0.3497664387709986  1.0000
  O   O6        1.0  0.17088959656062747  0.9127931323113715  0.07253682823730391  1.0000
  O   O7        1.0  0.05346535299145938  0.8681677153085661  0.18573594326269208  1.0000
  O   O8        1.0  0.32300983997112087  0.6461956785822952  0.4566396638725293  1.0000
  O   O9        1.0  0.43632959416373057  0.5911514672648721  0.3458249920765581  1.0000
  O   O10       1.0  0.8565222018404839  0.18412661039753433  0.07149720717736587  1.0000
  O   O11       1.0  0.9180450409485488  0.07365986302857411  0.1795284533875899  1.0000
  O   O12       1.0  0.5853697112314861  0.33539803537190954  0.4547426636520908  1.0000
  O   O13       1.0  0.639772262281987  0.4498896675444329  0.3473725240001568  1.0000
  O   O14       1.0  0.15747192962393813  0.8581461936049735  0.9324278221995708  1.0000
  O   O15       1.0  0.04303866502569791  0.9179075334299894  0.8764971504091148  1.0000
  O   O16       1.0  0.32061511863725667  0.5878740298045886  0.6582732686165184  1.0000
  O   O17       1.0  0.4256328574699851  0.6544151255036824  0.6053641535877999  1.0000
  O   O18       1.0  0.9074610991504669  0.1818043841998076  0.8739740704304491  1.0000
  O   O19       1.0  0.8484692813538642  0.07027097740637342  0.9272116657911267  1.0000
  O   O20       1.0  0.6414286166431397  0.3440836665462257  0.5969657724263867  1.0000
  O   O21       1.0  0.5793991415084678  0.45478607922960634  0.658857112423689  1.0000
  O   O22       1.0  0.06197315846166164  0.17386488983564155  0.9293526497342195  1.0000
  O   O23       1.0  0.16682330523175176  0.0586475638908937  0.8738422411429024  1.0000
  O   O24       1.0  0.44236752865347045  0.33268928158271655  0.6528624952826046  1.0000
  O   O25       1.0  0.3287570168003172  0.4398933533837522  0.5961958132210936  1.0000
  O   O26       1.0  0.49439178780879445  0.5091153964087384  0.5150932725243461  1.0000
