data_image0
_chemical_formula_structural       Zn8H32C124O26F48
_chemical_formula_sum              "Zn8 H32 C124 O26 F48"
_cell_length_a       21.60788267910541
_cell_length_b       21.607854278115056
_cell_length_c       34.43930758528658
_cell_angle_alpha    90.00033926652222
_cell_angle_beta     89.9996785239081
_cell_angle_gamma    90.00015746937021

_space_group_name_H-M_alt    "P 1"
_space_group_IT_number       1

loop_
  _space_group_symop_operation_xyz
  'x, y, z'

loop_
  _atom_site_type_symbol
  _atom_site_label
  _atom_site_symmetry_multiplicity
  _atom_site_fract_x
  _atom_site_fract_y
  _atom_site_fract_z
  _atom_site_occupancy
  Zn  Zn1       1.0  0.5521014397122954  0.5515077832046201  0.033509146742332505  1.0000
  Zn  Zn2       1.0  0.4478950170246138  0.5515041760157047  0.9664891794074251  1.0000
  Zn  Zn3       1.0  0.4478971966520576  0.44849694901963477  0.033512332847188  1.0000
  Zn  Zn4       1.0  0.5521003653660158  0.4484927026518618  0.9664902565402045  1.0000
  Zn  Zn5       1.0  0.4484968918127521  0.4478973603544176  0.4664902575194745  1.0000
  Zn  Zn6       1.0  0.4484958096865271  0.5521037663293953  0.5335109622565355  1.0000
  Zn  Zn7       1.0  0.5515071277982386  0.552102665979163  0.46648968902720617  1.0000
  Zn  Zn8       1.0  0.551502982529378  0.4478931903037235  0.5335120392710522  1.0000
  H   H1        1.0  0.5680437348405576  0.5709077860544624  0.1507914197552083  1.0000
  H   H2        1.0  0.431953389741409  0.4290911113491519  0.1507925573462217  1.0000
  H   H3        1.0  0.4290915134045506  0.4319544289959083  0.3492065451920965  1.0000
  H   H4        1.0  0.5709117040355096  0.5680458785929332  0.3492053868846341  1.0000
  H   H5        1.0  0.4319555519784116  0.570909969861944  0.8492075591895727  1.0000
  H   H6        1.0  0.5680459701522835  0.42908996684261763  0.8492047333786985  1.0000
  H   H7        1.0  0.5709124822912344  0.4319537333720262  0.65079249835604  1.0000
  H   H8        1.0  0.42909127726818513  0.5680438675748788  0.6507930006840895  1.0000
  H   H9        1.0  0.6159720889186319  0.6734480427620609  0.2831751397887744  1.0000
  H   H10       1.0  0.6224389255611058  0.6217304698338921  0.3226758265226692  1.0000
  H   H11       1.0  0.6737749905347884  0.6159731870063396  0.28293654093221937  1.0000
  H   H12       1.0  0.6734453140319019  0.6159700977283291  0.216820810393898  1.0000
  H   H13       1.0  0.6217324272433872  0.6224406354258603  0.17731866742755645  1.0000
  H   H14       1.0  0.6159746990240293  0.6737777033072162  0.21705766708833354  1.0000
  H   H15       1.0  0.3840312563133921  0.32655488108459707  0.28317664593875247  1.0000
  H   H16       1.0  0.3775608268058336  0.3782672733465659  0.3226772571598531  1.0000
  H   H17       1.0  0.3262260428474875  0.3840260322362211  0.2829399158399681  1.0000
  H   H18       1.0  0.32655399674332136  0.38402849738171335  0.216820699764007  1.0000
  H   H19       1.0  0.3782681624259824  0.3775608263710665  0.1773209640433535  1.0000
  H   H20       1.0  0.38402692360543983  0.3262259847882234  0.2170585912957179  1.0000
  H   H21       1.0  0.38402886806247954  0.6734437544274242  0.7168236392747858  1.0000
  H   H22       1.0  0.37755818695116966  0.6217308815843409  0.6773227604616849  1.0000
  H   H23       1.0  0.3262225689531775  0.6159729071875332  0.7170611535681246  1.0000
  H   H24       1.0  0.3265536338253767  0.6159732197089625  0.7831789166600345  1.0000
  H   H25       1.0  0.3782679267822289  0.6224396444793712  0.8226787607227238  1.0000
  H   H26       1.0  0.3840276472499937  0.6737731135026193  0.7829399517331481  1.0000
  H   H27       1.0  0.6159719869405507  0.32655123025784855  0.7168220061194361  1.0000
  H   H28       1.0  0.6224397817974747  0.3782646558073139  0.6773207158826937  1.0000
  H   H29       1.0  0.673772730399108  0.3840248565016681  0.7170598207935583  1.0000
  H   H30       1.0  0.6734461649054708  0.3840274820858554  0.7831761332176939  1.0000
  H   H31       1.0  0.6217329070287434  0.37755726503689857  0.8226770063726718  1.0000
  H   H32       1.0  0.6159763187494819  0.32622110692344103  0.7829386077091485  1.0000
  C   C1        1.0  0.5000047089819972  0.6642800645221811  0.9999983912830787  1.0000
  C   C2        1.0  0.3348388326874598  0.4999928169665677  0.999996925019296  1.0000
  C   C3        1.0  0.499998304967491  0.5000064051738917  0.10484884652806413  1.0000
  C   C4        1.0  0.5000050272319286  0.33571657578362135  9.049918218999997e-07  1.0000
  C   C5        1.0  0.6651662755801412  0.49999595581783746  1.2097856015000002e-06  1.0000
  C   C6        1.0  0.5000007869879823  0.49999023511179524  0.8951492883020364  1.0000
  C   C7        1.0  0.3357162123057194  0.5000015653354664  0.5000010987351046  1.0000
  C   C8        1.0  0.49999722754851217  0.66516488199413  0.5000005356219364  1.0000
  C   C9        1.0  0.5000053370063426  0.49999944505665184  0.39514939843239466  1.0000
  C   C10       1.0  0.6642824168482875  0.5000038680690579  0.5000013916004065  1.0000
  C   C11       1.0  0.499994922480731  0.3348396258189864  0.500003406552672  1.0000
  C   C12       1.0  0.4999951433261033  0.4999990464178907  0.6048504785940028  1.0000
  C   C13       1.0  0.26549469459375535  0.4999890193227185  0.9999999507083501  1.0000
  C   C14       1.0  0.23188074486837004  0.4496234683104133  0.0146813260446521  1.0000
  C   C15       1.0  0.1674450012743165  0.4497936878540756  0.014608557922912302  1.0000
  C   C16       1.0  0.2318830216321643  0.5503617907622526  0.985321236863996  1.0000
  C   C17       1.0  0.1674454257540248  0.550200187205995  0.9853942318031628  1.0000
  C   C18       1.0  0.1339564309822521  0.49999707694852447  1.5639207475999998e-06  1.0000
  C   C19       1.0  0.06566468663219642  0.4999974458825419  2.3227719479999964e-07  1.0000
  C   C20       1.0  0.03221470552669099  0.5002088249558269  0.96524588824294  1.0000
  C   C21       1.0  0.032212849851070806  0.4997860667715202  0.03475360271034591  1.0000
  C   C22       1.0  0.7345118020359466  0.49999929068947313  2.5395815085999997e-06  1.0000
  C   C23       1.0  0.7681226878401761  0.5503690535067705  0.014679698326062902  1.0000
  C   C24       1.0  0.8325593576857602  0.5502043868084386  0.0146058316849391  1.0000
  C   C25       1.0  0.7681223737893461  0.4496301749419302  0.9853212675375432  1.0000
  C   C26       1.0  0.8325585806469178  0.4497959443281517  0.9853922940871414  1.0000
  C   C27       1.0  0.8660468261081818  0.4999995633552245  0.9999991841949837  1.0000
  C   C28       1.0  0.934338107670662  0.4999991944137177  0.9999990640099341  1.0000
  C   C29       1.0  0.9677871637698845  0.5002103468803867  0.0347531184646286  1.0000
  C   C30       1.0  0.9677885554935345  0.49978850477081943  0.9652448216977235  1.0000
  C   C31       1.0  0.5390398485939302  0.540397162687938  0.1680257908296738  1.0000
  C   C32       1.0  0.540691842380774  0.5411581915949598  0.2087437972845905  1.0000
  C   C33       1.0  0.5817013747426716  0.5819657316450842  0.22993325130197215  1.0000
  C   C34       1.0  0.4609566590640881  0.45961022770120524  0.1680257782130568  1.0000
  C   C35       1.0  0.4593019871159855  0.45884402961664955  0.2087429165533621  1.0000
  C   C36       1.0  0.4182959675717726  0.4180380779942254  0.22993584773017522  1.0000
  C   C37       1.0  0.4596115109535362  0.46095819497433854  0.3319733301145291  1.0000
  C   C38       1.0  0.458842064233565  0.45930675032053603  0.2912561915504527  1.0000
  C   C39       1.0  0.4180356982066726  0.4182988204396023  0.2700638331445333  1.0000
  C   C40       1.0  0.5403937117988775  0.5390438011220623  0.331972752232673  1.0000
  C   C41       1.0  0.5411565807935403  0.5406985637646997  0.2912553267461462  1.0000
  C   C42       1.0  0.5819631363657081  0.5817049052120635  0.2700629770242884  1.0000
  C   C43       1.0  0.4999948723175862  0.5000024438014279  0.1480248016858354  1.0000
  C   C44       1.0  0.49999682230201614  0.5000037535488315  0.2294161012364242  1.0000
  C   C45       1.0  0.500001364946627  0.5000010924469152  0.3519737336492454  1.0000
  C   C46       1.0  0.49999756378837656  0.5000044106478753  0.270583305208163  1.0000
  C   C47       1.0  0.46095611480243553  0.5403872308647734  0.8319736555045409  1.0000
  C   C48       1.0  0.4593004207614371  0.5411543499864847  0.7912559422600225  1.0000
  C   C49       1.0  0.4182947029002122  0.5819601889064785  0.7700646072431212  1.0000
  C   C50       1.0  0.5390437102766796  0.4596032872658284  0.8319719162224359  1.0000
  C   C51       1.0  0.5406937521863213  0.4588408745141521  0.7912541943196558  1.0000
  C   C52       1.0  0.5817015107561402  0.4180325215861058  0.7700634344967554  1.0000
  C   C53       1.0  0.5403916388575071  0.46095711534358935  0.668025821163134  1.0000
  C   C54       1.0  0.5411587670604945  0.4592995780341909  0.7087429535860109  1.0000
  C   C55       1.0  0.5819613180503183  0.41829334873729346  0.7299339982224211  1.0000
  C   C56       1.0  0.4596054874500553  0.5390415738602099  0.6680261083515903  1.0000
  C   C57       1.0  0.45884216020289165  0.540691165228793  0.708743249609725  1.0000
  C   C58       1.0  0.4180347917348471  0.5816999085354126  0.729935461281535  1.0000
  C   C59       1.0  0.49999774052730583  0.499996973240698  0.8519727524290559  1.0000
  C   C60       1.0  0.4999976417100954  0.49999473791470433  0.7705831950687951  1.0000
  C   C61       1.0  0.5000005037667563  0.4999964734401772  0.648026143372995  1.0000
  C   C62       1.0  0.4999959746407896  0.49999408080890356  0.7294148296351537  1.0000
  C   C63       1.0  0.5000016921776833  0.26621407077549714  1.9518926560000018e-07  1.0000
  C   C64       1.0  0.4769784247247841  0.23240981393035295  0.0316497639455662  1.0000
  C   C65       1.0  0.4770676558851576  0.1679179865027223  0.0315337880296411  1.0000
  C   C66       1.0  0.5230213202538394  0.23241013314756734  0.9683499902723299  1.0000
  C   C67       1.0  0.5229342258179699  0.16791691820503724  0.968469501396271  1.0000
  C   C68       1.0  0.5000019736219629  0.13423844917694078  2.5633830488999994e-06  1.0000
  C   C69       1.0  0.5000014168201901  0.06581703254173017  1.2748515772e-06  1.0000
  C   C70       1.0  0.5553734494681776  0.0322340411276301  0.999853969654879  1.0000
  C   C71       1.0  0.4446285221769203  0.03223333560006129  0.0001456217756228  1.0000
  C   C72       1.0  0.5000020277275395  0.7337844206884225  0.9999964878067046  1.0000
  C   C73       1.0  0.4769786734490253  0.7675900026436439  0.9683487422846396  1.0000
  C   C74       1.0  0.47706761799899783  0.8320822931190432  0.9684664600831638  1.0000
  C   C75       1.0  0.5230271702013312  0.7675870332092102  0.031646030956210304  1.0000
  C   C76       1.0  0.5229388656769416  0.8320816363043165  0.0315285527047209  1.0000
  C   C77       1.0  0.5000008206749557  0.8657614306930412  0.999999055837165  1.0000
  C   C78       1.0  0.5000013774767497  0.934181921737526  5.400102759999971e-08  1.0000
  C   C79       1.0  0.44462996480647393  0.9677645408808502  0.9998532886785582  1.0000
  C   C80       1.0  0.5553731893664776  0.9677641397486881  0.0001451317393801  1.0000
  C   C81       1.0  0.49999639726002704  0.7345104995795424  0.499996889652202  1.0000
  C   C82       1.0  0.5503651646503444  0.7681237399011068  0.4853177065215987  1.0000
  C   C83       1.0  0.5502009609630961  0.8325577176879047  0.48539070831115794  1.0000
  C   C84       1.0  0.44962864781015816  0.7681195748868884  0.5146791012818568  1.0000
  C   C85       1.0  0.4497958053246195  0.8325572548094936  0.5146086617483192  1.0000
  C   C86       1.0  0.49999981752981876  0.8660460034784094  0.5000020701475237  1.0000
  C   C87       1.0  0.49999759739950644  0.9343378375885151  0.5000010355161565  1.0000
  C   C88       1.0  0.4997832142831342  0.9677883379843872  0.5347552810682785  1.0000
  C   C89       1.0  0.5002102212623284  0.9677866221162077  0.4652466238433277  1.0000
  C   C90       1.0  0.499989273670984  0.2654963221816188  0.5000035681475055  1.0000
  C   C91       1.0  0.44962202597199763  0.23188479445872187  0.48532124342877125  1.0000
  C   C92       1.0  0.44978669178597397  0.16744711501407034  0.4853963282324898  1.0000
  C   C93       1.0  0.5503592057886877  0.2318818319109325  0.514680251060831  1.0000
  C   C94       1.0  0.5501952884748391  0.16744461411043687  0.5146072498427046  1.0000
  C   C95       1.0  0.49999094412046935  0.133958041534008  0.5000010009310217  1.0000
  C   C96       1.0  0.4999964038151958  0.0656638934453611  0.5000000029912004  1.0000
  C   C97       1.0  0.4997877931457708  0.0322120040868725  0.4652463389126851  1.0000
  C   C98       1.0  0.5002072365284249  0.032213721112846386  0.5347538331844462  1.0000
  C   C99       1.0  0.7337862188637275  0.5000007240368092  0.5000035922033848  1.0000
  C   C100      1.0  0.7675879454227188  0.5230228052494256  0.46835456518594754  1.0000
  C   C101      1.0  0.8320806125935648  0.5229372774323978  0.46847437263804187  1.0000
  C   C102      1.0  0.7675922270308606  0.4769778101403829  0.5316507580425666  1.0000
  C   C103      1.0  0.8320839699123681  0.4770625896404255  0.5315324657874925  1.0000
  C   C104      1.0  0.8657616670081651  0.5000013682076129  0.5000036503097007  1.0000
  C   C105      1.0  0.9341843821011934  0.5000019250223886  0.5000006262362221  1.0000
  C   C106      1.0  0.9677674199641472  0.44463043960404036  0.5001441954136397  1.0000
  C   C107      1.0  0.9677666478384808  0.5553753539142221  0.49985461593256275  1.0000
  C   C108      1.0  0.26621333584999723  0.500000081445492  0.5000038343419322  1.0000
  C   C109      1.0  0.2324102841749749  0.5230232940967809  0.5316532372406542  1.0000
  C   C110      1.0  0.1679171539785926  0.5229403646497558  0.531533429476525  1.0000
  C   C111      1.0  0.23241004119082487  0.4769781642650058  0.4683542600586891  1.0000
  C   C112      1.0  0.16791922414044794  0.477067395561697  0.46847168153765034  1.0000
  C   C113      1.0  0.1342411272846462  0.5000059163923183  0.5000011629489904  1.0000
  C   C114      1.0  0.06581794942412242  0.5000067479349111  0.49999867007406357  1.0000
  C   C115      1.0  0.032236761455770604  0.5553791602991962  0.5001419823887474  1.0000
  C   C116      1.0  0.0322342966051181  0.4446328548732624  0.49985373376328124  1.0000
  C   C117      1.0  0.6253218156122315  0.6249615570778033  0.29107066241228097  1.0000
  C   C118      1.0  0.6249593529215431  0.6253226115045363  0.2089241225041718  1.0000
  C   C119      1.0  0.3746786822312913  0.3750409785068668  0.2910732526664361  1.0000
  C   C120      1.0  0.3750418796578431  0.3746791486342999  0.20892525830932132  1.0000
  C   C121      1.0  0.374676694156804  0.6249576313018324  0.7089276461969051  1.0000
  C   C122      1.0  0.3750405462242414  0.6253203877560904  0.791074187446796  1.0000
  C   C123      1.0  0.6253200663255855  0.3750382044291952  0.7089255794933111  1.0000
  C   C124      1.0  0.6249596446760819  0.3746757606235889  0.7910718303051496  1.0000
  O   O1        1.0  0.4999959970789618  0.4999998939753211  1.5004725568999999e-06  1.0000
  O   O2        1.0  0.5464773022219802  0.6383071476254755  0.0157110505984619  1.0000
  O   O3        1.0  0.360762407416523  0.5247124295137622  0.9707370455146603  1.0000
  O   O4        1.0  0.47119124043925353  0.4558362356215112  0.0878693797467065  1.0000
  O   O5        1.0  0.4535175418754136  0.6383041866913428  0.9842861461249869  1.0000
  O   O6        1.0  0.5288050585538998  0.5441680841433153  0.08787002313074052  1.0000
  O   O7        1.0  0.3607688638155366  0.475276886141927  0.0292595468102022  1.0000
  O   O8        1.0  0.4535242700736077  0.36169186307252227  0.015717378883458404  1.0000
  O   O9        1.0  0.6392375648945361  0.475278472947501  0.9707422709435465  1.0000
  O   O10       1.0  0.5464786069275931  0.3616937855635172  0.9842869206468947  1.0000
  O   O11       1.0  0.6392349012718556  0.5247190128845672  0.0292646655170898  1.0000
  O   O12       1.0  0.4711876756400528  0.5441552347403871  0.9121300179418483  1.0000
  O   O13       1.0  0.5288109697134687  0.45583141209105793  0.9121274295740847  1.0000
  O   O14       1.0  0.5000025541350155  0.49999716316302306  0.4999996481393794  1.0000
  O   O15       1.0  0.3616933127369961  0.45352213159683413  0.4842875265069609  1.0000
  O   O16       1.0  0.4752815436887587  0.6392392281715897  0.529260410761033  1.0000
  O   O17       1.0  0.5441678877163838  0.5288053151373263  0.4121282289243667  1.0000
  O   O18       1.0  0.36169329991935945  0.5464773681149209  0.515713998791675  1.0000
  O   O19       1.0  0.45583800647835915  0.47119049569455024  0.4121308906677683  1.0000
  O   O20       1.0  0.5247230216403195  0.6392362431339933  0.47073795087083437  1.0000
  O   O21       1.0  0.6383086965103075  0.5464771371511006  0.4842880834266197  1.0000
  O   O22       1.0  0.5247121958021809  0.3607664814503479  0.5292659042866745  1.0000
  O   O23       1.0  0.6383079654412569  0.45352219729965515  0.5157168237422525  1.0000
  O   O24       1.0  0.47528142276228647  0.3607698396478654  0.4707415858502202  1.0000
  O   O25       1.0  0.4558317461889915  0.5288027836532193  0.5878708839956204  1.0000
  O   O26       1.0  0.5441623946782883  0.47119144654800493  0.5878709119173211  1.0000
  F   F1        1.0  0.2609128351564465  0.6011812511371345  0.9719095703266803  1.0000
  F   F2        1.0  0.1369886151150084  0.600236978688379  0.9716995617644031  1.0000
  F   F3        1.0  0.2609102987734531  0.39880269934972296  0.028094342231519003  1.0000
  F   F4        1.0  0.13698006313239122  0.3997674569515723  0.028309142513848005  1.0000
  F   F5        1.0  0.0626264451750629  0.5000138686077162  0.9310111158746395  1.0000
  F   F6        1.0  0.9373808243949996  0.49998036118897454  0.9310098667167923  1.0000
  F   F7        1.0  0.0626215070559937  0.4999713880186007  0.06898855839011732  1.0000
  F   F8        1.0  0.937375886393518  0.5000253487970738  0.06898789012648622  1.0000
  F   F9        1.0  0.8630173649736862  0.39976365150229043  0.9716935562444177  1.0000
  F   F10       1.0  0.7390912918240673  0.39880827400151025  0.9719121277099346  1.0000
  F   F11       1.0  0.8630181570033602  0.600237226126495  0.028299816466976303  1.0000
  F   F12       1.0  0.7390893116399512  0.6011941142088302  0.028088359614166305  1.0000
  F   F13       1.0  0.5440878893150156  0.2613133898760508  0.9363255535011136  1.0000
  F   F14       1.0  0.5445158009602126  0.1375782939336929  0.9369638375327368  1.0000
  F   F15       1.0  0.45590499320250893  0.2613188685683595  0.06367111407033119  1.0000
  F   F16       1.0  0.4554799810558593  0.13758145148044318  0.06303817775742711  1.0000
  F   F17       1.0  0.6099910587460897  0.06255734952681988  0.9999244887593619  1.0000
  F   F18       1.0  0.6099902531593528  0.9374391302817673  7.20974649084e-05  1.0000
  F   F19       1.0  0.3900100706394626  0.06255649321070678  7.55056681641e-05  1.0000
  F   F20       1.0  0.3900137432836673  0.9374384563733215  0.9999221451909222  1.0000
  F   F21       1.0  0.5445244075446425  0.8624161547456665  0.06303355985996721  1.0000
  F   F22       1.0  0.5441044804704732  0.738680132026836  0.0636671995278206  1.0000
  F   F23       1.0  0.4554793827316602  0.8624224711631849  0.9369624367123848  1.0000
  F   F24       1.0  0.45590452331304476  0.7386855180191317  0.9363254337817963  1.0000
  F   F25       1.0  0.3988091309596626  0.7390875324955174  0.5280902658971627  1.0000
  F   F26       1.0  0.39976497002572137  0.8630179337373461  0.5283085591515685  1.0000
  F   F27       1.0  0.6011896924325982  0.7390912478298475  0.4719110799169998  1.0000
  F   F28       1.0  0.6002328055377005  0.8630160908552257  0.4716946987985153  1.0000
  F   F29       1.0  0.4999662858528852  0.937381500979889  0.568990523493035  1.0000
  F   F30       1.0  0.5000141400877851  0.0626259720137909  0.5689886084896899  1.0000
  F   F31       1.0  0.5000108683329644  0.9373752962639085  0.43101155886459014  1.0000
  F   F32       1.0  0.49997125448247454  0.0626211555698646  0.4310113862130578  1.0000
  F   F33       1.0  0.600227852439005  0.1369863784609393  0.5283027928885105  1.0000
  F   F34       1.0  0.6011827678357093  0.2609098357461264  0.528089892793524  1.0000
  F   F35       1.0  0.3997586720498134  0.13698028226300343  0.4717006720316305  1.0000
  F   F36       1.0  0.3988008576784879  0.2609125320056335  0.4719088058513136  1.0000
  F   F37       1.0  0.7386887139284966  0.4559050286169678  0.5636740616846936  1.0000
  F   F38       1.0  0.8624218019165185  0.4554692430635612  0.563035618906575  1.0000
  F   F39       1.0  0.7386857022366584  0.5440904165830387  0.4363302018017947  1.0000
  F   F40       1.0  0.8624155461449731  0.5445205258983279  0.4369687897964313  1.0000
  F   F41       1.0  0.9374432265106306  0.39000859270672794  0.5000692329413782  1.0000
  F   F42       1.0  0.0625629679402948  0.3900161827404959  0.4999200727445797  1.0000
  F   F43       1.0  0.9374402898490645  0.6099920267093706  0.4999279429375179  1.0000
  F   F44       1.0  0.0625628067415178  0.609994527371853  0.5000682775129874  1.0000
  F   F45       1.0  0.13758179561005332  0.45548153571668587  0.4369664156663547  1.0000
  F   F46       1.0  0.2613176615322459  0.4559074738758184  0.4363311685084241  1.0000
  F   F47       1.0  0.13757487503624333  0.5445233643327895  0.5630385117655479  1.0000
  F   F48       1.0  0.2613135108478559  0.5440926755572519  0.5636773885119554  1.0000
