data_image0
_chemical_formula_structural       Cd2H44C48N16O12
_chemical_formula_sum              "Cd2 H44 C48 N16 O12"
_cell_length_a       8.140640261214102
_cell_length_b       11.834347296924722
_cell_length_c       13.76300638892911
_cell_angle_alpha    109.54408375345362
_cell_angle_beta     89.99939129763003
_cell_angle_gamma    89.99966758377764

_space_group_name_H-M_alt    "P 1"
_space_group_IT_number       1

loop_
  _space_group_symop_operation_xyz
  'x, y, z'

loop_
  _atom_site_type_symbol
  _atom_site_label
  _atom_site_symmetry_multiplicity
  _atom_site_fract_x
  _atom_site_fract_y
  _atom_site_fract_z
  _atom_site_occupancy
  Cd  Cd1       1.0  0.24076910620649267  0.2499993264143043  0.4999990949348216  1.0000
  Cd  Cd2       1.0  0.7592360644745993  0.7500064428362375  0.5000029298822993  1.0000
  H   H1        1.0  0.5449946097517113  0.1652245440225499  0.39815498563367396  1.0000
  H   H2        1.0  0.5450006578655363  0.3347738758115923  0.6018340050308523  1.0000
  H   H3        1.0  0.4550056473367404  0.8347812994091443  0.6018441548168383  1.0000
  H   H4        1.0  0.455005741288744  0.6652229472962362  0.3981645697278254  1.0000
  H   H5        1.0  0.5187209160867495  0.3052279252195973  0.3971627959532  1.0000
  H   H6        1.0  0.5187244308095059  0.19477240437122836  0.6028298437432936  1.0000
  H   H7        1.0  0.48128179780492525  0.6947797296798157  0.6028361691816214  1.0000
  H   H8        1.0  0.481278283105638  0.8052261746041509  0.39717071901558393  1.0000
  H   H9        1.0  0.05034406116282499  0.657333646768478  0.6077581391607224  1.0000
  H   H10       1.0  0.05035997718449179  0.8426721191139702  0.3922389881632142  1.0000
  H   H11       1.0  0.9496574243880075  0.34267144851744996  0.3922349596148891  1.0000
  H   H12       1.0  0.949651335569115  0.1573255633622566  0.6077613016641904  1.0000
  H   H13       1.0  0.2338365530054887  0.7233567606714144  0.762408966437384  1.0000
  H   H14       1.0  0.23384476295666445  0.7766351765633885  0.23758064871426401  1.0000
  H   H15       1.0  0.7661661610109289  0.2766347948873147  0.23758364438212  1.0000
  H   H16       1.0  0.7661518090245208  0.223359086962212  0.7624120597210151  1.0000
  H   H17       1.0  0.03321312889914199  0.07932124627220817  0.830680295869989  1.0000
  H   H18       1.0  0.0331980305801665  0.42068061550006053  0.16932377414600808  1.0000
  H   H19       1.0  0.9667957269092042  0.9206733018294102  0.16933648160307513  1.0000
  H   H20       1.0  0.9667850288999346  0.5793180747917076  0.8306724621141227  1.0000
  H   H21       1.0  0.8628371307978782  0.9986391449843166  0.67019696577794  1.0000
  H   H22       1.0  0.8628373735511445  0.5013727280731429  0.3298181264098545  1.0000
  H   H23       1.0  0.1371631260976756  0.0013679722400752  0.3298229111733447  1.0000
  H   H24       1.0  0.13716165509907793  0.49862753260649123  0.6701873087362742  1.0000
  H   H25       1.0  0.3204763206522756  0.8774567789930783  0.919646584686866  1.0000
  H   H26       1.0  0.32046900818566826  0.6225469493066812  0.08035117709219723  1.0000
  H   H27       1.0  0.6795362204610598  0.12254168870163798  0.0803583046116785  1.0000
  H   H28       1.0  0.6795091376771651  0.3774563160466115  0.9196428181828437  1.0000
  H   H29       1.0  0.24211414122447644  0.2729130382031855  0.089527108360933  1.0000
  H   H30       1.0  0.24211182053928576  0.22708489379758118  0.910463586451776  1.0000
  H   H31       1.0  0.7578971716126829  0.727083970295041  0.9104642554096214  1.0000
  H   H32       1.0  0.7578847514230276  0.7729111441230072  0.08953038887158016  1.0000
  H   H33       1.0  0.3469614343559897  0.3512694022982075  0.2693220021774323  1.0000
  H   H34       1.0  0.34696547783141085  0.1487340613946273  0.730669008470798  1.0000
  H   H35       1.0  0.6530523352473522  0.6487357114839085  0.7306703754502522  1.0000
  H   H36       1.0  0.6530482917256606  0.851266347558045  0.26933065783980936  1.0000
  H   H37       1.0  0.4696322898948536  0.9919490046716671  0.2544520438709554  1.0000
  H   H38       1.0  0.4696347829922374  0.5080537135893693  0.745541591106523  1.0000
  H   H39       1.0  0.5303544546529152  0.008057494246308703  0.7455567437894499  1.0000
  H   H40       1.0  0.5303581037060852  0.49194766607040197  0.25445546379964407  1.0000
  H   H41       1.0  0.36322736100164826  0.9129408144074844  0.07702775985193716  1.0000
  H   H42       1.0  0.3632308977421133  0.5870580280657266  0.9229718867987131  1.0000
  H   H43       1.0  0.6367520131548402  0.08705664569490781  0.9229811832696766  1.0000
  H   H44       1.0  0.6367632173407856  0.4129405509409096  0.077028675995976  1.0000
  C   C1        1.0  0.052884784636333386  0.7502906799888791  0.6583139924565982  1.0000
  C   C2        1.0  0.0528925647187819  0.7497159268417021  0.3416848288278159  1.0000
  C   C3        1.0  0.9471228428797575  0.24971516341603464  0.3416851479632185  1.0000
  C   C4        1.0  0.9471162912385009  0.2502817927251044  0.6583140188162915  1.0000
  C   C5        1.0  0.1529054613999037  0.7875559421825713  0.7450163446570244  1.0000
  C   C6        1.0  0.1529077510310941  0.7124446330059512  0.2549771217810886  1.0000
  C   C7        1.0  0.8471046230188363  0.2124373692035348  0.25497825411662217  1.0000
  C   C8        1.0  0.8470912777213258  0.2875522642919677  0.7450185686212266  1.0000
  C   C9        1.0  0.14577225032108743  0.907335159775371  0.8106310877172972  1.0000
  C   C10       1.0  0.14576321531788486  0.5926662525262641  0.18936703765931637  1.0000
  C   C11       1.0  0.8542415192536977  0.0926588997386446  0.18936955271079367  1.0000
  C   C12       1.0  0.8542308998161088  0.4073306447895104  0.8106286527634621  1.0000
  C   C13       1.0  0.041750879040343095  0.9856173779543196  0.7821215845916354  1.0000
  C   C14       1.0  0.04174321075532109  0.5143838568904114  0.21787857650854645  1.0000
  C   C15       1.0  0.9582604336483483  0.0143782890961859  0.21788681260565568  1.0000
  C   C16       1.0  0.9582509043595664  0.48561389981161784  0.7821188290034156  1.0000
  C   C17       1.0  0.9476511256458479  0.9413648175014374  0.6936466944647321  1.0000
  C   C18       1.0  0.9476537709542399  0.5586457280022117  0.306360207403486  1.0000
  C   C19       1.0  0.0523515881420096  0.05863979571856249  0.30636515282169086  1.0000
  C   C20       1.0  0.0523513997703517  0.4413537659729769  0.693639907144039  1.0000
  C   C21       1.0  0.23859315579645818  0.9456198568024448  0.9070209269779567  1.0000
  C   C22       1.0  0.2385898696997799  0.5543799843253224  0.0929761523403769  1.0000
  C   C23       1.0  0.7614157001407946  0.05437506211568888  0.0929814285597814  1.0000
  C   C24       1.0  0.7613968749821821  0.4456223289063317  0.9070197332934951  1.0000
  C   C25       1.0  0.2954229421250361  0.08779614050699538  0.06949545233908339  1.0000
  C   C26       1.0  0.2954273110640314  0.4122030671351026  0.9305003918862693  1.0000
  C   C27       1.0  0.7045724013297773  0.9122005157735839  0.9305096123365358  1.0000
  C   C28       1.0  0.7045668040826243  0.5877929522535865  0.06949430454408663  1.0000
  C   C29       1.0  0.29402030740642  0.21164934980841105  0.1256149347836057  1.0000
  C   C30       1.0  0.2940218128832797  0.2883499607435168  0.874377315652886  1.0000
  C   C31       1.0  0.7059824065409543  0.7883493218711023  0.8743820224914315  1.0000
  C   C32       1.0  0.7059747590725891  0.7116460586362479  0.12561738076723122  1.0000
  C   C33       1.0  0.3550709293049223  0.2557953278251119  0.22540320726876928  1.0000
  C   C34       1.0  0.3550746089010701  0.2442034833392625  0.7745906979363962  1.0000
  C   C35       1.0  0.6449317846431413  0.7442060888806025  0.7745924054029415  1.0000
  C   C36       1.0  0.6449305618681719  0.7557943104042405  0.2254052653359863  1.0000
  C   C37       1.0  0.4183090957763582  0.177087455321228  0.2731087526271949  1.0000
  C   C38       1.0  0.4183154375445568  0.3229162935240097  0.7268855421106294  1.0000
  C   C39       1.0  0.5816887045024116  0.82291655810193  0.7268912842357693  1.0000
  C   C40       1.0  0.581684819562298  0.6770859454952357  0.27311322785403297  1.0000
  C   C41       1.0  0.4227385164520072  0.0534642639472906  0.21721407695429915  1.0000
  C   C42       1.0  0.422742814052448  0.44653661497903135  0.7827851309849689  1.0000
  C   C43       1.0  0.5772457713176138  0.946537752640083  0.7827933462380655  1.0000
  C   C44       1.0  0.5772488442283715  0.5534647276035612  0.21721336611984296  1.0000
  C   C45       1.0  0.362338949534454  0.0095913946383348  0.11724004596374728  1.0000
  C   C46       1.0  0.36234844242828496  0.4904065042897726  0.8827520835900697  1.0000
  C   C47       1.0  0.6376465666519664  0.9904079140000234  0.8827672796332989  1.0000
  C   C48       1.0  0.6376419874861342  0.5095931195247658  0.1172429833414839  1.0000
  N   N1        1.0  0.95013722000553  0.8251585498117037  0.6332460490703723  1.0000
  N   N2        1.0  0.9501427153104416  0.67485031446094  0.3667552386097269  1.0000
  N   N3        1.0  0.04987040750962989  0.17484363355827529  0.36675488415389157  1.0000
  N   N4        1.0  0.049862455369264994  0.3251499647371999  0.6332494754140541  1.0000
  N   N5        1.0  0.2206247368293432  0.05184551810393859  0.9726428441419371  1.0000
  N   N6        1.0  0.22062426132796278  0.4481515809175961  0.027351362244232368  1.0000
  N   N7        1.0  0.7793755203074255  0.9481476635321041  0.027356802350006124  1.0000
  N   N8        1.0  0.77936494018185  0.5518480429014047  0.9726437046924373  1.0000
  N   N9        1.0  0.46635824446685337  0.2211381866493412  0.3772357829466272  1.0000
  N   N10       1.0  0.4663606960832354  0.27886074915764414  0.622756026013725  1.0000
  N   N11       1.0  0.5336420126089291  0.7788685347094382  0.6227643514963076  1.0000
  N   N12       1.0  0.5336420178574529  0.7211369889723115  0.3772421005591937  1.0000
  N   N13       1.0  0.2871193650781691  0.5256077122430298  0.49786807585849147  1.0000
  N   N14       1.0  0.2871223651502746  0.9743970437030921  0.5021345631959447  1.0000
  N   N15       1.0  0.7128796635676976  0.47440076497437633  0.5021340465743975  1.0000
  N   N16       1.0  0.7128791203791351  0.025599760881768005  0.49786473267997156  1.0000
  O   O1        1.0  0.20278400549245384  0.4301415055669365  0.4580842070188139  1.0000
  O   O2        1.0  0.20278352391187576  0.06986265384563951  0.541921705392447  1.0000
  O   O3        1.0  0.7972150231273928  0.5698659824784401  0.5419212480022537  1.0000
  O   O4        1.0  0.7972142764686296  0.9301361661783358  0.45806948312893064  1.0000
  O   O5        1.0  0.36544162437755295  0.5410817975391069  0.5812015168107862  1.0000
  O   O6        1.0  0.3654450329120633  0.9589250785101413  0.4188012885546683  1.0000
  O   O7        1.0  0.634566003113676  0.4589276317374313  0.4187987151916559  1.0000
  O   O8        1.0  0.6345662798532814  0.041068066004072507  0.5811998000847608  1.0000
  O   O9        1.0  0.28813778027338793  0.6033974725223245  0.4544467818686967  1.0000
  O   O10       1.0  0.2881418732358013  0.8966037272273227  0.5455533149222944  1.0000
  O   O11       1.0  0.711853877969915  0.39660833385897115  0.545553800811163  1.0000
  O   O12       1.0  0.7118534702075081  0.10339838202400387  0.45445050274019383  1.0000
