data_image0
_chemical_formula_structural       Ag4H48C52S8N12
_chemical_formula_sum              "Ag4 H48 C52 S8 N12"
_cell_length_a       5.780205150635726
_cell_length_b       15.909494779100806
_cell_length_c       15.56687344438377
_cell_angle_alpha    88.19702054056201
_cell_angle_beta     79.3005252325556
_cell_angle_gamma    80.24305280421461

_space_group_name_H-M_alt    "P 1"
_space_group_IT_number       1

loop_
  _space_group_symop_operation_xyz
  'x, y, z'

loop_
  _atom_site_type_symbol
  _atom_site_label
  _atom_site_symmetry_multiplicity
  _atom_site_fract_x
  _atom_site_fract_y
  _atom_site_fract_z
  _atom_site_occupancy
  Ag  Ag1       1.0  0.7758617424100224  0.9696457812958814  0.9127722935980387  1.0000
  Ag  Ag2       1.0  0.6524737728548615  0.031894153159711905  0.0888166239452133  1.0000
  Ag  Ag3       1.0  0.26651748906824935  0.08542513857553052  0.967456336456074  1.0000
  Ag  Ag4       1.0  0.31012463907955373  0.9136084199407791  0.0332310520827832  1.0000
  H   H1        1.0  0.11141923426594506  0.742150450211078  0.160545383411268  1.0000
  H   H2        1.0  0.03062716698733676  0.2563703747278652  0.8383938625911611  1.0000
  H   H3        1.0  0.14315600476280121  0.8390505079787689  0.7413438403273958  1.0000
  H   H4        1.0  0.7252368066073982  0.15973893378447465  0.2560571186936542  1.0000
  H   H5        1.0  0.15132505769066282  0.6322957707250156  0.1333596095761962  1.0000
  H   H6        1.0  0.9458663704976757  0.36660405403829804  0.8644767506899029  1.0000
  H   H7        1.0  0.2097370889193185  0.8632467670652989  0.628243463758487  1.0000
  H   H8        1.0  0.6969302550135835  0.13664483134785146  0.3695255596784222  1.0000
  H   H9        1.0  0.10493421360290996  0.5875025241180225  0.2850374517144019  1.0000
  H   H10       1.0  0.9997189991897883  0.41264821667459733  0.7139998576315065  1.0000
  H   H11       1.0  0.2890535696758291  0.7148382520005472  0.586807778604566  1.0000
  H   H12       1.0  0.6013953310971231  0.2841953292302293  0.4130029236435888  1.0000
  H   H13       1.0  0.4407017196267733  0.6274206665075752  0.4460221589044622  1.0000
  H   H14       1.0  0.528577417136532  0.37225385061980637  0.5552719148527316  1.0000
  H   H15       1.0  0.9068901930547922  0.558061276611582  0.6282160060223134  1.0000
  H   H16       1.0  0.1168457295145514  0.44010444160381484  0.3704663140201987  1.0000
  H   H17       1.0  0.26513485086455535  0.7256477498833224  0.335955208427194  1.0000
  H   H18       1.0  0.3415881179414981  0.27230293983944165  0.6651930778260251  1.0000
  H   H19       1.0  0.9968592789198565  0.667456320033047  0.7252581832185996  1.0000
  H   H20       1.0  0.4010520884748132  0.3314220205527931  0.2712164040843703  1.0000
  H   H21       1.0  0.5314295866898885  0.75607872486642  0.1960567351077671  1.0000
  H   H22       1.0  0.5018248506671058  0.241647379469022  0.8039827816085037  1.0000
  H   H23       1.0  0.7100735272687407  0.8050385060307477  0.7542672814867757  1.0000
  H   H24       1.0  0.26874976394897476  0.19459448476477806  0.2420530194891199  1.0000
  H   H25       1.0  0.6596546844109027  0.6665713646032289  0.0119872631069597  1.0000
  H   H26       1.0  0.35478182314407297  0.33420226010741777  0.979610961002578  1.0000
  H   H27       1.0  0.6783721854686247  0.9809895718618694  0.6590948453728345  1.0000
  H   H28       1.0  0.30949507152690353  0.022228857072349204  0.3422018434068548  1.0000
  H   H29       1.0  0.8050640214203778  0.5940888992362973  0.0813696936413635  1.0000
  H   H30       1.0  0.5133551063202332  0.40625596487151255  0.9142746240201518  1.0000
  H   H31       1.0  0.5829456538370866  0.9180937609654267  0.5851152052961055  1.0000
  H   H32       1.0  0.07494480826878196  0.08356531626987623  0.4149432703332394  1.0000
  H   H33       1.0  0.8102725091964231  0.5085842603162549  0.9365310804563121  1.0000
  H   H34       1.0  0.2536164270035001  0.48735525280419284  0.0586484169571051  1.0000
  H   H35       1.0  0.6867149341490943  0.0643646050015221  0.5072751382643901  1.0000
  H   H36       1.0  0.2585382576142974  0.9369668862752792  0.4907416585537092  1.0000
  H   H37       1.0  0.42921765232351555  0.49988770392106846  0.7511031042704985  1.0000
  H   H38       1.0  0.6398455655020497  0.503460009087668  0.255021569786507  1.0000
  H   H39       1.0  0.09204838990987699  0.24977323562740858  0.5024406154308423  1.0000
  H   H40       1.0  0.8429500269998795  0.7476792689438342  0.4990391249233426  1.0000
  H   H41       1.0  0.5355119703971025  0.6257063404827296  0.8178515533990307  1.0000
  H   H42       1.0  0.9543452331691425  0.3829173025435396  0.1911470303775502  1.0000
  H   H43       1.0  0.8521392849019094  0.18057692295909794  0.626384836521737  1.0000
  H   H44       1.0  0.6500218222255681  0.8159012229104762  0.3774516928540734  1.0000
  H   H45       1.0  0.25956993694203573  0.6967465815156191  0.948203233352892  1.0000
  H   H46       1.0  0.9082791626480285  0.31036067313348786  0.0560595446892407  1.0000
  H   H47       1.0  0.04391727184454906  0.04806999347563591  0.6937268957561287  1.0000
  H   H48       1.0  0.7735230195025904  0.9500510866379206  0.3094571855077248  1.0000
  C   C1        1.0  0.8398738036351003  0.7968177711999048  0.0511949490970238  1.0000
  C   C2        1.0  0.70079585837869  0.2038956296773692  0.9494421002588496  1.0000
  C   C3        1.0  0.3602933452094346  0.9484249790468984  0.7944817511365656  1.0000
  C   C4        1.0  0.10148487644993757  0.050881274837983916  0.2054538184356218  1.0000
  C   C5        1.0  0.01707240464000377  0.6901486288251352  0.1493073242484897  1.0000
  C   C6        1.0  0.8783846585271815  0.3090492427699588  0.849616231618981  1.0000
  C   C7        1.0  0.2880791879477869  0.8493813109692072  0.6874155389697734  1.0000
  C   C8        1.0  0.8233632119479279  0.14999957174448042  0.3106947449024418  1.0000
  C   C9        1.0  0.8413789100629142  0.674879781006361  0.2306273324624897  1.0000
  C   C10       1.0  0.767153168744031  0.32422948345293195  0.7688826421989958  1.0000
  C   C11       1.0  0.4747992269715481  0.7699068133624826  0.6730819469311554  1.0000
  C   C12       1.0  0.9217893296641645  0.22946320450283522  0.324959692600622  1.0000
  C   C13       1.0  0.9197596179342535  0.6204983337311208  0.2958185356965615  1.0000
  C   C14       1.0  0.8562059734771806  0.3793388605877724  0.7037783884628013  1.0000
  C   C15       1.0  0.4431726041825853  0.7049791231768483  0.6196929939626797  1.0000
  C   C16       1.0  0.7786319439115418  0.29400953042348027  0.3794652601735251  1.0000
  C   C17       1.0  0.5499589810555819  0.6420535097929233  0.3840153993109823  1.0000
  C   C18       1.0  0.5921572155063756  0.35739263838828367  0.6167334422564608  1.0000
  C   C19       1.0  0.7876678618125935  0.6190312436015406  0.6421311944620882  1.0000
  C   C20       1.0  0.0664070816851279  0.37954070288604674  0.3563445388034978  1.0000
  C   C21       1.0  0.4530173186165882  0.6965268228709365  0.3226990056556005  1.0000
  C   C22       1.0  0.48861646201087444  0.30200471875127743  0.6779864216163887  1.0000
  C   C23       1.0  0.8371555926141665  0.68006268965474  0.6958790592677032  1.0000
  C   C24       1.0  0.22415642431583643  0.3189418168192832  0.3013146592207931  1.0000
  C   C25       1.0  0.6014050061993355  0.7133560223089649  0.2448707062251074  1.0000
  C   C26       1.0  0.5778441405029183  0.28508564227992395  0.7552420311209644  1.0000
  C   C27       1.0  0.6776236858427254  0.7566331150610497  0.7118320039849806  1.0000
  C   C28       1.0  0.15029185998415787  0.24277651294455185  0.2852342321569878  1.0000
  C   C29       1.0  0.8326779651183995  0.6441221662376649  0.031891506810851  1.0000
  C   C30       1.0  0.5281081625009136  0.3564223504240403  0.9645503927109615  1.0000
  C   C31       1.0  0.5191522892634879  0.9651334480966302  0.6382080069672753  1.0000
  C   C32       1.0  0.11398210593880267  0.03596488787073331  0.3621943441198781  1.0000
  C   C33       1.0  0.012508734948958761  0.6074042716398868  0.9533038347250837  1.0000
  C   C34       1.0  0.5764249400354231  0.39388752486686956  0.0462094087145175  1.0000
  C   C35       1.0  0.38204788229013087  0.04503227155512232  0.6046115054911212  1.0000
  C   C36       1.0  0.025112954662162686  0.9548788820547788  0.3960235825978842  1.0000
  C   C37       1.0  0.9708438917205978  0.5361511755076978  0.9114046368343125  1.0000
  C   C38       1.0  0.4119224933136111  0.4626106519607661  0.0867788676677037  1.0000
  C   C39       1.0  0.4999347650595141  0.08881084144163512  0.5350074518004533  1.0000
  C   C40       1.0  0.12162489257591581  0.9114884643979907  0.4643645804245295  1.0000
  C   C41       1.0  0.31430952354419606  0.5308949706988033  0.8090931893150426  1.0000
  C   C42       1.0  0.6262975949544936  0.47205669299986425  0.1951905089070323  1.0000
  C   C43       1.0  0.170507628550041  0.19123826552328896  0.5320688202741835  1.0000
  C   C44       1.0  0.8910131760124359  0.8068902877394922  0.4691886431681098  1.0000
  C   C45       1.0  0.3731251943612366  0.6013297985162114  0.8462546202044976  1.0000
  C   C46       1.0  0.8014752352894517  0.4044002177457673  0.1596340480725331  1.0000
  C   C47       1.0  0.03680885865983899  0.15251813411170906  0.6013303060182906  1.0000
  C   C48       1.0  0.7834853363458334  0.8450766675115846  0.4012327074035298  1.0000
  C   C49       1.0  0.2194025572473567  0.6405470568057441  0.919169946126658  1.0000
  C   C50       1.0  0.775878701663103  0.364408775624689  0.0841605763967905  1.0000
  C   C51       1.0  0.14418849662776986  0.07842771781839282  0.63846624043844  1.0000
  C   C52       1.0  0.8519961670865253  0.9200764827314107  0.3637770864836369  1.0000
  S   S1        1.0  0.6937311561239456  0.8170887800863654  0.9638796394415579  1.0000
  S   S2        1.0  0.4833247145099263  0.18514658300799175  0.0361742598984236  1.0000
  S   S3        1.0  0.48909293913090574  0.03466053040326499  0.813180469471277  1.0000
  S   S4        1.0  0.33250770517236833  0.9655931892921858  0.1881730960476204  1.0000
  S   S5        1.0  0.9058440447041746  0.8753711376757993  0.110882183739399  1.0000
  S   S6        1.0  0.900565566731359  0.12462770705853643  0.8909571222075385  1.0000
  S   S7        1.0  0.2108992338793456  0.8921582407708261  0.8757586114794336  1.0000
  S   S8        1.0  0.9851968374431195  0.10657493368766073  0.1229008271162684  1.0000
  N   N1        1.0  0.9007768516648508  0.7141504702122392  0.0743620871162989  1.0000
  N   N2        1.0  0.7096841293559277  0.2863174133067049  0.9253505517883767  1.0000
  N   N3        1.0  0.38263939633709043  0.923513079279161  0.7102832569136268  1.0000
  N   N4        1.0  0.010721521022460911  0.07572631553536982  0.2892750956639745  1.0000
  N   N5        1.0  0.7801186755387729  0.6044837488578879  0.3712285930768502  1.0000
  N   N6        1.0  0.7736924664387818  0.3956188023556778  0.629014241638238  1.0000
  N   N7        1.0  0.5930927667978309  0.6308501549428345  0.6046415782497832  1.0000
  N   N8        1.0  0.8462270734645257  0.3677287494637654  0.3948370161417856  1.0000
  N   N9        1.0  0.11559780409895379  0.49815661818800566  0.8411187160286531  1.0000
  N   N10       1.0  0.4332540727305981  0.5014243200366266  0.159332012974609  1.0000
  N   N11       1.0  0.39992617979910955  0.15996852225388383  0.4988652259275668  1.0000
  N   N12       1.0  0.05849517573879116  0.839482229216124  0.5007702698135716  1.0000
