data_image0
_chemical_formula_structural       Cu4H68C92N24O16
_chemical_formula_sum              "Cu4 H68 C92 N24 O16"
_cell_length_a       11.509479217328652
_cell_length_b       15.377338501902917
_cell_length_c       17.733952129641985
_cell_angle_alpha    116.28845107438877
_cell_angle_beta     90.0194956187542
_cell_angle_gamma    111.95209793272957

_space_group_name_H-M_alt    "P 1"
_space_group_IT_number       1

loop_
  _space_group_symop_operation_xyz
  'x, y, z'

loop_
  _atom_site_type_symbol
  _atom_site_label
  _atom_site_symmetry_multiplicity
  _atom_site_fract_x
  _atom_site_fract_y
  _atom_site_fract_z
  _atom_site_occupancy
  Cu  Cu1       1.0  0.8401145595110932  0.6017313592173748  0.7712733268095134  1.0000
  Cu  Cu2       1.0  0.23844358836623764  0.398528069384369  0.7287642103996033  1.0000
  Cu  Cu3       1.0  0.1598871144633236  0.39826950313493376  0.22872554861416464  1.0000
  Cu  Cu4       1.0  0.7615631161072898  0.6014759057175355  0.2712329979351296  1.0000
  H   H1        1.0  0.883847532508774  0.5217353116701277  0.5682278186935648  1.0000
  H   H2        1.0  0.13912294891206756  0.6705038400229242  0.8037810754123382  1.0000
  H   H3        1.0  0.3410022838081233  0.6794391515817895  0.7447395189834792  1.0000
  H   H4        1.0  0.3190060256812827  0.5841235083330361  0.6364286857723866  1.0000
  H   H5        1.0  0.2167441772442373  0.8075675867221862  0.6964209253186907  1.0000
  H   H6        1.0  0.32318338985159295  0.9594406130546247  0.6700151040736981  1.0000
  H   H7        1.0  0.6112136942098585  0.8448712195026716  0.5766750868586354  1.0000
  H   H8        1.0  0.5067967710866909  0.6954057902508596  0.6057089871160812  1.0000
  H   H9        1.0  0.3854181041865629  0.045970813180034  0.5992814415687419  1.0000
  H   H10       1.0  0.5050611569485781  0.20032401942575725  0.577625356327445  1.0000
  H   H11       1.0  0.8500863941450801  0.15808588758747527  0.6040836957796925  1.0000
  H   H12       1.0  0.7323580452605825  0.007698241947551301  0.6286688190239856  1.0000
  H   H13       1.0  0.74188020757213  0.3547808826099866  0.615590027244174  1.0000
  H   H14       1.0  0.7264980746781617  0.2640478209583037  0.5065365530160832  1.0000
  H   H15       1.0  0.958522458705893  0.40937280949074756  0.7212596203618771  1.0000
  H   H16       1.0  0.1327640761583098  0.2658341596763947  0.522133086277897  1.0000
  H   H17       1.0  0.7295030801489374  0.6249667335717674  0.54679558371528  1.0000
  H   H18       1.0  0.3624095654346603  0.47844027175963794  0.9317349684665428  1.0000
  H   H19       1.0  0.46887783651194326  0.32963911106176624  0.6962222564318096  1.0000
  H   H20       1.0  0.6618371262992324  0.32068935841684276  0.7552249193229201  1.0000
  H   H21       1.0  0.7351578645062347  0.415959443104498  0.8635549523095135  1.0000
  H   H22       1.0  0.4096180737557232  0.19259826748046996  0.8033052528276556  1.0000
  H   H23       1.0  0.3640824457430085  0.040763202007965994  0.8297729561678365  1.0000
  H   H24       1.0  0.7664873635522085  0.15522624818387953  0.9235472519922182  1.0000
  H   H25       1.0  0.8116293568783702  0.30469109728575455  0.894440670232889  1.0000
  H   H26       1.0  0.3398512898681004  0.9542974056952714  0.9007494987700042  1.0000
  H   H27       1.0  0.30514099558280344  0.7998297966166277  0.9223375468312155  1.0000
  H   H28       1.0  0.6923571477323661  0.8420030144626409  0.895942543018428  1.0000
  H   H29       1.0  0.7249297173907435  0.9924030486145697  0.8713910503355535  1.0000
  H   H30       1.0  0.387540502841766  0.6453831749937464  0.8844910823509052  1.0000
  H   H31       1.0  0.46291617642066984  0.7361535096625785  0.9935479926650287  1.0000
  H   H32       1.0  0.5494149666657505  0.5907912740095965  0.778821135375402  1.0000
  H   H33       1.0  0.8673982669997357  0.7343635920071636  0.9778651530403693  1.0000
  H   H34       1.0  0.10522056515846853  0.3754268256856149  0.9533969336308701  1.0000
  H   H35       1.0  0.11615473049366898  0.4782632507856661  0.4317735893547478  1.0000
  H   H36       1.0  0.8608814504835037  0.3294955200988099  0.19622062816959127  1.0000
  H   H37       1.0  0.6589950351015331  0.3205529964518945  0.2552583858737591  1.0000
  H   H38       1.0  0.6809933105622079  0.41587093922620266  0.3635666866077614  1.0000
  H   H39       1.0  0.7832534620625111  0.1924286765790129  0.30358301505916063  1.0000
  H   H40       1.0  0.6768103675025896  0.040554837146189016  0.3299879708668242  1.0000
  H   H41       1.0  0.38878331614458256  0.15512726528628923  0.42332347186788866  1.0000
  H   H42       1.0  0.4931994336457705  0.3045910830298694  0.3942884109345925  1.0000
  H   H43       1.0  0.6145747212150283  0.954026248776323  0.4007227939492565  1.0000
  H   H44       1.0  0.4949325532100132  0.7996730737704425  0.4223800188504185  1.0000
  H   H45       1.0  0.14990818408725198  0.84190946839918  0.3959159603779838  1.0000
  H   H46       1.0  0.2676369710010534  0.9922962532752068  0.3713282625262622  1.0000
  H   H47       1.0  0.2581156070401746  0.6452169455251493  0.384413364245951  1.0000
  H   H48       1.0  0.2734958600592492  0.7359531993243991  0.49346802001832646  1.0000
  H   H49       1.0  0.041478888313669394  0.5906273960840878  0.2787440878745854  1.0000
  H   H50       1.0  0.8672315242899629  0.7341667192232391  0.47786635860683885  1.0000
  H   H51       1.0  0.2704984587964674  0.3750355992766643  0.4531993240870094  1.0000
  H   H52       1.0  0.6375854428421164  0.521554207781371  0.06826154327836782  1.0000
  H   H53       1.0  0.5311209825672306  0.6703577775297519  0.3037757115717525  1.0000
  H   H54       1.0  0.33816456364489506  0.6793115352989715  0.2447750957114322  1.0000
  H   H55       1.0  0.2648450059238669  0.584043812987531  0.1364448094199204  1.0000
  H   H56       1.0  0.5903820049444448  0.8073994032188809  0.19669244085500281  1.0000
  H   H57       1.0  0.6359184785034272  0.9592361586083769  0.170228747217358  1.0000
  H   H58       1.0  0.23351462283444155  0.8447787137541953  0.07645708914672877  1.0000
  H   H59       1.0  0.1883736166413214  0.6953106255831542  0.10556077989657803  1.0000
  H   H60       1.0  0.6601487104105955  0.045703582358363797  0.09925393499801767  1.0000
  H   H61       1.0  0.6948611570587389  0.20017202046643942  0.07766732208109771  1.0000
  H   H62       1.0  0.3076443686855583  0.15800274551232724  0.1040620935065917  1.0000
  H   H63       1.0  0.275069366905079  0.0075995825581003  0.1286146836206186  1.0000
  H   H64       1.0  0.6124581427112119  0.3546185798569256  0.11551150714332437  1.0000
  H   H65       1.0  0.5370884555385729  0.2638497932274007  0.006453478578791298  1.0000
  H   H66       1.0  0.45058177989914566  0.4092049423699962  0.2211810955372471  1.0000
  H   H67       1.0  0.13260574399206593  0.2656419480523268  0.022131506357460792  1.0000
  H   H68       1.0  0.8947891444954833  0.6245779469585743  0.04660057028666393  1.0000
  C   C1        1.0  0.9698401941783104  0.5587573730196809  0.6160536383979149  1.0000
  C   C2        1.0  0.09825374170859648  0.6351744556279681  0.7365067692838706  1.0000
  C   C3        1.0  0.30014940890753633  0.6532924501586804  0.6782979325463642  1.0000
  C   C4        1.0  0.35713227592376723  0.7427502131139787  0.6563473911807732  1.0000
  C   C5        1.0  0.3051508656594705  0.8167037790831485  0.6719783759873363  1.0000
  C   C6        1.0  0.36528623120678816  0.9027127740354074  0.6566039852748345  1.0000
  C   C7        1.0  0.4800636778240842  0.9185847395690343  0.6261302719644559  1.0000
  C   C8        1.0  0.527936635291688  0.8406941480203826  0.6065580430053995  1.0000
  C   C9        1.0  0.4675300103688825  0.7544815376381989  0.6216212729881077  1.0000
  C   C10       1.0  0.549128716741535  0.013523728394382298  0.615242992988655  1.0000
  C   C11       1.0  0.48823560878405187  0.0716166697316964  0.6026804929962138  1.0000
  C   C12       1.0  0.5556552095526399  0.15893478861922722  0.5900261070373247  1.0000
  C   C13       1.0  0.6867666299305525  0.19133001820745926  0.5895052116937548  1.0000
  C   C14       1.0  0.7482525864545195  0.13514593999794758  0.6034991863313761  1.0000
  C   C15       1.0  0.6809049307944192  0.04850182808894491  0.616623060678748  1.0000
  C   C16       1.0  0.7581528388341282  0.28421967364440087  0.5728830300175503  1.0000
  C   C17       1.0  0.9785787587893819  0.3649390230047658  0.6593572566276007  1.0000
  C   C18       1.0  0.06362695296115818  0.2916575011736739  0.5559334747824493  1.0000
  C   C19       1.0  0.6571190817016087  0.5299861077234312  0.6444149630240898  1.0000
  C   C20       1.0  0.5743449456606129  0.5154428325719209  0.5710927515557954  1.0000
  C   C21       1.0  0.4444543238563696  0.4445315071227469  0.5453772730854354  1.0000
  C   C22       1.0  0.6284868804661626  0.5703143693481962  0.5257121563715472  1.0000
  C   C23       1.0  0.37725430092550727  0.3897945614104045  0.5954648990500785  1.0000
  C   C24       1.0  0.4113635249775028  0.4414104262433013  0.8839300408879252  1.0000
  C   C25       1.0  0.4633213187537635  0.3649866021973764  0.763481271394731  1.0000
  C   C26       1.0  0.6471743995262641  0.3468263902375881  0.8216562940796946  1.0000
  C   C27       1.0  0.6147577647640218  0.2573781160445421  0.843592165400217  1.0000
  C   C28       1.0  0.4888456175865556  0.18348855650006607  0.827864476236847  1.0000
  C   C29       1.0  0.46289952259994027  0.09748488273240952  0.8432665697825853  1.0000
  C   C30       1.0  0.5617195305931445  0.0815425154643492  0.8738486743475207  1.0000
  C   C31       1.0  0.6874468578885669  0.15942065811524486  0.8935604772254138  1.0000
  C   C32       1.0  0.7133337360017862  0.24562211058393757  0.8784566315192919  1.0000
  C   C33       1.0  0.535861556086992  0.9865793355574652  0.884714236290307  1.0000
  C   C34       1.0  0.41694008799640175  0.928539931489205  0.8972774660391281  1.0000
  C   C35       1.0  0.3970557512052864  0.841167261045932  0.909891472451491  1.0000
  C   C36       1.0  0.4957828077380099  0.8087478633074313  0.9104488462955304  1.0000
  C   C37       1.0  0.6133943612298652  0.8649074352467638  0.8964433789910089  1.0000
  C   C38       1.0  0.6326621525865546  0.9515682011465925  0.88332887481738  1.0000
  C   C39       1.0  0.4743526002801204  0.7159324805654919  0.9271897122311614  1.0000
  C   C40       1.0  0.6139894710267768  0.6352453223262559  0.8406968225046326  1.0000
  C   C41       1.0  0.7724327876780206  0.7085340838605062  0.944073308882494  1.0000
  C   C42       1.0  0.12735934766594428  0.4703212209437098  0.8556820475265141  1.0000
  C   C43       1.0  0.05912753078312959  0.4847897514616619  0.9290288908260533  1.0000
  C   C44       1.0  0.9997550541446997  0.5554749807082473  0.9546421223249836  1.0000
  C   C45       1.0  0.058578935683755176  0.4299010877735086  0.9743830594213917  1.0000
  C   C46       1.0  0.9874407916870638  0.6102140267332103  0.904530790896807  1.0000
  C   C47       1.0  0.030163304490549877  0.44124192449869765  0.3839457859134824  1.0000
  C   C48       1.0  0.9017540776556741  0.36482653131278636  0.26349666492679086  1.0000
  C   C49       1.0  0.6998486916695368  0.34670126233798015  0.32169942357070613  1.0000
  C   C50       1.0  0.6428644227319892  0.2572459091751114  0.343651420899846  1.0000
  C   C51       1.0  0.6948470221806601  0.1832964583498011  0.3280264716630724  1.0000
  C   C52       1.0  0.634713737132479  0.09728815129121669  0.3433971692718316  1.0000
  C   C53       1.0  0.5199365910855391  0.08140983332056348  0.37386965890758717  1.0000
  C   C54       1.0  0.472057958910355  0.15930123932977117  0.3934427527629508  1.0000
  C   C55       1.0  0.5324640027900003  0.24551616529023332  0.3783775599609527  1.0000
  C   C56       1.0  0.4508692654897856  0.9864732230477956  0.384757254187079  1.0000
  C   C57       1.0  0.5117611777051181  0.9283796250566567  0.39732458694313516  1.0000
  C   C58       1.0  0.4443478278458953  0.8410670597036898  0.4099799015348466  1.0000
  C   C59       1.0  0.31323300346900845  0.8086702346599353  0.41050020586036595  1.0000
  C   C60       1.0  0.25174472447027796  0.8648461923539797  0.39649814872052497  1.0000
  C   C61       1.0  0.31909166477174716  0.9514958274232654  0.3833740630018383  1.0000
  C   C62       1.0  0.24184504102114343  0.7157805481067996  0.42712124782752875  1.0000
  C   C63       1.0  0.0214182994741989  0.6350595558746973  0.3406447209309533  1.0000
  C   C64       1.0  0.9363703770768338  0.7083433617968992  0.44406540039531706  1.0000
  C   C65       1.0  0.3428777856389686  0.47001383187989637  0.3555790582757083  1.0000
  C   C66       1.0  0.42565483246919905  0.48456119056445596  0.42890616580148583  1.0000
  C   C67       1.0  0.5555454462885904  0.5554725003318807  0.4546210744665017  1.0000
  C   C68       1.0  0.37151465120793137  0.4296896849043748  0.4742879006947759  1.0000
  C   C69       1.0  0.6227495014571857  0.6102070829260882  0.40453370210187234  1.0000
  C   C70       1.0  0.5886326877398175  0.5585864627191768  0.11606792696808547  1.0000
  C   C71       1.0  0.5366778120241023  0.635012648894012  0.2365164432547288  1.0000
  C   C72       1.0  0.35282869233918024  0.6531720936858038  0.1783422649911017  1.0000
  C   C73       1.0  0.3852433840612264  0.7426251716582968  0.15640873584153073  1.0000
  C   C74       1.0  0.5111551955854309  0.8165123216576547  0.1721349689429843  1.0000
  C   C75       1.0  0.5370991149681784  0.9025168564365059  0.1567354499063001  1.0000
  C   C76       1.0  0.43827871614126185  0.9184584414730846  0.12615361971145217  1.0000
  C   C77       1.0  0.31255132568053756  0.8405819104540695  0.10644297746022602  1.0000
  C   C78       1.0  0.28666576236876296  0.7543796127795728  0.12154481841344013  1.0000
  C   C79       1.0  0.46414190337113576  0.0134216206380557  0.11528805806376846  1.0000
  C   C80       1.0  0.5830589876010137  0.0714609469158205  0.10272197904234297  1.0000
  C   C81       1.0  0.6029459075129677  0.15883530702876664  0.09011198243087647  1.0000
  C   C82       1.0  0.5042205333743651  0.1912563318335998  0.0895563391172018  1.0000
  C   C83       1.0  0.3866069538502686  0.1350927076010677  0.1035580500241053  1.0000
  C   C84       1.0  0.3673399681155587  0.04843355320947039  0.11667371487357767  1.0000
  C   C85       1.0  0.5256512579965713  0.2840692735432597  0.07281287755816379  1.0000
  C   C86       1.0  0.38600676564510644  0.36475161368147013  0.15930285476739667  1.0000
  C   C87       1.0  0.2275721632512244  0.291469860125197  0.055922759743197  1.0000
  C   C88       1.0  0.8726469180647384  0.5296818778361967  0.14431201634626944  1.0000
  C   C89       1.0  0.9408735621481269  0.5152134264689181  0.07096802177832018  1.0000
  C   C90       1.0  0.00024651674013404667  0.44452741486718855  0.04535506469866144  1.0000
  C   C91       1.0  0.9414264460034757  0.5701037168524435  0.025615583860904685  1.0000
  C   C92       1.0  0.012562405697899211  0.3897898861362989  0.09546413801984238  1.0000
  N   N1        1.0  0.9747364963264147  0.5980878392188345  0.7026450864220095  1.0000
  N   N2        1.0  0.08306782123023031  0.5693846296273719  0.5953175424489386  1.0000
  N   N3        1.0  0.16287621860163168  0.6180145703134059  0.6725401954156779  1.0000
  N   N4        1.0  0.08741514884189877  0.35387418133986154  0.6433923655492321  1.0000
  N   N5        1.0  0.9469231424396793  0.2639057927973242  0.5180824537194367  1.0000
  N   N6        1.0  0.8949242406175484  0.31213732400218674  0.584674821236838  1.0000
  N   N7        1.0  0.3768759772414683  0.4020626108318766  0.7973283717251717  1.0000
  N   N8        1.0  0.5140013966457528  0.43078325184079347  0.9046735199520555  1.0000
  N   N9        1.0  0.5451769239296452  0.38215802701943585  0.8274562835582414  1.0000
  N   N10       1.0  0.7339107751985735  0.6463489472035631  0.8566216652634466  1.0000
  N   N11       1.0  0.6834701863444861  0.7362224282262132  0.9819668262227521  1.0000
  N   N12       1.0  0.5831870756929545  0.6879758210504717  0.9154080687358428  1.0000
  N   N13       1.0  0.025267089462324997  0.4019098937129115  0.29735488667873966  1.0000
  N   N14       1.0  0.9169366493155022  0.43061313454423106  0.4046835703116685  1.0000
  N   N15       1.0  0.837126577534832  0.38198158247361386  0.32745975661990195  1.0000
  N   N16       1.0  0.9125834488019392  0.6461274794203008  0.3566068051129675  1.0000
  N   N17       1.0  0.05307119838760601  0.7360943039944702  0.4819172654861957  1.0000
  N   N18       1.0  0.10507321646459636  0.687862052790514  0.41532745175696556  1.0000
  N   N19       1.0  0.6231207765947318  0.597931884143577  0.2026687099234437  1.0000
  N   N20       1.0  0.4859973432984076  0.5692152170191065  0.09532446906749209  1.0000
  N   N21       1.0  0.4548238812574822  0.6178428354565284  0.1725425918162458  1.0000
  N   N22       1.0  0.26608871447357524  0.35365102339230253  0.14337349579457737  1.0000
  N   N23       1.0  0.3165369960826182  0.263780764520547  0.018030656531244894  1.0000
  N   N24       1.0  0.4168154990081731  0.3120251039051922  0.08459308595836748  1.0000
  O   O1        1.0  0.7500839270841975  0.623236992345923  0.6883230096940093  1.0000
  O   O2        1.0  0.6361367631179178  0.45376735308070687  0.6602015451961591  1.0000
  O   O3        1.0  0.3610964035460639  0.4563974124943116  0.6674264014755379  1.0000
  O   O4        1.0  0.33493740217743806  0.2913588729808154  0.5657862900982663  1.0000
  O   O5        1.0  0.12723059255810645  0.3770990096651373  0.8118088629865736  1.0000
  O   O6        1.0  0.18243599273932173  0.5465274551120344  0.8398770728045405  1.0000
  O   O7        1.0  0.9049009832814715  0.5436426630773071  0.8324799176255481  1.0000
  O   O8        1.0  0.043502966336390565  0.7086517963041671  0.9342371668434167  1.0000
  O   O9        1.0  0.249920775311665  0.37676297750802956  0.3116721516591099  1.0000
  O   O10       1.0  0.36386141175279346  0.5462334627209628  0.3397956206147654  1.0000
  O   O11       1.0  0.6389086824121932  0.5436050609952758  0.3325736347715348  1.0000
  O   O12       1.0  0.6650638090995712  0.7086410660042476  0.4342077314474508  1.0000
  O   O13       1.0  0.8727714882197333  0.6229026662821653  0.18819087767769094  1.0000
  O   O14       1.0  0.8175690373249438  0.45347490860529394  0.16011897480515808  1.0000
  O   O15       1.0  0.09509738907000544  0.4563533335104636  0.16751433611072739  1.0000
  O   O16       1.0  0.9564928659620121  0.2913512882778235  0.0657563266338386  1.0000
