data_image0
_chemical_formula_structural       Zn2H12C32Br4N2O8
_chemical_formula_sum              "Zn2 H12 C32 Br4 N2 O8"
_cell_length_a       14.442792005005344
_cell_length_b       13.994692103256519
_cell_length_c       15.343407709174782
_cell_angle_alpha    89.99770802930117
_cell_angle_beta     90.24841505869436
_cell_angle_gamma    90.00055647404345

_space_group_name_H-M_alt    "P 1"
_space_group_IT_number       1

loop_
  _space_group_symop_operation_xyz
  'x, y, z'

loop_
  _atom_site_type_symbol
  _atom_site_label
  _atom_site_symmetry_multiplicity
  _atom_site_fract_x
  _atom_site_fract_y
  _atom_site_fract_z
  _atom_site_occupancy
  Zn  Zn1       1.0  0.4999995966167746  0.398366055322434  0.5000004892350205  1.0000
  Zn  Zn2       1.0  0.5000019161544031  0.6018667811285994  0.5000018016559054  1.0000
  H   H1        1.0  0.37427855201290333  0.9317935475310578  0.4227012618052441  1.0000
  H   H2        1.0  0.5530015848081932  0.0682434205822062  0.6321222935283045  1.0000
  H   H3        1.0  0.625728971120026  0.9317916168741717  0.5772903336104348  1.0000
  H   H4        1.0  0.4470035663386441  0.06825408605714502  0.3678692148251557  1.0000
  H   H5        1.0  0.3798174442293387  0.7529235459384935  0.4261169976028114  1.0000
  H   H6        1.0  0.5504600595193311  0.24724853882624842  0.6262902817162086  1.0000
  H   H7        1.0  0.6201870666096527  0.7529209860858259  0.5738801554493731  1.0000
  H   H8        1.0  0.4495384298993913  0.2472582732480149  0.37370476595976493  1.0000
  H   H9        1.0  0.6390159451565935  0.443755239797369  0.0604918700358539  1.0000
  H   H10       1.0  0.6393337907806966  0.5569934706460913  0.9406654333547166  1.0000
  H   H11       1.0  0.36094835765455  0.44378344148422855  0.9395118467441677  1.0000
  H   H12       1.0  0.3606620256106297  0.5570410833561823  0.0593437840152689  1.0000
  C   C1        1.0  0.49869312706305646  0.49702767378268226  0.3312042224609612  1.0000
  C   C2        1.0  0.5013014388574177  0.4970092420533733  0.6688007783284534  1.0000
  C   C3        1.0  0.3205485473959655  0.5036457811761822  0.4995384653352345  1.0000
  C   C4        1.0  0.6794522906858234  0.5036411584569934  0.5004565193540742  1.0000
  C   C5        1.0  0.4307331457115425  0.8954250619192123  0.4563497079882523  1.0000
  C   C6        1.0  0.5302597451973413  0.10462261029814358  0.573021467328438  1.0000
  C   C7        1.0  0.5692768074861121  0.8954232397072914  0.5436387272500127  1.0000
  C   C8        1.0  0.4697408974794329  0.10462819392544279  0.4269725443406927  1.0000
  C   C9        1.0  0.43282160053625773  0.7962088490623955  0.45806661910651053  1.0000
  C   C10       1.0  0.5289200366392423  0.20383312205257914  0.5707490417302026  1.0000
  C   C11       1.0  0.5671853780937469  0.7962077913283708  0.5419275740952401  1.0000
  C   C12       1.0  0.4710787442322443  0.20383719581136722  0.4292444150155674  1.0000
  C   C13       1.0  0.2205913882007451  0.5026370300005283  0.4996752532879185  1.0000
  C   C14       1.0  0.7794108163724902  0.5026312872587655  0.5003152110833824  1.0000
  C   C15       1.0  0.1355939863747579  0.5015540410895626  0.49981269623781793  1.0000
  C   C16       1.0  0.8644095905190597  0.5015441677229476  0.5001765094715154  1.0000
  C   C17       1.0  0.0427435069791358  0.5009054626629988  0.49994829054053713  1.0000
  C   C18       1.0  0.9572579920740978  0.5008986840306521  0.5000435422022207  1.0000
  C   C19       1.0  0.5000055581451406  0.9472391528975237  0.4999932241913285  1.0000
  C   C20       1.0  0.500003545093911  0.05275573649171152  0.499996705605156  1.0000
  C   C21       1.0  0.5779926617777491  0.46913812369495395  0.0949184719101765  1.0000
  C   C22       1.0  0.5785898716110865  0.5308075290502572  0.9057875615435051  1.0000
  C   C23       1.0  0.42198572718759664  0.4691455111066106  0.9050882136507497  1.0000
  C   C24       1.0  0.4214036270744543  0.5308457367579749  0.0942213526233573  1.0000
  C   C25       1.0  0.5765116429301927  0.46787718325545313  0.1856291139905011  1.0000
  C   C26       1.0  0.5778926160342125  0.5295968070984572  0.8150732404344012  1.0000
  C   C27       1.0  0.4234729660883332  0.4678797793390784  0.8143776344418256  1.0000
  C   C28       1.0  0.42211541851209233  0.5296584066701231  0.18493901207133226  1.0000
  C   C29       1.0  0.4990144278073814  0.49808225929721334  0.2328941450295616  1.0000
  C   C30       1.0  0.5009829185305819  0.49805616758376925  0.7671114735812523  1.0000
  C   C31       1.0  0.4998879946668282  0.5004427067999373  0.048244501418565684  1.0000
  C   C32       1.0  0.5000886079607056  0.5004375176955166  0.951764236990634  1.0000
  Br  Br1       1.0  0.6832673117282583  0.4233853085599506  0.2465006725936689  1.0000
  Br  Br2       1.0  0.685672529171832  0.5718867790394883  0.7550190831046348  1.0000
  Br  Br3       1.0  0.31671065385885566  0.4234086392763886  0.7535038579738823  1.0000
  Br  Br4       1.0  0.3143878247457081  0.572074121352081  0.24499427097936177  1.0000
  N   N1        1.0  0.5000032694765082  0.7476649156297912  0.499998353927559  1.0000
  N   N2        1.0  0.4999982310216994  0.25244858998605224  0.4999980735043081  1.0000
  O   O1        1.0  0.48031539865021955  0.41767817676472424  0.36722185532298823  1.0000
  O   O2        1.0  0.4830286191643794  0.5755582739204855  0.6315853453849627  1.0000
  O   O3        1.0  0.5196749727650883  0.41766357210322985  0.6327803167692565  1.0000
  O   O4        1.0  0.5169763603069769  0.5755732021213261  0.3684199222042039  1.0000
  O   O5        1.0  0.36033425080525217  0.4245728019954172  0.5161614585399619  1.0000
  O   O6        1.0  0.6410895759957782  0.5835130421063752  0.5171325883009885  1.0000
  O   O7        1.0  0.6396637956863882  0.42456703544835517  0.4838385111319639  1.0000
  O   O8        1.0  0.3589154613492269  0.5835166045123188  0.4828652049852735  1.0000
