data_image0
_chemical_formula_structural       Zn2H20C31N2O8
_chemical_formula_sum              "Zn2 H20 C31 N2 O8"
_cell_length_a       9.854165438026563
_cell_length_b       10.892011456123006
_cell_length_c       11.03603231368253
_cell_angle_alpha    91.63628556304653
_cell_angle_beta     90.24868806906424
_cell_angle_gamma    89.03379113424378

_space_group_name_H-M_alt    "P 1"
_space_group_IT_number       1

loop_
  _space_group_symop_operation_xyz
  'x, y, z'

loop_
  _atom_site_type_symbol
  _atom_site_label
  _atom_site_symmetry_multiplicity
  _atom_site_fract_x
  _atom_site_fract_y
  _atom_site_fract_z
  _atom_site_occupancy
  Zn  Zn1       1.0  0.6461311788089078  0.49979118711083703  0.5001856665185755  1.0000
  Zn  Zn2       1.0  0.355477290084707  0.4978345149732206  0.4999137305793013  1.0000
  H   H1        1.0  0.38990010848538514  0.0877857050220499  0.6772163515520192  1.0000
  H   H2        1.0  0.5580975726338195  0.0692204893043851  0.09821951268799721  1.0000
  H   H3        1.0  0.5320885714571304  0.26329857728196515  0.2182799544706739  1.0000
  H   H4        1.0  0.4782430872599335  0.6875895969462461  0.1202093075113453  1.0000
  H   H5        1.0  0.1307697659215776  0.37206712175821366  0.3765260959070389  1.0000
  H   H6        1.0  0.2524932528137214  0.6678472663591676  0.6653879456872289  1.0000
  H   H7        1.0  0.12451389614449941  0.8116992742732448  0.8029138623654646  1.0000
  H   H8        1.0  0.8714407442229445  0.8135884762733027  0.8022566880993197  1.0000
  H   H9        1.0  0.7456164330344422  0.6716199033857818  0.664202805330149  1.0000
  H   H10       1.0  0.8730708348716334  0.3737460323005591  0.37586994009208047  1.0000
  H   H11       1.0  0.6191909536957353  0.9238060153152147  0.6742417578748459  1.0000
  H   H12       1.0  0.7365288112935388  0.0652075472059011  0.4900455328996145  1.0000
  H   H13       1.0  0.6087814302616081  0.9093106850602479  0.3133256119277591  1.0000
  H   H14       1.0  0.3795546394200429  0.0737254576446773  0.31580074056589785  1.0000
  H   H15       1.0  0.2620528179495238  0.9319529507080374  0.5006555953279915  1.0000
  H   H16       1.0  0.5605706014555878  0.07211299511111949  0.8715416612785702  1.0000
  H   H17       1.0  0.4773638491976939  0.8037253993355548  0.9436873629329341  1.0000
  H   H18       1.0  0.5693525519167507  0.7397793167175661  0.8179967329087462  1.0000
  H   H19       1.0  0.39063953382706273  0.7322955540868108  0.8196995971545464  1.0000
  H   H20       1.0  0.5371727652652966  0.2682259958190016  0.7664203519341228  1.0000
  C   C1        1.0  0.5039922373211426  0.49633393697990874  0.7375269684991467  1.0000
  C   C2        1.0  0.4324074140929568  0.0387834588872735  0.39548739839647606  1.0000
  C   C3        1.0  0.3670328404300776  0.962870921360334  0.4980693572483262  1.0000
  C   C4        1.0  0.4935398214496445  0.8746332194598025  0.49632614785115703  1.0000
  C   C5        1.0  0.534650550149884  0.26747165874740375  0.8651788332363993  1.0000
  C   C6        1.0  0.5482848224078866  0.157970747542528  0.9241002084290245  1.0000
  C   C7        1.0  0.5468752991888053  0.1563089240949651  0.05234830190210721  1.0000
  C   C8        1.0  0.5321139716650763  0.26445038986846475  0.11944471919464664  1.0000
  C   C9        1.0  0.5177860514934736  0.37885360016133507  0.061515676348427924  1.0000
  C   C10       1.0  0.5187609142693149  0.38061900425262973  0.9316275810118954  1.0000
  C   C11       1.0  0.5047614210307074  0.4951701570168438  0.8735173095203523  1.0000
  C   C12       1.0  0.4954897263974517  0.73844182830004  0.49782535365465463  1.0000
  C   C13       1.0  0.49184611996951594  0.6052440826556235  0.9394875083889431  1.0000
  C   C14       1.0  0.4896347356618024  0.6015647208937409  0.0675440660513758  1.0000
  C   C15       1.0  0.5020001942433653  0.49234396203900826  0.12744176744678987  1.0000
  C   C16       1.0  0.14243087808922889  0.6693071653472628  0.6663260292792759  1.0000
  C   C17       1.0  0.0702493741928336  0.7488189581986049  0.741981779343142  1.0000
  C   C18       1.0  0.9266580181452114  0.7499261520878446  0.7415178148363992  1.0000
  C   C19       1.0  0.8556898290210742  0.6715674040946311  0.6654203623491385  1.0000
  C   C20       1.0  0.9268118912166515  0.5887428183042047  0.5863842179083321  1.0000
  C   C21       1.0  0.0727685770648634  0.587710521507276  0.5867568165696825  1.0000
  C   C22       1.0  0.0729898102435484  0.4341491543662457  0.436901272976968  1.0000
  C   C23       1.0  0.5008681290758616  0.49393235508574657  0.2635934400196406  1.0000
  C   C24       1.0  0.929709592098952  0.4350156077920388  0.4366263750560506  1.0000
  C   C25       1.0  0.5037817171891917  0.2595405048439474  0.4938936818392534  1.0000
  C   C26       1.0  0.5660374270918711  0.9588707547188448  0.5946538096847009  1.0000
  C   C27       1.0  0.438175055222068  0.0464031371997606  0.5964252959443215  1.0000
  C   C28       1.0  0.5049631102086352  0.12304241831052562  0.4936172942830552  1.0000
  C   C29       1.0  0.6314516319319524  0.03464739569107419  0.4921879533512339  1.0000
  C   C30       1.0  0.5602601083325425  0.95109159382406  0.3938747927873933  1.0000
  C   C31       1.0  0.4816764177735564  0.7266635709717518  0.8774245944246248  1.0000
  N   N1        1.0  0.14283799144818232  0.5084266658540173  0.5101552285935612  1.0000
  N   N2        1.0  0.8583849232568923  0.5100868749996365  0.509563419426769  1.0000
  O   O1        1.0  0.6185570253999869  0.5006981128580605  0.6855612009768778  1.0000
  O   O2        1.0  0.3887327908351921  0.4939098475257565  0.6855826585782766  1.0000
  O   O3        1.0  0.6122702711687324  0.6862949255320174  0.49655179357777274  1.0000
  O   O4        1.0  0.3819705268889919  0.684580357836488  0.5013662818517446  1.0000
  O   O5        1.0  0.616417896546416  0.4914449173411199  0.3155547343156186  1.0000
  O   O6        1.0  0.38524919875737856  0.49799412713453955  0.3143648183401808  1.0000
  O   O7        1.0  0.6180797755917168  0.31276198522342463  0.4982714168931324  1.0000
  O   O8        1.0  0.38678063150335623  0.3116850522753936  0.49088531083219084  1.0000
