data_image0
_chemical_formula_structural       Ag8H48C48S16O16
_chemical_formula_sum              "Ag8 H48 C48 S16 O16"
_cell_length_a       13.028910413024112
_cell_length_b       13.028883891014768
_cell_length_c       13.567977085037981
_cell_angle_alpha    89.9998350664237
_cell_angle_beta     90.00021492959996
_cell_angle_gamma    90.0000504449373

_space_group_name_H-M_alt    "P 1"
_space_group_IT_number       1

loop_
  _space_group_symop_operation_xyz
  'x, y, z'

loop_
  _atom_site_type_symbol
  _atom_site_label
  _atom_site_symmetry_multiplicity
  _atom_site_fract_x
  _atom_site_fract_y
  _atom_site_fract_z
  _atom_site_occupancy
  Ag  Ag1       1.0  0.8251181990693439  0.33261636766045655  0.7528678615708414  1.0000
  Ag  Ag2       1.0  0.6748791625013338  0.16738342219471747  0.7528663457801981  1.0000
  Ag  Ag3       1.0  0.6673803130138509  0.32511909124920624  0.2528623216283136  1.0000
  Ag  Ag4       1.0  0.832615092440008  0.17487912679336406  0.2528694597886271  1.0000
  Ag  Ag5       1.0  0.1748826306234221  0.6673861131369422  0.24713129497060746  1.0000
  Ag  Ag6       1.0  0.3251193646344248  0.8326228962189861  0.24713944401771926  1.0000
  Ag  Ag7       1.0  0.33262051667790615  0.6748810869718298  0.7471368349163183  1.0000
  Ag  Ag8       1.0  0.16738496973074038  0.8251210514251285  0.7471311708137163  1.0000
  H   H1        1.0  0.08000376258880948  0.30561060293316444  0.788754001563596  1.0000
  H   H2        1.0  0.09349892671628617  0.36160253666449904  0.6695983816075068  1.0000
  H   H3        1.0  0.15956223910527711  0.41799710977063154  0.7737797599510329  1.0000
  H   H4        1.0  0.0373108307175585  0.7956461369783623  0.9772515019028771  1.0000
  H   H5        1.0  0.11801114330855711  0.8593283569438414  0.0660729858971436  1.0000
  H   H6        1.0  0.0059926193997412985  0.793271934437229  0.10791404313787467  1.0000
  H   H7        1.0  0.41999684117530467  0.1943894068109415  0.7887547667978436  1.0000
  H   H8        1.0  0.40650197840663777  0.1383962950882776  0.6695985161107243  1.0000
  H   H9        1.0  0.34043984112309283  0.08200064226912929  0.7737805498173528  1.0000
  H   H10       1.0  0.46268941576986583  0.704353009275856  0.9772516561131821  1.0000
  H   H11       1.0  0.3819916786359343  0.6406696820972327  0.0660730259492297  1.0000
  H   H12       1.0  0.49400959871345396  0.7067275142743769  0.10791430343280688  1.0000
  H   H13       1.0  0.6943896611376559  0.5800027391503164  0.28875461967592025  1.0000
  H   H14       1.0  0.6383977987137681  0.5934982930635898  0.16959893351092595  1.0000
  H   H15       1.0  0.5820042137906469  0.659562097923626  0.2737800782554771  1.0000
  H   H16       1.0  0.20435440580843084  0.5373109403623602  0.4772513150584102  1.0000
  H   H17       1.0  0.1406723904264098  0.6180091728249905  0.5660727307083986  1.0000
  H   H18       1.0  0.20672936652320567  0.5059903345095834  0.607914171755439  1.0000
  H   H19       1.0  0.8056109301905534  0.9199950727087014  0.2887536125732452  1.0000
  H   H20       1.0  0.8616030939760364  0.9065014109048022  0.1695981651203269  1.0000
  H   H21       1.0  0.9180001565779817  0.8404403639600346  0.2737804324247647  1.0000
  H   H22       1.0  0.2956477221847534  0.9626904717070986  0.47725015405469395  1.0000
  H   H23       1.0  0.35932855000791614  0.8819896705070678  0.5660720219184936  1.0000
  H   H24       1.0  0.29327250512581315  0.9940091509693334  0.6079121785700394  1.0000
  H   H25       1.0  0.9199970671037078  0.6943880402358643  0.21124589201270538  1.0000
  H   H26       1.0  0.9065019029747956  0.6383961065056312  0.3304007749392496  1.0000
  H   H27       1.0  0.8404385905854568  0.5820007658740493  0.22621939659678242  1.0000
  H   H28       1.0  0.9626899989749587  0.20435250619067355  0.022748391673424396  1.0000
  H   H29       1.0  0.8819904539060699  0.14066951870117353  0.9339261706520572  1.0000
  H   H30       1.0  0.9940089778166693  0.20672670873213408  0.8920858504398053  1.0000
  H   H31       1.0  0.580004756045433  0.8056092363551173  0.21124733786847824  1.0000
  H   H32       1.0  0.5935003863365437  0.8616023480792235  0.33040285152743104  1.0000
  H   H33       1.0  0.659560988572643  0.9179987684231393  0.22622081781697995  1.0000
  H   H34       1.0  0.5373114139247689  0.2956471689429776  0.022748974490539794  1.0000
  H   H35       1.0  0.6180106861054638  0.3593281935459132  0.9339276046604464  1.0000
  H   H36       1.0  0.5059927660282852  0.2932711288942258  0.8920863271758034  1.0000
  H   H37       1.0  0.3056119360805312  0.4199966715434016  0.7112460109302532  1.0000
  H   H38       1.0  0.36160456602830493  0.4065011176304622  0.8304016970966185  1.0000
  H   H39       1.0  0.41799891847566056  0.34043808029622363  0.7262205523523874  1.0000
  H   H40       1.0  0.7956479589307646  0.46268847033390154  0.5227478414900445  1.0000
  H   H41       1.0  0.8593284392643311  0.3819887028196974  0.43392642583941654  1.0000
  H   H42       1.0  0.7932729982156486  0.4940083086612219  0.3920849847940743  1.0000
  H   H43       1.0  0.19438989949908594  0.08000357046253727  0.7112448069439665  1.0000
  H   H44       1.0  0.1383985032396069  0.093498767316575  0.8304009914256836  1.0000
  H   H45       1.0  0.0820029756857821  0.15956058178746702  0.7262187241229512  1.0000
  H   H46       1.0  0.7043538750312307  0.03731047403973519  0.5227490024902578  1.0000
  H   H47       1.0  0.6406699771100504  0.118008972663155  0.43392639759457535  1.0000
  H   H48       1.0  0.7067283245630589  0.005991027253912802  0.39208550391550284  1.0000
  C   C1        1.0  0.12001582860595758  0.6211878139264896  0.8598954141749926  1.0000
  C   C2        1.0  0.05587013230128689  0.5585169224232375  0.9316606894541831  1.0000
  C   C3        1.0  0.9911508502865871  0.4796710300638338  0.897837246490553  1.0000
  C   C4        1.0  0.06391817459556388  0.5797395834344242  0.03313984693045308  1.0000
  C   C5        1.0  0.0904873251971665  0.37778722575203  0.7488872554130521  1.0000
  C   C6        1.0  0.0671825861801238  0.7935890320626413  0.05272832840961429  1.0000
  C   C7        1.0  0.37998933141398084  0.8788147541077648  0.859888892239745  1.0000
  C   C8        1.0  0.4441268657288262  0.9414846630231751  0.9316601211585362  1.0000
  C   C9        1.0  0.5088509160669474  0.0203313954763118  0.897840699371599  1.0000
  C   C10       1.0  0.43607761078850865  0.9202593218186337  0.0331378343173938  1.0000
  C   C11       1.0  0.40951389012437284  0.12221136840370408  0.7488889195646207  1.0000
  C   C12       1.0  0.43281864850857227  0.7064105820179805  0.05272763245865519  1.0000
  C   C13       1.0  0.3788108577640655  0.6200128279740795  0.359894299742109  1.0000
  C   C14       1.0  0.4414808305522158  0.5558691109380831  0.4316605421558463  1.0000
  C   C15       1.0  0.5203284650936338  0.49114991513422274  0.3978384875465365  1.0000
  C   C16       1.0  0.4202597645708224  0.5639179889718379  0.5331391430233267  1.0000
  C   C17       1.0  0.6222131762244983  0.590487164792144  0.24888928422630124  1.0000
  C   C18       1.0  0.20641229814999212  0.5671821512569297  0.5527275252123045  1.0000
  C   C19       1.0  0.12118083328849848  0.8799927733908034  0.3598905288296378  1.0000
  C   C20       1.0  0.058511908789831986  0.94412860011726  0.4316585795513602  1.0000
  C   C21       1.0  0.9796644374316372  0.008852473638981501  0.3978385064260691  1.0000
  C   C22       1.0  0.0797379769215141  0.9360794179975328  0.533137279015129  1.0000
  C   C23       1.0  0.8777864916168312  0.9095138366294364  0.24888709165951883  1.0000
  C   C24       1.0  0.29358859007376736  0.9328190346430177  0.5527257023790922  1.0000
  C   C25       1.0  0.8799850010851175  0.37881082924364046  0.14010374237176385  1.0000
  C   C26       1.0  0.9441299298659018  0.4414817207465589  0.06833846709119477  1.0000
  C   C27       1.0  0.008849979405589199  0.5203268455797458  0.10216264708680706  1.0000
  C   C28       1.0  0.9360826550969535  0.4202590597346046  0.9668600466458482  1.0000
  C   C29       1.0  0.9095127369685797  0.6222114174188675  0.2511111641027738  1.0000
  C   C30       1.0  0.9328159409399601  0.20641114615738598  0.9472708281308752  1.0000
  C   C31       1.0  0.6200053580888605  0.12118388905746258  0.14011173835505986  1.0000
  C   C32       1.0  0.5558701263489069  0.05851474766630099  0.06834198349844199  1.0000
  C   C33       1.0  0.4911476110593256  0.979666480161839  0.10216214231981267  1.0000
  C   C34       1.0  0.5639201488124357  0.07973855382028458  0.9668642703430873  1.0000
  C   C35       1.0  0.5904877070978003  0.8777872747612465  0.25111392213124617  1.0000
  C   C36       1.0  0.5671837162346095  0.2935880611495135  0.9472737351795001  1.0000
  C   C37       1.0  0.6211884368838909  0.37998658271752106  0.6401070678894596  1.0000
  C   C38       1.0  0.5585184640939644  0.4441295322291695  0.5683400884472362  1.0000
  C   C39       1.0  0.479671597078557  0.5088502630831612  0.6021628800853518  1.0000
  C   C40       1.0  0.5797395300745973  0.4360821892474219  0.46686075054809334  1.0000
  C   C41       1.0  0.3777884209983569  0.40951301342371244  0.7511135574674481  1.0000
  C   C42       1.0  0.793588531541424  0.43281725943865723  0.4472716313333861  1.0000
  C   C43       1.0  0.878811553642919  0.12000970740177047  0.6401093647261715  1.0000
  C   C44       1.0  0.9414827807108067  0.05587157810107611  0.568340576982223  1.0000
  C   C45       1.0  0.020329484545783295  0.9911492396299267  0.6021606501040182  1.0000
  C   C46       1.0  0.9202574801047875  0.0639215277454852  0.4668626145483258  1.0000
  C   C47       1.0  0.12221357054738038  0.09048787664548293  0.7511098537929752  1.0000
  C   C48       1.0  0.7064114720918936  0.06718267863080031  0.4472719801029398  1.0000
  S   S1        1.0  0.981691623812985  0.4621179136110527  0.7678208195415193  1.0000
  S   S2        1.0  0.148797982732134  0.681504236517803  0.06579542699751778  1.0000
  S   S3        1.0  0.5183119364580405  0.0378856690601594  0.7678235208778261  1.0000
  S   S4        1.0  0.3512002329798562  0.8184922683040698  0.06579412753496428  1.0000
  S   S5        1.0  0.5378814779588906  0.4816911339904734  0.26782062392614137  1.0000
  S   S6        1.0  0.3184954083270881  0.6487977674876646  0.565796621859519  1.0000
  S   S7        1.0  0.9621132184816473  0.0183139469669058  0.2678212905424431  1.0000
  S   S8        1.0  0.18150553101730074  0.8512010766792244  0.5657909364300976  1.0000
  S   S9        1.0  0.018309973401983398  0.5378807295594185  0.23217833700661564  1.0000
  S   S10       1.0  0.8512036144807169  0.3184928716028637  0.9342029925231968  1.0000
  S   S11       1.0  0.4816888932388039  0.9621129741055583  0.23217858378711032  1.0000
  S   S12       1.0  0.6488005967177555  0.18150483980963372  0.9342087141616485  1.0000
  S   S13       1.0  0.4621193517332003  0.5183098117560193  0.732178532617432  1.0000
  S   S14       1.0  0.6815054213675464  0.3512024107311619  0.43420400874421  1.0000
  S   S15       1.0  0.0378837735902238  0.981688533829903  0.7321771289625545  1.0000
  S   S16       1.0  0.8184914610531349  0.1488014041186858  0.43420674604535475  1.0000
  O   O1        1.0  0.0826212889869424  0.7076342245741216  0.8362520565698615  1.0000
  O   O2        1.0  0.20416170573653858  0.5812734970992395  0.8333610829546101  1.0000
  O   O3        1.0  0.41738224348517866  0.7923753220413873  0.836242960059735  1.0000
  O   O4        1.0  0.29583490771365456  0.9187337555966407  0.8333541479608327  1.0000
  O   O5        1.0  0.2923684169614944  0.5826228229527928  0.3362502881230043  1.0000
  O   O6        1.0  0.4187312954727814  0.7041643758755783  0.3333611915028242  1.0000
  O   O7        1.0  0.20762471663812923  0.9173882219437887  0.3362452506712542  1.0000
  O   O8        1.0  0.081267967008003  0.7958374673780498  0.33335456161029947  1.0000
  O   O9        1.0  0.9173772381328005  0.292365186120449  0.16374709997168674  1.0000
  O   O10       1.0  0.7958368213828704  0.41872514606988176  0.166638073588004  1.0000
  O   O11       1.0  0.5826124460157088  0.20762869380531163  0.16375545943900244  1.0000
  O   O12       1.0  0.7041605493194253  0.0812694927183202  0.16664869371761878  1.0000
  O   O13       1.0  0.7076331802562663  0.4173788903183819  0.6637496054504336  1.0000
  O   O14       1.0  0.5812710692714091  0.29583656986827134  0.6666401761321478  1.0000
  O   O15       1.0  0.7923761130598875  0.08261963152956041  0.6637553799218592  1.0000
  O   O16       1.0  0.9187328626746732  0.20416501342707247  0.6666394357243204  1.0000
