data_image0
_chemical_formula_structural       Cu12H72C135N24
_chemical_formula_sum              "Cu12 H72 C135 N24"
_cell_length_a       30.9795564782161
_cell_length_b       31.268552818536964
_cell_length_c       32.034744104574735
_cell_angle_alpha    90.2668645274246
_cell_angle_beta     89.89380401044096
_cell_angle_gamma    89.64240455571733

_space_group_name_H-M_alt    "P 1"
_space_group_IT_number       1

loop_
  _space_group_symop_operation_xyz
  'x, y, z'

loop_
  _atom_site_type_symbol
  _atom_site_label
  _atom_site_symmetry_multiplicity
  _atom_site_fract_x
  _atom_site_fract_y
  _atom_site_fract_z
  _atom_site_occupancy
  Cu  Cu1       1.0  0.7736859100534231  0.8458634844776681  0.7698646972759986  1.0000
  Cu  Cu2       1.0  0.767536999307694  0.7697410879846133  0.8344397168713511  1.0000
  Cu  Cu3       1.0  0.8490253288386852  0.7772067256052467  0.7745260645944754  1.0000
  Cu  Cu4       1.0  0.22528621192937948  0.1546238038860892  0.7707828979777744  1.0000
  Cu  Cu5       1.0  0.22924149977983177  0.23248783194005546  0.8344858459515976  1.0000
  Cu  Cu6       1.0  0.14752755494617284  0.22060898147183391  0.7760335247094474  1.0000
  Cu  Cu7       1.0  0.7706409384423552  0.1587569560473625  0.23226735037712834  1.0000
  Cu  Cu8       1.0  0.7650551392509256  0.23642710993048152  0.16918636799393025  1.0000
  Cu  Cu9       1.0  0.8479301593274258  0.22407529746122634  0.22617701102155507  1.0000
  Cu  Cu10      1.0  0.23285509973185728  0.8390202207211458  0.22836187966457536  1.0000
  Cu  Cu11      1.0  0.23274510914384183  0.7686776623703225  0.1567015523850444  1.0000
  Cu  Cu12      1.0  0.1609940130603889  0.7671949352473889  0.2283614698131657  1.0000
  H   H1        1.0  0.7006116118931941  0.9074989781152496  0.8051473604206976  1.0000
  H   H2        1.0  0.686464709889286  0.7991477689743788  0.8877391492526596  1.0000
  H   H3        1.0  0.907688694762264  0.8070018208152588  0.698977219862975  1.0000
  H   H4        1.0  0.8010256165305734  0.8966379604839076  0.688809742423622  1.0000
  H   H5        1.0  0.7916353154025585  0.6852657609014444  0.8836145066412087  1.0000
  H   H6        1.0  0.9092157716940931  0.7053079588255358  0.8131901959348082  1.0000
  H   H7        1.0  0.30056138347542577  0.09628063860043308  0.8062545368012406  1.0000
  H   H8        1.0  0.3120747880624393  0.2072187084707764  0.8868561615091648  1.0000
  H   H9        1.0  0.08953687521430712  0.1878985825349986  0.7013390554969589  1.0000
  H   H10       1.0  0.1991953494217782  0.10192258213142939  0.6898902282047954  1.0000
  H   H11       1.0  0.20263920460814694  0.317290212336431  0.8828627639335309  1.0000
  H   H12       1.0  0.08496984201951821  0.291125697773353  0.8147712376843046  1.0000
  H   H13       1.0  0.6964955801752168  0.0998489002690519  0.1965447978298869  1.0000
  H   H14       1.0  0.6831250036295913  0.21023726775051443  0.1162831707708847  1.0000
  H   H15       1.0  0.9082109793104179  0.18996643853673584  0.2987141738092589  1.0000
  H   H16       1.0  0.7984900898907056  0.10585536427917219  0.3121998827943528  1.0000
  H   H17       1.0  0.7898658673609374  0.3216251170183924  0.12177762723520397  1.0000
  H   H18       1.0  0.9090626398972858  0.2944718486943998  0.1872663951742837  1.0000
  H   H19       1.0  0.31013671940367976  0.896974095974855  0.19883320245364183  1.0000
  H   H20       1.0  0.3101056784817047  0.8015626158244589  0.10034305401415367  1.0000
  H   H21       1.0  0.10485540265498373  0.7967106428541656  0.30636760366539306  1.0000
  H   H22       1.0  0.20312450886497402  0.8946989352964393  0.3057370389165114  1.0000
  H   H23       1.0  0.2016796039971709  0.6915476517518826  0.10050181408796277  1.0000
  H   H24       1.0  0.10371164843314058  0.6901701576485593  0.1971156596666006  1.0000
  H   H25       1.0  0.5937955932753312  0.9838888387593131  0.883380019884676  1.0000
  H   H26       1.0  0.6475574052459339  0.9436807834398878  0.8418777204735617  1.0000
  H   H27       1.0  0.6326200783493404  0.835355679750883  0.923522335795468  1.0000
  H   H28       1.0  0.5789075595792709  0.8757907922644038  0.964918666993796  1.0000
  H   H29       1.0  0.4112941869660033  0.1276469174795096  0.9719705283677982  1.0000
  H   H30       1.0  0.35649178701849144  0.1663921500294947  0.9307915280892514  1.0000
  H   H31       1.0  0.3654551834721218  0.06988938547164741  0.8344033075747319  1.0000
  H   H32       1.0  0.41946484164792264  0.0307314885869587  0.8762141909497528  1.0000
  H   H33       1.0  0.5795946155881352  0.03284736362636661  0.1256473184358597  1.0000
  H   H34       1.0  0.6322619470504732  0.0729298654850439  0.16794501004419257  1.0000
  H   H35       1.0  0.640990128545951  0.16794513596296676  0.0711256991844849  1.0000
  H   H36       1.0  0.5874759475722441  0.12831086061922292  0.0294396814315832  1.0000
  H   H37       1.0  0.42746864594197825  0.873570075619064  0.0344796582630877  1.0000
  H   H38       1.0  0.3743772724847005  0.8317837133947137  0.0744849263571155  1.0000
  H   H39       1.0  0.35407521185074126  0.9394667230428625  0.1570572772986623  1.0000
  H   H40       1.0  0.4079291597963676  0.9806893726400503  0.11755260224462917  1.0000
  H   H41       1.0  0.87243778946236  0.9653173339203253  0.5756858519691831  1.0000
  H   H42       1.0  0.8339920620058977  0.927585763976275  0.631832591485441  1.0000
  H   H43       1.0  0.9405351980163844  0.83874000591549  0.6423614954095384  1.0000
  H   H44       1.0  0.9788071304145732  0.8766661817076767  0.5862343140887843  1.0000
  H   H45       1.0  0.0310600311304938  0.8713892794672377  0.4158128643352156  1.0000
  H   H46       1.0  0.0709541423207298  0.8311664883529064  0.361623394315984  1.0000
  H   H47       1.0  0.1685910640817525  0.9290059133482772  0.3602497160838922  1.0000
  H   H48       1.0  0.1285210493242488  0.9690490894826098  0.4144141930248537  1.0000
  H   H49       1.0  0.020493849798370396  0.11615019570032811  0.5884601232621803  1.0000
  H   H50       1.0  0.0577447660954178  0.15528442968765432  0.6446976221126376  1.0000
  H   H51       1.0  0.166689977085241  0.06929428270213833  0.6332718060911302  1.0000
  H   H52       1.0  0.1292135762092812  0.030274348362816294  0.5770886211416267  1.0000
  H   H53       1.0  0.9808035366936707  0.11603077243502469  0.4077628788971381  1.0000
  H   H54       1.0  0.9418195312913012  0.1561901976121689  0.35343481756248707  1.0000
  H   H55       1.0  0.8326045133754718  0.07246359868466361  0.367709479933076  1.0000
  H   H56       1.0  0.8718058489439784  0.0324691208800303  0.4220655092975106  1.0000
  H   H57       1.0  0.8696206932447481  0.5854396635409246  0.96960964817724  1.0000
  H   H58       1.0  0.8316761712508337  0.6409092337928611  0.9289094548213013  1.0000
  H   H59       1.0  0.9349847021004933  0.639313039950018  0.8384248111927162  1.0000
  H   H60       1.0  0.9733140536772921  0.5846173006026021  0.8798130535309169  1.0000
  H   H61       1.0  0.8680094944868344  0.42064833560770865  0.035791343050576095  1.0000
  H   H62       1.0  0.8297072130993824  0.36572223166388085  0.07637326944133348  1.0000
  H   H63       1.0  0.9359672967836731  0.36021321019612174  0.16304608779316243  1.0000
  H   H64       1.0  0.9746662159201803  0.4142753944916747  0.1216838680278798  1.0000
  H   H65       1.0  0.03583388828366199  0.5722951991261739  0.1288481688928371  1.0000
  H   H66       1.0  0.0778206618754211  0.6255829839688475  0.16842516494998694  1.0000
  H   H67       1.0  0.15671983697554737  0.6480880089404338  0.05969949600709869  1.0000
  H   H68       1.0  0.11528937565875448  0.5940581333040457  0.0205797523238829  1.0000
  H   H69       1.0  0.12325786173403229  0.41755782369711614  0.9677849553385441  1.0000
  H   H70       1.0  0.16224292422290174  0.3620178962571218  0.9274627764449687  1.0000
  H   H71       1.0  0.0565532728325095  0.3561980699778005  0.8401449686463209  1.0000
  H   H72       1.0  0.0172522978016261  0.41097088410980137  0.8812039930853075  1.0000
  C   C1        1.0  0.7023076128409542  0.877468766999229  0.8218915365616722  1.0000
  C   C2        1.0  0.6781885055754489  0.8632665424364347  0.8563153841853575  1.0000
  C   C3        1.0  0.6950863400686913  0.8222126910709164  0.8640122694307094  1.0000
  C   C4        1.0  0.878391577483434  0.8259487521544172  0.7019532726980912  1.0000
  C   C5        1.0  0.8633458905278244  0.8602759482091642  0.6776422994743214  1.0000
  C   C6        1.0  0.8239932952248948  0.8716710783625672  0.6967606703294391  1.0000
  C   C7        1.0  0.8173120308226843  0.6957222673288681  0.8630671376977899  1.0000
  C   C8        1.0  0.8594089366109472  0.6794725832298739  0.8579079154638831  1.0000
  C   C9        1.0  0.8771285389428768  0.7056735521203377  0.8267963108724103  1.0000
  C   C10       1.0  0.29816448192432427  0.1268138918946136  0.8223282283137434  1.0000
  C   C11       1.0  0.3220240726709989  0.14261356092387706  0.8562963867428479  1.0000
  C   C12       1.0  0.3037484992218539  0.1832161971826451  0.8637301858353152  1.0000
  C   C13       1.0  0.1195036303041377  0.17000677910142062  0.7039821375064006  1.0000
  C   C14       1.0  0.1355843959985421  0.13605979747894284  0.6794319950502297  1.0000
  C   C15       1.0  0.1754203267295296  0.12613951323095313  0.6981482850779059  1.0000
  C   C16       1.0  0.1770945191774302  0.30534025416513094  0.8629444347327817  1.0000
  C   C17       1.0  0.1343555613678404  0.31990374812505  0.8582571823894654  1.0000
  C   C18       1.0  0.117219856893449  0.2922829741095541  0.8278334070251318  1.0000
  C   C19       1.0  0.698290128917982  0.13033766742081807  0.18064091121616596  1.0000
  C   C20       1.0  0.6744674442812979  0.1456542624134514  0.14644840821591024  1.0000
  C   C21       1.0  0.6917750119273903  0.18645529139489267  0.13939459363488987  1.0000
  C   C22       1.0  0.878066637587203  0.17262696100807773  0.2967218225960621  1.0000
  C   C23       1.0  0.8625825644387534  0.13881913864071294  0.32126007617807056  1.0000
  C   C24       1.0  0.8221225142080542  0.12970719832021876  0.3035906359562474  1.0000
  C   C25       1.0  0.8158871412327783  0.3094526497162137  0.1410618381782101  1.0000
  C   C26       1.0  0.8585926187253321  0.32379388750544547  0.1451784064863162  1.0000
  C   C27       1.0  0.8765296951969005  0.29591836659582077  0.17487408480543104  1.0000
  C   C28       1.0  0.30469481598344567  0.8701985701340931  0.17789489300885455  1.0000
  C   C29       1.0  0.32565048622664955  0.8591252761207997  0.1403772207978164  1.0000
  C   C30       1.0  0.30492791438813077  0.8213010928060458  0.1278541887627043  1.0000
  C   C31       1.0  0.1322317094764998  0.8174145241533991  0.3009278819765697  1.0000
  C   C32       1.0  0.14471412525755065  0.8549892826500453  0.32185753708137804  1.0000
  C   C33       1.0  0.18234584813042432  0.8673886512591054  0.3006248277584618  1.0000
  C   C34       1.0  0.1809840038646797  0.6966486538141011  0.12743805845087045  1.0000
  C   C35       1.0  0.14310140552350964  0.6753499441132079  0.1393637328056627  1.0000
  C   C36       1.0  0.1312691007502664  0.695664563553457  0.17695828311106243  1.0000
  C   C37       1.0  0.9961070990693058  0.5002919007220258  0.0010897198242574  1.0000
  C   C38       1.0  0.5004687421049069  0.004626963321833001  0.0005837238499211  1.0000
  C   C39       1.0  0.0016338727046373977  0.9965573502850092  0.4976156676407085  1.0000
  C   C40       1.0  0.5828122935664766  0.9328808247083203  0.9273573464817912  1.0000
  C   C41       1.0  0.6024261230532061  0.9512582636634902  0.8920253372697429  1.0000
  C   C42       1.0  0.632675353258094  0.9283968641844497  0.8687868899465201  1.0000
  C   C43       1.0  0.6447939924102926  0.8863902096522481  0.8795993765960545  1.0000
  C   C44       1.0  0.6243235679125122  0.8679271210341782  0.914384103397765  1.0000
  C   C45       1.0  0.5940438664501144  0.8905100662757093  0.9378484577210242  1.0000
  C   C46       1.0  0.5533457879201009  0.9568413322191702  0.9521992190187234  1.0000
  C   C47       1.0  0.5289174389468484  0.9779195776312976  0.9738717095707512  1.0000
  C   C48       1.0  0.41884820265384787  0.07613229760744389  0.9272929573868962  1.0000
  C   C49       1.0  0.40112550775258166  0.11512639675902392  0.94176188867916  1.0000
  C   C50       1.0  0.37042650976382424  0.13685415830124012  0.9183443398699109  1.0000
  C   C51       1.0  0.35617809734772976  0.1209445631251072  0.879563483982153  1.0000
  C   C52       1.0  0.3750416173220544  0.08266843173670681  0.8647159798759103  1.0000
  C   C53       1.0  0.4056070234142907  0.060575848077839105  0.8879903411103667  1.0000
  C   C54       1.0  0.4481931519794884  0.0524045443651033  0.9521723555265991  1.0000
  C   C55       1.0  0.4723215220373902  0.0313575957087053  0.9739072632266  1.0000
  C   C56       1.0  0.5800758414345849  0.07750185448780661  0.0743406699734095  1.0000
  C   C57       1.0  0.5930558164525908  0.06259618071258902  0.11389254538209306  1.0000
  C   C58       1.0  0.6228624622612172  0.08521560859330889  0.1374549511815459  1.0000
  C   C59       1.0  0.6412054521782621  0.12339802796586241  0.12270598124065658  1.0000
  C   C60       1.0  0.6273560149101911  0.13856981976022098  0.0835943569549755  1.0000
  C   C61       1.0  0.5974059044137691  0.11631281778833372  0.059864185974681995  1.0000
  C   C62       1.0  0.5513011810047814  0.0533995412546346  0.049292739719120994  1.0000
  C   C63       1.0  0.5276394156055559  0.031989375908075594  0.027488152250015194  1.0000
  C   C64       1.0  0.4210765868025561  0.9303097151619397  0.07281258948954417  1.0000
  C   C65       1.0  0.4113346149490624  0.8878322526446071  0.06147102077257219  1.0000
  C   C66       1.0  0.3812736932199953  0.8645652736800926  0.08401249244494118  1.0000
  C   C67       1.0  0.3594143720364755  0.8825339967711301  0.11853448451598327  1.0000
  C   C68       1.0  0.3702830494797665  0.9245357834391044  0.13043084200391764  1.0000
  C   C69       1.0  0.4004498636060276  0.947994020880671  0.10823670967103279  1.0000
  C   C70       1.0  0.449759212983139  0.9551496083046731  0.04848285701818609  1.0000
  C   C71       1.0  0.47313265635383317  0.977085083841402  0.02700680786745119  1.0000
  C   C72       1.0  0.9286991084372643  0.9241378241514582  0.5774430191038815  1.0000
  C   C73       1.0  0.887201742625237  0.9374746105543181  0.5903772521745054  1.0000
  C   C74       1.0  0.8657622524216606  0.9160915093948107  0.6220680614612276  1.0000
  C   C75       1.0  0.88454648304063  0.880639456763916  0.6422435599197768  1.0000
  C   C76       1.0  0.9252360622212022  0.8664633791320425  0.6279420385161743  1.0000
  C   C77       1.0  0.9469679991708444  0.8876309412483748  0.5963178028359906  1.0000
  C   C78       1.0  0.9524737868001625  0.9479395459053849  0.5477773758581392  1.0000
  C   C79       1.0  0.9740488469325327  0.9692916422385026  0.5240821615484774  1.0000
  C   C80       1.0  0.07658786000692432  0.9234148516591391  0.4185781738142893  1.0000
  C   C81       1.0  0.06130042411469108  0.8838481081761745  0.4035468206683816  1.0000
  C   C82       1.0  0.0839340806574995  0.8613885287727218  0.3729945456337944  1.0000
  C   C83       1.0  0.12264901630493338  0.8771805060743249  0.35604514843375756  1.0000
  C   C84       1.0  0.13845955364720197  0.915992780285059  0.3722511225455064  1.0000
  C   C85       1.0  0.11606468770995089  0.9387257222786046  0.4027896059410948  1.0000
  C   C86       1.0  0.0519459217238207  0.9479242999313229  0.4475102419217335  1.0000
  C   C87       1.0  0.029712440295455195  0.9695022031833959  0.4708687950957254  1.0000
  C   C88       1.0  0.07187923270695512  0.06995112751146591  0.5793072497489928  1.0000
  C   C89       1.0  0.0525808965924028  0.10603135878665884  0.5984357972058091  1.0000
  C   C90       1.0  0.07374765277006651  0.1278746623741327  0.6301082983778412  1.0000
  C   C91       1.0  0.11485103231503048  0.11488148483877579  0.6441126515385917  1.0000
  C   C92       1.0  0.1345940255442031  0.07985536283373308  0.6237111987127618  1.0000
  C   C93       1.0  0.11370645551898659  0.05775232461710541  0.5920305185412502  1.0000
  C   C94       1.0  0.04894683897095579  0.045552996898671  0.5493447057220917  1.0000
  C   C95       1.0  0.0282429295772104  0.0237478133943512  0.5252025633881487  1.0000
  C   C96       1.0  0.929384919210811  0.07093513293245483  0.418281924083537  1.0000
  C   C97       1.0  0.9482524382438129  0.10664038686556414  0.3988530554564348  1.0000
  C   C98       1.0  0.9260992016384506  0.12908687509984423  0.3682634305496393  1.0000
  C   C99       1.0  0.8843814745699276  0.1170315243902564  0.3555671549575193  1.0000
  C   C100      1.0  0.865129422435942  0.08232386006066149  0.3762438118809043  1.0000
  C   C101      1.0  0.8869869031959466  0.05967178968327861  0.4069056800561057  1.0000
  C   C102      1.0  0.9532170559317946  0.04607019988365119  0.44722049392508  1.0000
  C   C103      1.0  0.9745395350140597  0.023942974338936596  0.47059724199027636  1.0000
  C   C104      1.0  0.9244332154529714  0.5815447367130561  0.9279044729622611  1.0000
  C   C105      1.0  0.8837924446897744  0.5973516959844289  0.9407720175452353  1.0000
  C   C106      1.0  0.8625285446332072  0.6284302805826414  0.9176237147761838  1.0000
  C   C107      1.0  0.8806015630787413  0.6449422069943154  0.8807230890464124  1.0000
  C   C108      1.0  0.9205259934390496  0.6279313494759721  0.8673450637925555  1.0000
  C   C109      1.0  0.942158263885993  0.5970129650050637  0.8903546103854864  1.0000
  C   C110      1.0  0.947818614398898  0.5520333041269085  0.9527482049409384  1.0000
  C   C111      1.0  0.9688655269951241  0.5280565832065351  0.9745774134734331  1.0000
  C   C112      1.0  0.9243644370990296  0.4208880307984444  0.0754558756607295  1.0000
  C   C113      1.0  0.8827925306449346  0.4072682308495885  0.06373079941565857  1.0000
  C   C114      1.0  0.8613330990942101  0.3764760290754552  0.08681755049997258  1.0000
  C   C115      1.0  0.880071577642461  0.35810349191690705  0.12258560532839617  1.0000
  C   C116      1.0  0.9209435137513607  0.37300609495123643  0.1349431291533207  1.0000
  C   C117      1.0  0.9427856854588795  0.4035962998612206  0.11195090621464487  1.0000
  C   C118      1.0  0.947852344126943  0.4499508530848004  0.05041943010434839  1.0000
  C   C119      1.0  0.9689097290573372  0.47348140750499107  0.028331254695927992  1.0000
  C   C120      1.0  0.07219985738876737  0.5797996441879222  0.07171623244855849  1.0000
  C   C121      1.0  0.062457122963721176  0.5889526749208616  0.11384788380777877  1.0000
  C   C122      1.0  0.08607932054938058  0.6191407547052351  0.13587888120607514  1.0000
  C   C123      1.0  0.1201785209778308  0.6416130085519569  0.11702223289950807  1.0000
  C   C124      1.0  0.13050248496406172  0.6313558479749872  0.0753048336473157  1.0000
  C   C125      1.0  0.10720559752822113  0.601120616137841  0.053032589087806094  1.0000
  C   C126      1.0  0.0467132601613116  0.5509730410756931  0.04812256114209389  1.0000
  C   C127      1.0  0.024288831556937403  0.5275296083323723  0.027104242330629795  1.0000
  C   C128      1.0  0.0672452874413381  0.41779441315804894  0.9276742428900489  1.0000
  C   C129      1.0  0.10877493946681231  0.4039753299195469  0.9397546308338887  1.0000
  C   C130      1.0  0.13061453330593759  0.37285381922797717  0.9168124980263739  1.0000
  C   C131      1.0  0.1122713260859385  0.354298502019688  0.8808840574845431  1.0000
  C   C132      1.0  0.0713475425891446  0.3692356577465859  0.8682892229522707  1.0000
  C   C133      1.0  0.0491360013915099  0.400188501815201  0.8911340923417369  1.0000
  C   C134      1.0  0.043645539023458496  0.4475937194809561  0.9523680229294553  1.0000
  C   C135      1.0  0.022683111580349198  0.4719614170045787  0.9741509625513911  1.0000
  N   N1        1.0  0.7267344876623058  0.8129321749307367  0.8364320277052355  1.0000
  N   N2        1.0  0.7311869424151779  0.847285452059076  0.8102189066036372  1.0000
  N   N3        1.0  0.8164434241168763  0.8462134339294494  0.7297716537043186  1.0000
  N   N4        1.0  0.8502406912486293  0.81777691212033  0.7329792286717589  1.0000
  N   N5        1.0  0.847888716241812  0.735112699799039  0.8145830132332319  1.0000
  N   N6        1.0  0.8106794648830159  0.7289382988973757  0.8371201930072444  1.0000
  N   N7        1.0  0.27158803685901495  0.1907994366361123  0.8363860006042783  1.0000
  N   N8        1.0  0.26810583452463294  0.15569606130800653  0.810670132526667  1.0000
  N   N9        1.0  0.18226522986000757  0.1520637081437428  0.7311767842346979  1.0000
  N   N10       1.0  0.14751289322339287  0.17934319781362262  0.7347777310328352  1.0000
  N   N11       1.0  0.14738160792676783  0.2636127176040118  0.8155749557523179  1.0000
  N   N12       1.0  0.1846232145202862  0.27173059132910987  0.837381315945663  1.0000
  N   N13       1.0  0.7234090108403423  0.19457082068921494  0.16712591409519453  1.0000
  N   N14       1.0  0.727474219853363  0.1596479480829629  0.19273448553914105  1.0000
  N   N15       1.0  0.8143866219680831  0.15591682912845073  0.27113480416311114  1.0000
  N   N16       1.0  0.849158130042902  0.1826141438801656  0.2668891164062615  1.0000
  N   N17       1.0  0.8468477450736173  0.26729960738982333  0.18724525500773834  1.0000
  N   N18       1.0  0.8091205287495242  0.2757117013189543  0.1662447108711191  1.0000
  N   N19       1.0  0.2740644371791134  0.8109221973506281  0.15568601822096179  1.0000
  N   N20       1.0  0.2739862320273189  0.8412919631219323  0.18681212642926676  1.0000
  N   N21       1.0  0.19131420066230484  0.8394743325587442  0.2695864514621887  1.0000
  N   N22       1.0  0.160169219209088  0.8084055760324064  0.2697518247619825  1.0000
  N   N23       1.0  0.15975284018564648  0.7266262805594011  0.18642118002832575  1.0000
  N   N24       1.0  0.1907028343875012  0.7271916419997028  0.1556657368517236  1.0000
