data_image0
_chemical_formula_structural       Zn8H20C28N4O24
_chemical_formula_sum              "Zn8 H20 C28 N4 O24"
_cell_length_a       5.2426284975264625
_cell_length_b       8.868539803721845
_cell_length_c       19.564014264072846
_cell_angle_alpha    89.99750032573797
_cell_angle_beta     90.00027746204346
_cell_angle_gamma    90.00004974478134

_space_group_name_H-M_alt    "P 1"
_space_group_IT_number       1

loop_
  _space_group_symop_operation_xyz
  'x, y, z'

loop_
  _atom_site_type_symbol
  _atom_site_label
  _atom_site_symmetry_multiplicity
  _atom_site_fract_x
  _atom_site_fract_y
  _atom_site_fract_z
  _atom_site_occupancy
  Zn  Zn1       1.0  0.8819267108778919  0.819070214416584  0.4802517100672148  1.0000
  Zn  Zn2       1.0  0.38193518654814074  0.18092971572384187  0.5197490547228014  1.0000
  Zn  Zn3       1.0  0.8818157327928517  0.31906839012663096  0.0197502396155897  1.0000
  Zn  Zn4       1.0  0.3818077351313817  0.6809394385184857  0.9802484802374635  1.0000
  Zn  Zn5       1.0  0.39898761820105483  0.08787389969244688  0.9756715423741298  1.0000
  Zn  Zn6       1.0  0.8989812167206069  0.9121332029580458  0.0243287866749711  1.0000
  Zn  Zn7       1.0  0.3990910509532526  0.5878714409060422  0.5243335595014074  1.0000
  Zn  Zn8       1.0  0.8990895090923914  0.41212438096063414  0.475669325500064  1.0000
  H   H1        1.0  0.42429886470142014  0.843942780258878  0.49325160145927077  1.0000
  H   H2        1.0  0.9243029676164269  0.1560485939900573  0.5067488389943122  1.0000
  H   H3        1.0  0.42418821547502733  0.3439426276526659  0.006749332069446701  1.0000
  H   H4        1.0  0.9241828174752629  0.6560634097322263  0.9932526415982608  1.0000
  H   H5        1.0  0.9762768196784395  0.5979318783551051  0.5652008824362795  1.0000
  H   H6        1.0  0.47626905531947733  0.40205955458394976  0.43480080965612444  1.0000
  H   H7        1.0  0.9761648852223886  0.09796601351037279  0.9347979724380125  1.0000
  H   H8        1.0  0.47615782013748037  0.90203895541827  0.0652021860073404  1.0000
  H   H9        1.0  0.5570155993074479  0.07283868362075911  0.2684803198534312  1.0000
  H   H10       1.0  0.057044389602801  0.9271580624170567  0.7315205445120085  1.0000
  H   H11       1.0  0.5569974394605808  0.5728458817142297  0.23151537518541693  1.0000
  H   H12       1.0  0.057005326494021305  0.4271542488728741  0.7684824222667501  1.0000
  H   H13       1.0  0.18687699248633294  0.7750672452106995  0.2263796100269104  1.0000
  H   H14       1.0  0.6868924147898668  0.2249195034979579  0.7736192714730237  1.0000
  H   H15       1.0  0.18684352229833223  0.2750715825692112  0.2736154531103594  1.0000
  H   H16       1.0  0.6868438659470684  0.7249298262311186  0.7263844507893822  1.0000
  H   H17       1.0  0.2278370612475413  0.7346876720024155  0.3540919399556159  1.0000
  H   H18       1.0  0.7278549923782833  0.2652996005955828  0.6459086557448543  1.0000
  H   H19       1.0  0.22775531913533334  0.23468190172360434  0.14590423048728954  1.0000
  H   H20       1.0  0.72775934382814  0.7653256712853603  0.8540953429461241  1.0000
  C   C1        1.0  0.5852280496724944  0.061744478315056014  0.4042774428088975  1.0000
  C   C2        1.0  0.0852444810279351  0.9382488209951562  0.5957215013911181  1.0000
  C   C3        1.0  0.5851408407849803  0.5617458402628087  0.0957184400797999  1.0000
  C   C4        1.0  0.0851428540976045  0.4382598662333734  0.9042815262388829  1.0000
  C   C5        1.0  0.7504715576600348  0.9765911977720733  0.3546857860942652  1.0000
  C   C6        1.0  0.2504974026145064  0.023398501294138896  0.645312864988469  1.0000
  C   C7        1.0  0.7504089055664522  0.47659580554773134  0.14531375960090287  1.0000
  C   C8        1.0  0.2504074605695692  0.5234119373485625  0.8546884695068683  1.0000
  C   C9        1.0  0.710036085246962  0.9988955649882314  0.2853174585438794  1.0000
  C   C10       1.0  0.21005741349404167  0.0010969704088310997  0.7146815252868919  1.0000
  C   C11       1.0  0.7100193656598819  0.49891153965648977  0.2146828087660282  1.0000
  C   C12       1.0  0.2100054667403342  0.5011058034840589  0.7853187311263029  1.0000
  C   C13       1.0  0.8640387928299803  0.9245172110850319  0.2380632144899337  1.0000
  C   C14       1.0  0.3640624164620192  0.07547445430417808  0.761935937799791  1.0000
  C   C15       1.0  0.8640304149816631  0.4245249620498299  0.2619357542565055  1.0000
  C   C16       1.0  0.3640326463262795  0.5754802348233881  0.7380649316496033  1.0000
  C   C17       1.0  0.05981591882277829  0.8316663999471244  0.26231532556285947  1.0000
  C   C18       1.0  0.5598366841549094  0.1683234627322534  0.7376840175762069  1.0000
  C   C19       1.0  0.059787172564455204  0.33167568799117214  0.23767992666443397  1.0000
  C   C20       1.0  0.5597948557309707  0.6683243240139944  0.7623214610937978  1.0000
  C   C21       1.0  0.08338583745652531  0.8101086273479794  0.33281836740729176  1.0000
  C   C22       1.0  0.5834034263296033  0.18988474948930895  0.6671821020947917  1.0000
  C   C23       1.0  0.0833397997456373  0.3101193918677936  0.1671791860716212  1.0000
  C   C24       1.0  0.5833292966958865  0.6898965389365941  0.832822305905303  1.0000
  C   C25       1.0  0.8033956799934289  0.9421469995898449  0.1631692971584329  1.0000
  C   C26       1.0  0.3034075967475546  0.05785286625947349  0.8368316322229674  1.0000
  C   C27       1.0  0.8033987594016809  0.44214029072354316  0.3368301148637087  1.0000
  C   C28       1.0  0.30340642422077474  0.557850554434779  0.6631708143399635  1.0000
  N   N1        1.0  0.9300488400510505  0.8796886370559134  0.3782156972154311  1.0000
  N   N2        1.0  0.4300701157838276  0.12030249384327618  0.6217847686457816  1.0000
  N   N3        1.0  0.929982968600797  0.3797012655390191  0.12178379905530791  1.0000
  N   N4        1.0  0.4299795783873108  0.6203101649303447  0.8782176891553065  1.0000
  O   O1        1.0  0.6540379072862522  0.058020757401287405  0.46870499274425736  1.0000
  O   O2        1.0  0.1540468918901041  0.9419718896075436  0.5312932327990012  1.0000
  O   O3        1.0  0.6539351621091143  0.5580449135171789  0.0312900217332199  1.0000
  O   O4        1.0  0.1539283752430407  0.4419680342334047  0.9687102483014556  1.0000
  O   O5        1.0  0.39500553595969734  0.13153063418969416  0.3835955586833535  1.0000
  O   O6        1.0  0.8950207181010371  0.8684732544329208  0.6164001524927089  1.0000
  O   O7        1.0  0.39492161921970853  0.6315352320630084  0.116394632760155  1.0000
  O   O8        1.0  0.8949177061012038  0.3684754255998682  0.8836031227101627  1.0000
  O   O9        1.0  0.5848289016814262  0.986810384941272  0.1468964705178024  1.0000
  O   O10       1.0  0.08482915314306179  0.013199845497112497  0.8531014499414696  1.0000
  O   O11       1.0  0.5848296620308915  0.4868018597613001  0.35310275629852583  1.0000
  O   O12       1.0  0.0848436507589412  0.5131835632671694  0.6468966971217043  1.0000
  O   O13       1.0  0.984940278440746  0.90563785615128  0.1218543317565732  1.0000
  O   O14       1.0  0.4849537651797605  0.09436335836429778  0.8781479099544001  1.0000
  O   O15       1.0  0.9849613878471075  0.40563650870158335  0.37814185313114734  1.0000
  O   O16       1.0  0.48497080416998284  0.594357939718641  0.6218593662424396  1.0000
  O   O17       1.0  0.5215218037751087  0.7591897947117942  0.47411395198037104  1.0000
  O   O18       1.0  0.0215280033358241  0.24079943097752474  0.5258872666919528  1.0000
  O   O19       1.0  0.5214297453459977  0.2591957317358293  0.0258891033698063  1.0000
  O   O20       1.0  0.0214312260363272  0.7408070290188886  0.9741116040163008  1.0000
  O   O21       1.0  0.0095245106116622  0.6086650224880471  0.5152225145944413  1.0000
  O   O22       1.0  0.5095239776609759  0.39133034814173584  0.48477916238545765  1.0000
  O   O23       1.0  0.009428477933028  0.1086774712672849  0.9847750622715524  1.0000
  O   O24       1.0  0.5094273595341718  0.8913280519632208  0.015225081060393098  1.0000
