data_image0
_chemical_formula_structural       Ag4H44C42N6O10F28
_chemical_formula_sum              "Ag4 H44 C42 N6 O10 F28"
_cell_length_a       8.765544381177556
_cell_length_b       12.288889932562649
_cell_length_c       14.904
_cell_angle_alpha    109.74597580581111
_cell_angle_beta     96.73549146372375
_cell_angle_gamma    104.41859445068687

_space_group_name_H-M_alt    "P 1"
_space_group_IT_number       1

loop_
  _space_group_symop_operation_xyz
  'x, y, z'

loop_
  _atom_site_type_symbol
  _atom_site_label
  _atom_site_symmetry_multiplicity
  _atom_site_fract_x
  _atom_site_fract_y
  _atom_site_fract_z
  _atom_site_occupancy
  Ag  Ag1       1.0  0.6442620700109173  0.2654483193749684  0.3229998959368175  1.0000
  Ag  Ag2       1.0  0.35573776652346106  0.7345517607083067  0.6770023963629371  1.0000
  Ag  Ag3       1.0  0.7973086952437142  0.8905232486490818  0.8730223815964282  1.0000
  Ag  Ag4       1.0  0.2026922900496402  0.1094768314341863  0.1269752932187842  1.0000
  H   H1        1.0  0.3631011213986496  0.14853128845483352  0.3721624212003719  1.0000
  H   H2        1.0  0.6368956418132113  0.8514697006326486  0.6278372284803455  1.0000
  H   H3        1.0  0.7190634393793686  0.3728962534050453  0.20034589146492726  1.0000
  H   H4        1.0  0.2809364270507544  0.6271010996655804  0.7996522884287247  1.0000
  H   H5        1.0  0.812129209339595  0.3700128920404282  0.09993374880443187  1.0000
  H   H6        1.0  0.1878687325269865  0.6299853700344188  0.900064551554607  1.0000
  H   H7        1.0  0.9248523958887985  0.3740588697938705  0.207513996849393  1.0000
  H   H8        1.0  0.07515014101368682  0.6259393922809765  0.7924852914351421  1.0000
  H   H9        1.0  0.522864113559919  0.0383908839449276  0.2714274785982696  1.0000
  H   H10       1.0  0.477134201261073  0.9616082871341263  0.7285717716693159  1.0000
  H   H11       1.0  0.6038885693099232  0.9149854610334671  0.2288216326409796  1.0000
  H   H12       1.0  0.3961101483612239  0.0850118920371656  0.7711804937763989  1.0000
  H   H13       1.0  0.413469515832638  0.9067771529872745  0.16674270110416967  1.0000
  H   H14       1.0  0.5865349157376372  0.0932229270959937  0.8332552114345478  1.0000
  H   H15       1.0  0.6031236390426286  0.7774222174164294  0.946374456137832  1.0000
  H   H16       1.0  0.39687697329631527  0.2225769536626316  0.05362562357291271  1.0000
  H   H17       1.0  0.4827592522522152  0.78315985201084  0.0354363151017481  1.0000
  H   H18       1.0  0.517242478949953  0.21684204608086333  0.9645632595305573  1.0000
  H   H19       1.0  0.688527243296086  0.7943733279862286  0.0671943087858865  1.0000
  H   H20       1.0  0.3114711014206506  0.20562311608019  0.9328055258013139  1.0000
  H   H21       1.0  0.9167171846458116  0.1193995214266792  0.9221341939921999  1.0000
  H   H22       1.0  0.08328569531533955  0.8806023766650171  0.07786545988127365  1.0000
  H   H23       1.0  0.006590640375520701  0.2510151504760287  0.0312172996166638  1.0000
  H   H24       1.0  0.9934076744454714  0.7489840206030252  0.9687826216117372  1.0000
  H   H25       1.0  0.83285129763955  0.2421023641645306  0.9521850759715778  1.0000
  H   H26       1.0  0.1671466143312799  0.7578986249229587  0.04781599487193946  1.0000
  H   H27       1.0  0.687615543398735  0.6165821029091632  0.47908759218175606  1.0000
  H   H28       1.0  0.3123877693083088  0.3834152501614696  0.5209114963962238  1.0000
  H   H29       1.0  0.6559273743196242  0.5467623982890402  0.5634980932254195  1.0000
  H   H30       1.0  0.34407634123757447  0.4532331367731643  0.43650051669825984  1.0000
  H   H31       1.0  0.5995441339992239  0.4561083170998615  0.4361306328147664  1.0000
  H   H32       1.0  0.4004595815579748  0.5438872179623431  0.5638673061480974  1.0000
  H   H33       1.0  0.9527379331694447  0.7224238264943281  0.6942117414987055  1.0000
  H   H34       1.0  0.047267274205395886  0.2775753445847329  0.3057859713334494  1.0000
  H   H35       1.0  0.8887079475833701  0.7559624459486046  0.592743566154269  1.0000
  H   H36       1.0  0.11129728968721508  0.2440339981178141  0.40725540195830945  1.0000
  H   H37       1.0  0.09940998377267354  0.7992946767970892  0.6449926027808176  1.0000
  H   H38       1.0  0.9005906285662632  0.2007044942819718  0.35500613500829564  1.0000
  H   H39       1.0  0.5419324705607947  0.0741483826839016  0.4500138987677289  1.0000
  H   H40       1.0  0.45806233819178727  0.9258562424204371  0.5499886418628466  1.0000
  H   H41       1.0  0.4251317950121915  0.1428391040710864  0.530015301126639  1.0000
  H   H42       1.0  0.574865281362591  0.8571682480458876  0.4699894975099285  1.0000
  H   H43       1.0  0.6274828334673187  0.2267892791871091  0.5373742072228609  1.0000
  H   H44       1.0  0.37251309414848777  0.7732180729298648  0.4626271573684663  1.0000
  C   C1        1.0  0.26840604555638947  0.5202976496227407  0.08300778379414453  1.0000
  C   C2        1.0  0.7315861226195748  0.4797033394647485  0.916992890843524  1.0000
  C   C3        1.0  0.3886189743992289  0.5743770372851814  0.18426685486442557  1.0000
  C   C4        1.0  0.6113678528320108  0.42562213379387265  0.8157369706779962  1.0000
  C   C5        1.0  0.34319647126237374  0.517006145366345  0.25999614060523163  1.0000
  C   C6        1.0  0.6567946079460966  0.4829893896958596  0.7400062943913001  1.0000
  C   C7        1.0  0.3296076290661887  0.37884295896851944  0.22756675858053654  1.0000
  C   C8        1.0  0.6703765575884332  0.6211525760936851  0.7724318461648992  1.0000
  C   C9        1.0  0.0557527135383609  0.2618977489177752  0.6418114198877802  1.0000
  C   C10       1.0  0.9442508824358667  0.7381086941949847  0.3581908914048101  1.0000
  C   C11       1.0  0.022137442750910494  0.1930788579365128  0.711989096319556  1.0000
  C   C12       1.0  0.9778627667378785  0.8069221311509693  0.28800944916303456  1.0000
  C   C13       1.0  0.9918233366200652  0.0529731295348483  0.6675740132016017  1.0000
  C   C14       1.0  0.008183765422565215  0.947027859552641  0.332423665806374  1.0000
  C   C15       1.0  0.936132677379838  0.9926989582419665  0.7402476564289417  1.0000
  C   C16       1.0  0.0638852261352127  0.007294758811809701  0.25974672900876783  1.0000
  C   C17       1.0  0.7505230799563024  0.2014898739222701  0.12230283731786074  1.0000
  C   C18       1.0  0.24947908399176544  0.7985074791483626  0.8776968429797594  1.0000
  C   C19       1.0  0.6189732137045354  0.025703003135547  0.14424482329740582  1.0000
  C   C20       1.0  0.3810308449113293  0.974296167943507  0.8557568360584826  1.0000
  C   C21       1.0  0.652572612624631  0.9545580504556952  0.057369584918710415  1.0000
  C   C22       1.0  0.34743411646358874  0.0454420296275728  0.9426318409064225  1.0000
  C   C23       1.0  0.7894798790863646  0.1306811727180701  0.03740994335166192  1.0000
  C   C24       1.0  0.21052150905713762  0.8693170893567768  0.962588594730889  1.0000
  C   C25       1.0  0.8036753699787054  0.337086032421702  0.15940857348185491  1.0000
  C   C26       1.0  0.19632486940582075  0.6629122296531378  0.8405925692027907  1.0000
  C   C27       1.0  0.5351743884403461  0.9683930945822752  0.20613476751344018  1.0000
  C   C28       1.0  0.46482699970315616  0.0316051674925717  0.7938644415299266  1.0000
  C   C29       1.0  0.6030252756177035  0.8197518166176252  0.024097435603202808  1.0000
  C   C30       1.0  0.3969757096756439  0.1802482634656428  0.9759029230552729  1.0000
  C   C31       1.0  0.8913088987076492  0.1885620160005743  0.9822581770751599  1.0000
  C   C32       1.0  0.10869363819482912  0.8114362460742657  0.01774111120937513  1.0000
  C   C33       1.0  0.8525070530872796  0.517227942394392  0.4963931035216903  1.0000
  C   C34       1.0  0.1475012276100713  0.4827703196804549  0.503604568086246  1.0000
  C   C35       1.0  0.9919384641963588  0.6093682454723321  0.5594134260899681  1.0000
  C   C36       1.0  0.0080648186149404  0.3906318346109359  0.4405850781683966  1.0000
  C   C37       1.0  0.6905401031495085  0.535074422114306  0.49325106132242535  1.0000
  C   C38       1.0  0.3094712508703664  0.4649229309563268  0.5067458981004693  1.0000
  C   C39       1.0  0.9829981924093613  0.7283587150030257  0.625976391226466  1.0000
  C   C40       1.0  0.01700431459737219  0.2716422740844564  0.3740243256209084  1.0000
  C   C41       1.0  0.5163557312159454  0.1596547730131093  0.48741469014080974  1.0000
  C   C42       1.0  0.4836386746864747  0.8403516700996576  0.5125876581832431  1.0000
  N   N1        1.0  0.6666363995181397  0.1474977506643  0.17434076121325862  1.0000
  N   N2        1.0  0.3333668832931592  0.852502329418968  0.8256604268883693  1.0000
  N   N3        1.0  0.7375989449807034  0.008072866418402201  0.005695386125388796  1.0000
  N   N4        1.0  0.2624047406807506  0.9919253956564376  0.9943066652435776  1.0000
  N   N5        1.0  0.8631232104036711  0.4097081970314563  0.43809618722119853  1.0000
  N   N6        1.0  0.13688277277573488  0.5902900650433835  0.5619019968652097  1.0000
  O   O1        1.0  0.785844692380344  0.9397521898293064  0.7244497370921864  1.0000
  O   O2        1.0  0.2141692723204045  0.0602515262708181  0.2755545426513493  1.0000
  O   O3        1.0  0.0443273652184644  0.005919435437071701  0.808944459294118  1.0000
  O   O4        1.0  0.9556956557656164  0.994061555557721  0.19104136635935035  1.0000
  O   O5        1.0  0.4628706542594685  0.209254587912362  0.41958070513040724  1.0000
  O   O6        1.0  0.5371230057341307  0.7907500371919767  0.5804204143373682  1.0000
  O   O7        1.0  0.4601212743985457  0.3567959707789043  0.24129749743833176  1.0000
  O   O8        1.0  0.5398591528162271  0.6431932012538084  0.7586990754318281  1.0000
  O   O9        1.0  0.18771251016882926  0.3060535375835158  0.18920077634949456  1.0000
  O   O10       1.0  0.8122716465900478  0.6939447244913239  0.81080261176286  1.0000
  F   F1        1.0  0.11860945221724246  0.5254280694026576  0.09229914116927067  1.0000
  F   F2        1.0  0.8813804782322519  0.4745674656595469  0.9076971759387507  1.0000
  F   F3        1.0  0.321834127797338  0.5855387000204146  0.028952258825036457  1.0000
  F   F4        1.0  0.6781663948543724  0.4144686520965593  0.9710500936917799  1.0000
  F   F5        1.0  0.2603042480916216  0.4037033151983351  0.033362275042073015  1.0000
  F   F6        1.0  0.7396948126381914  0.5962976738891541  0.9666368621601651  1.0000
  F   F7        1.0  0.5347141391548148  0.5632853678743786  0.16665254284223613  1.0000
  F   F8        1.0  0.46527799912539775  0.436718348225746  0.8333529151623509  1.0000
  F   F9        1.0  0.4035072384820353  0.6958281812213017  0.22402183369904813  1.0000
  F   F10       1.0  0.5964807076124359  0.3041737168703946  0.7759834996473816  1.0000
  F   F11       1.0  0.2022863574863223  0.5379186962977514  0.2823940708219298  1.0000
  F   F12       1.0  0.7977080783118422  0.4620850198023732  0.7176108747041782  1.0000
  F   F13       1.0  0.4628983544854747  0.5843097263240224  0.34317945560435004  1.0000
  F   F14       1.0  0.537094649286537  0.4156848997339679  0.6568195041227086  1.0000
  F   F15       1.0  0.09593995150461862  0.38315254794382275  0.6930951196034061  1.0000
  F   F16       1.0  0.9040471888895494  0.61685298616473  0.30690848720834657  1.0000
  F   F17       1.0  0.9237698965878138  0.22896270826113616  0.570059995253452  1.0000
  F   F18       1.0  0.07623645954600278  0.771036462817925  0.42993846778068706  1.0000
  F   F19       1.0  0.1796381599543651  0.23885994613565492  0.6003342978663826  1.0000
  F   F20       1.0  0.8203791015445885  0.7611574050276744  0.3996773624148561  1.0000
  F   F21       1.0  0.15173849302151868  0.2450202676892559  0.7896749801253196  1.0000
  F   F22       1.0  0.8482571214313666  0.7549807213982334  0.21032861607912431  1.0000
  F   F23       1.0  0.888664409112536  0.2139595937204533  0.7454343148982334  1.0000
  F   F24       1.0  0.11133014626860668  0.7860332143291089  0.25456290349406885  1.0000
  F   F25       1.0  0.878381490807989  0.0052585893739945004  0.5810543954544231  1.0000
  F   F26       1.0  0.1216191215309479  0.9947405817050594  0.41894568425632184  1.0000
  F   F27       1.0  0.13280723228074007  0.0324514504151594  0.6452474516387383  1.0000
  F   F28       1.0  0.8671994370159979  0.9675540836933862  0.3547447540173892  1.0000
