data_image0
_chemical_formula_structural       Al6H50C84I12N12O28
_chemical_formula_sum              "Al6 H50 C84 I12 N12 O28"
_cell_length_a       13.155120672391535
_cell_length_b       13.138084991749448
_cell_length_c       28.292841509235686
_cell_angle_alpha    89.86557937775454
_cell_angle_beta     89.92080848311366
_cell_angle_gamma    120.2913507653665

_space_group_name_H-M_alt    "P 1"
_space_group_IT_number       1

loop_
  _space_group_symop_operation_xyz
  'x, y, z'

loop_
  _atom_site_type_symbol
  _atom_site_label
  _atom_site_symmetry_multiplicity
  _atom_site_fract_x
  _atom_site_fract_y
  _atom_site_fract_z
  _atom_site_occupancy
  Al  Al1       1.0  0.5225450346373535  0.7702118926528385  0.2524221247549718  1.0000
  Al  Al2       1.0  0.2772085841639084  0.527047815311093  0.252119184589553  1.0000
  Al  Al3       1.0  0.26929594488767356  0.7506055190298184  0.25263687993194844  1.0000
  Al  Al4       1.0  0.7779996231678294  0.5209879383269322  0.7478862420411829  1.0000
  Al  Al5       1.0  0.5292953273035151  0.2807184631803848  0.7493079768117923  1.0000
  Al  Al6       1.0  0.7472902599600532  0.2631522981948818  0.7499945474518767  1.0000
  H   H1        1.0  0.9050059297919689  0.31624553079973333  0.40391590344654554  1.0000
  H   H2        1.0  0.7984997445386028  0.7886934954982152  0.436601664406659  1.0000
  H   H3        1.0  0.8843236216793213  0.7181625390041831  0.43244865782416037  1.0000
  H   H4        1.0  0.8312152876265986  0.7341791676151743  0.4884451744352418  1.0000
  H   H5        1.0  0.15539837987511615  0.44141749495944527  0.0814607941806429  1.0000
  H   H6        1.0  0.024804395498975375  0.23282425976166368  0.0527912949274381  1.0000
  H   H7        1.0  0.17837470068133143  0.2827683558771312  0.05965085027141729  1.0000
  H   H8        1.0  0.11881994534684989  0.277569772578218  0.0025549180142831994  1.0000
  H   H9        1.0  0.4040750387316975  0.0926686864075137  0.4135023446748249  1.0000
  H   H10       1.0  0.2025351430539146  0.01785675072011368  0.4420421337832821  1.0000
  H   H11       1.0  0.2814612403636474  0.17514472522156407  0.43725156192703446  1.0000
  H   H12       1.0  0.9798249220684313  0.18822928070085262  0.42936423690620973  1.0000
  H   H13       1.0  0.2631012311242955  0.10517236816498605  0.49331623405223  1.0000
  H   H14       1.0  0.5573711417417613  0.7033305131788197  0.0791684738398644  1.0000
  H   H15       1.0  0.7640204458309225  0.7835731163886306  0.049202128511474506  1.0000
  H   H16       1.0  0.7146064701674746  0.8873550367670544  0.056016213918326195  1.0000
  H   H17       1.0  0.71841918529352  0.8316414385598065  0.9990479756833892  1.0000
  H   H18       1.0  0.32071801369294656  0.9154793094146498  0.9022930084625216  1.0000
  H   H19       1.0  0.1346989666769218  0.7403243039899364  0.9166252104033106  1.0000
  H   H20       1.0  0.18368030536719715  0.7310730689266833  0.9744259707202402  1.0000
  H   H21       1.0  0.24985654810557628  0.7072351254922397  0.9240666431320789  1.0000
  H   H22       1.0  0.8855914394680154  0.2702675750347721  0.5760867088598188  1.0000
  H   H23       1.0  0.8226526546610557  0.108743584691986  0.42632234212769754  1.0000
  H   H24       1.0  0.7099616710524329  0.10833381702304465  0.5450886097029651  1.0000
  H   H25       1.0  0.7317540065295064  0.1877852560749032  0.49140868549996236  1.0000
  H   H26       1.0  0.6975628529090442  0.2376519843995196  0.5441962705738916  1.0000
  H   H27       1.0  0.5943792920424543  0.6752877907099233  0.9082222840999279  1.0000
  H   H28       1.0  0.5996061917995591  0.8570624098932315  0.9234627802238364  1.0000
  H   H29       1.0  0.5386161550109704  0.8036140748300721  0.9807024459810165  1.0000
  H   H30       1.0  0.45145676921595157  0.7382700929174388  0.9296323613356279  1.0000
  H   H31       1.0  0.3910474523459158  0.11264827529213048  0.5861233024944782  1.0000
  H   H32       1.0  0.399850588489592  0.28598979155533033  0.5547575219896571  1.0000
  H   H33       1.0  0.45693308425759216  0.26528834683782765  0.500793551536276  1.0000
  H   H34       1.0  0.8954646681397944  0.15918949219984294  0.48190428670953617  1.0000
  H   H35       1.0  0.5427187008662456  0.3017545893746456  0.5532078489387473  1.0000
  H   H36       1.0  0.08073844026697692  0.3973406898293775  0.9113081914347205  1.0000
  H   H37       1.0  0.2593092773327045  0.3962765847723304  0.9246985210636538  1.0000
  H   H38       1.0  0.2693698619591557  0.45672578039564365  0.9820455672020784  1.0000
  H   H39       1.0  0.2879367385020116  0.5437332602600478  0.931058275690603  1.0000
  H   H40       1.0  0.7146658293819997  0.6068329725223549  0.5825019237912697  1.0000
  H   H41       1.0  0.880363569795193  0.6004533239139531  0.5535638262720183  1.0000
  H   H42       1.0  0.8083004305868258  0.545947575238813  0.4983044462259585  1.0000
  H   H43       1.0  0.7545481340313244  0.4560542619306813  0.5497991943650646  1.0000
  H   H44       1.0  0.27715786748046156  0.847712369773909  0.07314339757223111  1.0000
  H   H45       1.0  0.20616752782196815  0.9798370148958995  0.041217125683949994  1.0000
  H   H46       1.0  0.09791790887664563  0.8266691742765456  0.04762523744565069  1.0000
  H   H47       1.0  0.15941607039940212  0.8861694552136115  0.9910860883059057  1.0000
  H   H48       1.0  0.6798124338295465  0.5850527134878332  0.4098168810560239  1.0000
  H   H49       1.0  0.7137043049283208  0.8980481691294814  0.22497946378229727  1.0000
  H   H50       1.0  0.8797730621620374  0.7145535685816427  0.776258060684995  1.0000
  C   C1        1.0  0.4466346616937074  0.5607429951273062  0.3172139716311264  1.0000
  C   C2        1.0  0.5766151007656218  0.459714955533826  0.6839702589272746  1.0000
  C   C3        1.0  0.5612425777670325  0.12519692850176503  0.8126730548267176  1.0000
  C   C4        1.0  0.8931195815586433  0.42162837935997277  0.6832584557499217  1.0000
  C   C5        1.0  0.060390444930376826  0.5250556710695163  0.3578195447627123  1.0000
  C   C6        1.0  0.44955848422497974  0.929750341048269  0.13634410457775198  1.0000
  C   C7        1.0  0.47605778600266285  0.5304498721893084  0.3618296204744738  1.0000
  C   C8        1.0  0.07990020648760769  0.5370896762907904  0.14177526137650887  1.0000
  C   C9        1.0  0.4566625644673934  0.9434549566310224  0.3647850411314693  1.0000
  C   C10       1.0  0.4664537607541206  0.5341837855547312  0.13924324265002497  1.0000
  C   C11       1.0  0.5256774504333848  0.06270871396026918  0.8567082087587821  1.0000
  C   C12       1.0  0.13448097440718237  0.5623271196277456  0.1871492701839941  1.0000
  C   C13       1.0  0.9488877306585904  0.4428195165892602  0.6377136182694301  1.0000
  C   C14       1.0  0.5377326524160749  0.47677080179111886  0.8602561938042114  1.0000
  C   C15       1.0  0.5133620360128006  0.059918674945848106  0.6437654984021394  1.0000
  C   C16       1.0  0.9394450551351596  0.4519347676129256  0.8633709133179792  1.0000
  C   C17       1.0  0.5419023333792481  0.4912714770474196  0.6409740629460715  1.0000
  C   C18       1.0  0.9502740986554412  0.3850566500379599  0.4686431792194838  1.0000
  C   C19       1.0  0.3788153182614521  0.9228087050975232  0.016574245635418105  1.0000
  C   C20       1.0  0.6072458329581919  0.5601761524584887  0.4739297435900268  1.0000
  C   C21       1.0  0.07624990094397072  0.45903063414576906  0.0244180540938643  1.0000
  C   C22       1.0  0.4290314828055699  0.045046293131328186  0.4775360259036531  1.0000
  C   C23       1.0  0.43766874221555  0.8894073375790014  0.3190350251874462  1.0000
  C   C24       1.0  0.5367443906768726  0.6073277740043109  0.021607223682721596  1.0000
  C   C25       1.0  0.3916128993796235  0.938034972106692  0.9665786243794229  1.0000
  C   C26       1.0  0.9404075372566896  0.37354412560846134  0.518864430854613  1.0000
  C   C27       1.0  0.5426676623680962  0.5989510372778356  0.9716197297925858  1.0000
  C   C28       1.0  0.4317161082019894  0.055399938855259664  0.5277818428944129  1.0000
  C   C29       1.0  0.059003091112167325  0.45064079241330995  0.9745483490381232  1.0000
  C   C30       1.0  0.615957202886875  0.5613244414240128  0.5242076489278844  1.0000
  C   C31       1.0  0.07195020107075581  0.590285800479819  0.5269159710422427  1.0000
  C   C32       1.0  0.6078730948731348  0.06786337143145711  0.9769100791594028  1.0000
  C   C33       1.0  0.3995921464518445  0.4803718646610519  0.5304930539720658  1.0000
  C   C34       1.0  0.4480123295879537  0.568297282921037  0.18505663242613216  1.0000
  C   C35       1.0  0.9254861437337923  0.532293267710756  0.9828638467067207  1.0000
  C   C36       1.0  0.5086124345843288  0.9172451998474145  0.5338726785808631  1.0000
  C   C37       1.0  0.4579488287280213  0.3821404752143848  0.9795598122177509  1.0000
  C   C38       1.0  0.5959951805583543  0.04785365950284862  0.0253267093631351  1.0000
  C   C39       1.0  0.07351353292098387  0.6026734726081742  0.47822205190141887  1.0000
  C   C40       1.0  0.4473550196018862  0.3896288577405328  0.0280528130608957  1.0000
  C   C41       1.0  0.5130992024688439  0.913179386307476  0.4849772591452037  1.0000
  C   C42       1.0  0.9479269074386495  0.5472032300080798  0.0310320947164371  1.0000
  C   C43       1.0  0.3899195068588027  0.4700933779851225  0.4817767036540914  1.0000
  C   C44       1.0  0.015338433143128329  0.5006471670510777  0.4489958565331946  1.0000
  C   C45       1.0  0.12550515158633863  0.5624270400113929  0.3146135641524879  1.0000
  C   C46       1.0  0.48196199333730755  0.9748975458553062  0.0451767535521554  1.0000
  C   C47       1.0  0.4932675212206021  0.5108933989912074  0.4534832231975372  1.0000
  C   C48       1.0  0.024035333798110396  0.5120049674689254  0.0517764372228697  1.0000
  C   C49       1.0  0.47370816326699844  0.976808234341398  0.45680477801160174  1.0000
  C   C50       1.0  0.4850552266402203  0.5014085859348327  0.04896049522840679  1.0000
  C   C51       1.0  0.5061330753665629  0.013331012141932842  0.9475966161066438  1.0000
  C   C52       1.0  0.0023094890575165354  0.4760050845004428  0.547285998497415  1.0000
  C   C53       1.0  0.5054223012153755  0.48636956702003414  0.9514634155103892  1.0000
  C   C54       1.0  0.4726657079257492  0.9921332924521238  0.5552429716994566  1.0000
  C   C55       1.0  0.9817822482188066  0.4852954482140888  0.9546115849219916  1.0000
  C   C56       1.0  0.4304015157311411  0.8861895896557853  0.1840690801930833  1.0000
  C   C57       1.0  0.5117021565136283  0.5217203373692811  0.5516903123176887  1.0000
  C   C58       1.0  0.9805255383803269  0.46231240072467  0.5964033425627732  1.0000
  C   C59       1.0  0.5177726500201203  0.037312040026172555  0.8987142182415581  1.0000
  C   C60       1.0  0.5218441374938648  0.5088641061731138  0.6005556530836672  1.0000
  C   C61       1.0  0.9602148570694098  0.47056935492884855  0.905577774515443  1.0000
  C   C62       1.0  0.49168273137458113  0.01993986527327946  0.6036708415803816  1.0000
  C   C63       1.0  0.5191641438684017  0.4797533390649562  0.9024087618624179  1.0000
  C   C64       1.0  0.46749518728658773  0.9539618880837892  0.0942994447669321  1.0000
  C   C65       1.0  0.035140638374365055  0.5128884619936329  0.39991580026253354  1.0000
  C   C66       1.0  0.47418529411501703  0.5125365612276837  0.09788131747839658  1.0000
  C   C67       1.0  0.5672051510861849  0.4498167754597019  0.8148643809916294  1.0000
  C   C68       1.0  0.4669801930063712  0.9620930990659318  0.4073441385759153  1.0000
  C   C69       1.0  0.04924001713808231  0.526191718989253  0.1004354188070877  1.0000
  C   C70       1.0  0.4846690062120373  0.517658555123063  0.404156653510249  1.0000
  C   C71       1.0  0.8988167193226387  0.1805590285242642  0.4443546892189332  1.0000
  C   C72       1.0  0.1784030283858939  0.889952286670507  0.0289112297883918  1.0000
  C   C73       1.0  0.8103525219403026  0.7171751408509766  0.450849929668621  1.0000
  C   C74       1.0  0.11425948745410608  0.2960172973172206  0.03997310644654559  1.0000
  C   C75       1.0  0.27797344466707585  0.09977360091681216  0.4556054843897925  1.0000
  C   C76       1.0  0.7007847252037819  0.8092987074381596  0.03661127721315441  1.0000
  C   C77       1.0  0.21180297609593882  0.7592993937084529  0.9379599128744189  1.0000
  C   C78       1.0  0.5507153638520775  0.12696085232798268  0.6863358954515703  1.0000
  C   C79       1.0  0.7459675018446531  0.19633685971789552  0.5296695538310559  1.0000
  C   C80       1.0  0.5413491828434189  0.7779890747895309  0.9441466090869496  1.0000
  C   C81       1.0  0.45243606362284783  0.2515053063393537  0.5390893657082642  1.0000
  C   C82       1.0  0.23890159218721863  0.4535964422007693  0.9458164775691741  1.0000
  C   C83       1.0  0.7948679863491176  0.5473488118581924  0.5364407088629832  1.0000
  C   C84       1.0  0.8875442791475475  0.43193090572313475  0.8170989398674992  1.0000
  I   I1        1.0  0.16206517685522934  0.7331195771296279  0.5727761857753676  1.0000
  I   I2        1.0  0.5685553950244893  0.8099936173285867  0.44978935123799596  1.0000
  I   I3        1.0  0.8640898581077252  0.6085170815429776  0.07634170024176969  1.0000
  I   I4        1.0  0.22889917192512155  0.40612331691482245  0.4471113498317223  1.0000
  I   I5        1.0  0.7705223270293898  0.17507508340393924  0.9441385679422041  1.0000
  I   I6        1.0  0.25545734710436824  0.431245964007232  0.5754774740430336  1.0000
  I   I7        1.0  0.8121091520063077  0.5770501078443074  0.9490472256679608  1.0000
  I   I8        1.0  0.5592333019009176  0.8234855572871497  0.5786209538439381  1.0000
  I   I9        1.0  0.40364020950706697  0.22209866650313595  0.9451897795559034  1.0000
  I   I10       1.0  0.7391126852175134  0.13170453721356523  0.0717655574698099  1.0000
  I   I11       1.0  0.16611201153882146  0.766466178973758  0.44455039786939915  1.0000
  I   I12       1.0  0.3892545504710654  0.2438183486304837  0.07336574477677259  1.0000
  N   N1        1.0  0.8967414381912917  0.2902650289252903  0.43835858622739465  1.0000
  N   N2        1.0  0.3968014383546432  0.12597130917698238  0.5504887891643122  1.0000
  N   N3        1.0  0.11162767013841089  0.4065006865477443  0.944994668334388  1.0000
  N   N4        1.0  0.7221627791538909  0.59965254368678  0.54695587030416  1.0000
  N   N5        1.0  0.269104958408569  0.8583999336050566  0.037882743503075696  1.0000
  N   N6        1.0  0.7041328222459527  0.6016894534890441  0.4444256413949502  1.0000
  N   N7        1.0  0.14303660451183484  0.41853020119116013  0.046642353679381195  1.0000
  N   N8        1.0  0.38930525761613666  0.10191511963935082  0.4481910964904259  1.0000
  N   N9        1.0  0.5785060142311594  0.7148437452784366  0.04409584066540619  1.0000
  N   N10       1.0  0.2965533261275723  0.8859973050584529  0.9361065618244168  1.0000
  N   N11       1.0  0.8717265128679443  0.26489619730809  0.5405034612255335  1.0000
  N   N12       1.0  0.586484326473993  0.6965589424342509  0.9421369888684907  1.0000
  O   O1        1.0  0.5101596186543914  0.85860156206504  0.3062089483608402  1.0000
  O   O2        1.0  0.8813637802135686  0.5027100343792839  0.7013969004330249  1.0000
  O   O3        1.0  0.49189045771110074  0.3462053756425547  0.7992208586855368  1.0000
  O   O4        1.0  0.6446719621539997  0.14294706844766125  0.7063717511581303  1.0000
  O   O5        1.0  0.5213115969452318  0.6562294713640141  0.29766733477670465  1.0000
  O   O6        1.0  0.1715496507089043  0.4938073991843837  0.20130395188753877  1.0000
  O   O7        1.0  0.34575262455436473  0.8726016139011534  0.29585964322728836  1.0000
  O   O8        1.0  0.5158092038880183  0.6744712397552631  0.1967966540508641  1.0000
  O   O9        1.0  0.14976429080447665  0.4909063335662083  0.293600421204509  1.0000
  O   O10       1.0  0.32811482129937986  0.8550419064950531  0.2018860481686602  1.0000
  O   O11       1.0  0.6628082772634443  0.5235452264182497  0.7952985325626684  1.0000
  O   O12       1.0  0.36106223090076367  0.4890888962416112  0.2096391608063257  1.0000
  O   O13       1.0  0.4880029284192632  0.1713169771281784  0.700134648171506  1.0000
  O   O14       1.0  0.8678984231652433  0.3382694721095517  0.7947641396809716  1.0000
  O   O15       1.0  0.6844992504439773  0.5207587278595014  0.6946461994155582  1.0000
  O   O16       1.0  0.49190751494359825  0.15297972265081922  0.7923284237276816  1.0000
  O   O17       1.0  0.8549664445766607  0.31728062999204093  0.7008934039554617  1.0000
  O   O18       1.0  0.3551880296990931  0.6824049445696261  0.25214322048361737  1.0000
  O   O19       1.0  0.6842024475419421  0.35370113049030744  0.7494092589571365  1.0000
  O   O20       1.0  0.16020841217911627  0.6685518419567271  0.30139931771552847  1.0000
  O   O21       1.0  0.511602188851285  0.8775304220721625  0.2040031453214795  1.0000
  O   O22       1.0  0.34175675538102  0.4880449795007137  0.30215895196465675  1.0000
  O   O23       1.0  0.14740282885223635  0.6529230224286737  0.20923910649038646  1.0000
  O   O24       1.0  0.8615218341165659  0.5073946601032799  0.8031503459731866  1.0000
  O   O25       1.0  0.4969097811466767  0.3697715602845689  0.7069824397977696  1.0000
  O   O26       1.0  0.6649166169728673  0.15374029708153353  0.7982858569594029  1.0000
  O   O27       1.0  0.6765801421810238  0.8511378734771569  0.25287489233190996  1.0000
  O   O28       1.0  0.8655743868542274  0.6747126946752217  0.7462337883335265  1.0000
