data_image0
_chemical_formula_structural       K4H28C60N16O8
_chemical_formula_sum              "K4 H28 C60 N16 O8"
_cell_length_a       7.20152326749645
_cell_length_b       12.847246911359342
_cell_length_c       15.833844721031486
_cell_angle_alpha    89.99998621694822
_cell_angle_beta     89.9997255515502
_cell_angle_gamma    92.33453823983342

_space_group_name_H-M_alt    "P 1"
_space_group_IT_number       1

loop_
  _space_group_symop_operation_xyz
  'x, y, z'

loop_
  _atom_site_type_symbol
  _atom_site_label
  _atom_site_symmetry_multiplicity
  _atom_site_fract_x
  _atom_site_fract_y
  _atom_site_fract_z
  _atom_site_occupancy
  K   K1        1.0  0.9257220443169986  0.9856127914663233  0.2707087587810406  1.0000
  K   K2        1.0  0.5742770187107312  0.014384502054639398  0.7707110036378354  1.0000
  K   K3        1.0  0.07427272934108939  0.0143966762998318  0.729292770481031  1.0000
  K   K4        1.0  0.4257184396029673  0.985607015209503  0.229297472768323  1.0000
  H   H1        1.0  0.5894835162624189  0.6956840530826651  0.21176963369232032  1.0000
  H   H2        1.0  0.9105256541820098  0.30432406579608073  0.7117646730394755  1.0000
  H   H3        1.0  0.41053103554209963  0.30432826099884386  0.7882375795712451  1.0000
  H   H4        1.0  0.0894654621877322  0.6956659515031589  0.28823685622827366  1.0000
  H   H5        1.0  0.45781843245232784  0.5270948021579757  0.1622682516605209  1.0000
  H   H6        1.0  0.04219207708492692  0.47291491272337544  0.6622717948238233  1.0000
  H   H7        1.0  0.5422062809404977  0.4729212714454222  0.8377294882116146  1.0000
  H   H8        1.0  0.9577970167640331  0.5270696722706559  0.3377297344467891  1.0000
  H   H9        1.0  0.30220285095161614  0.4459929791114518  0.418998268236642  1.0000
  H   H10       1.0  0.1977839768964884  0.5540114087163701  0.9190026681161783  1.0000
  H   H11       1.0  0.69780376799158  0.5540108643301667  0.5809969454250707  1.0000
  H   H12       1.0  0.8022037965401126  0.44598567527133787  0.0809950718041819  1.0000
  H   H13       1.0  0.4337403374063626  0.6166682752471503  0.4684630199291036  1.0000
  H   H14       1.0  0.06624596721576381  0.38333530227726703  0.9684665106857153  1.0000
  H   H15       1.0  0.5662551873114551  0.38333572181135617  0.531532825305348  1.0000
  H   H16       1.0  0.9337376458569935  0.616661839314631  0.0315381763840108  1.0000
  H   H17       1.0  0.23383559509011323  0.3972329736900946  0.14059787632935183  1.0000
  H   H18       1.0  0.26619222378091223  0.602768717502542  0.640603990929705  1.0000
  H   H19       1.0  0.7661829354677749  0.6027777252159154  0.8593954426411302  1.0000
  H   H20       1.0  0.7338181258624203  0.397219473395083  0.359391854286585  1.0000
  H   H21       1.0  0.2459872785641863  0.26688700330598897  0.1816820141941804  1.0000
  H   H22       1.0  0.2540560714797735  0.7331199019949609  0.6816830940593877  1.0000
  H   H23       1.0  0.7540395726523884  0.7331235803866036  0.8183131994413061  1.0000
  H   H24       1.0  0.7459502086587763  0.2668691252964451  0.31831085648641994  1.0000
  H   H25       1.0  0.4558705557053244  0.34297281236351296  0.1611327212998432  1.0000
  H   H26       1.0  0.04417185967622572  0.6570364615942665  0.6611299250153522  1.0000
  H   H27       1.0  0.5441685948846599  0.6570360409373422  0.8388593345272497  1.0000
  H   H28       1.0  0.9558305325901059  0.3429549596638281  0.3388640255353081  1.0000
  C   C1        1.0  0.595269004097176  0.7980572089255631  0.46336738964411245  1.0000
  C   C2        1.0  0.9047428783027556  0.20194522132921824  0.963363085822529  1.0000
  C   C3        1.0  0.40472263270977044  0.2019491820968113  0.5366372974148774  1.0000
  C   C4        1.0  0.09526144563356101  0.7980508534451048  0.0366378118694612  1.0000
  C   C5        1.0  0.6062882957072729  0.7663370511579402  0.3706267935742956  1.0000
  C   C6        1.0  0.8937215330335351  0.23366469780487623  0.8706225147022479  1.0000
  C   C7        1.0  0.3936976123502802  0.23366785909964705  0.6293772619335414  1.0000
  C   C8        1.0  0.10627751624997472  0.76633379013807  0.1293790145549139  1.0000
  C   C9        1.0  0.747348525239353  0.7772287839143461  0.5149762661298427  1.0000
  C   C10       1.0  0.752661457320329  0.22277167248529392  0.014972015866916901  1.0000
  C   C11       1.0  0.25264847703806487  0.22277597272596236  0.4850284209223616  1.0000
  C   C12       1.0  0.24734739024496114  0.7772274598306764  0.9850257240263859  1.0000
  C   C13       1.0  0.43652419468975984  0.8524940615412008  0.48548287564593556  1.0000
  C   C14       1.0  0.06349256112810049  0.1475098614820567  0.9854756611184997  1.0000
  C   C15       1.0  0.5634704881258231  0.1475146274365855  0.5145237060846881  1.0000
  C   C16       1.0  0.9365058524179801  0.8524831749539603  0.0145246050226575  1.0000
  C   C17       1.0  0.2992696546555536  0.8719643092938228  0.4244340746305895  1.0000
  C   C18       1.0  0.20074197241315517  0.1280506516511082  0.9244315634115878  1.0000
  C   C19       1.0  0.7007143880229448  0.1280484272336579  0.5755762964647317  1.0000
  C   C20       1.0  0.7992440509639421  0.8719433363916878  0.0755661765111739  1.0000
  C   C21       1.0  0.39797292519159555  0.8909411080487216  0.5666040924032459  1.0000
  C   C22       1.0  0.10203871756286279  0.10905930314341111  0.066605291604823  1.0000
  C   C23       1.0  0.6020389683795672  0.10906032222246151  0.4333961737202401  1.0000
  C   C24       1.0  0.8979603317095981  0.8909391847987322  0.9333987638865366  1.0000
  C   C25       1.0  0.7773795922597699  0.8224735997639956  0.5954140484571653  1.0000
  C   C26       1.0  0.7226400548039392  0.1775204214737514  0.09540672185136151  1.0000
  C   C27       1.0  0.2226306420612616  0.17752551334822908  0.4045887439027567  1.0000
  C   C28       1.0  0.277363064000916  0.8224772300766291  0.9045929127249863  1.0000
  C   C29       1.0  0.8871598275613339  0.7104298605563671  0.487417401845157  1.0000
  C   C30       1.0  0.6128469821537692  0.28955468068201645  0.9874176252031361  1.0000
  C   C31       1.0  0.1128375625051632  0.28956631023003615  0.5125790749458545  1.0000
  C   C32       1.0  0.387150159895377  0.7104274527385145  0.012585167174400204  1.0000
  C   C33       1.0  0.5252236698968744  0.6669383388446234  0.3435418824184994  1.0000
  C   C34       1.0  0.9747702991980417  0.3330683305214705  0.8435386491145708  1.0000
  C   C35       1.0  0.47476926287023963  0.33306725418905375  0.6564621730803282  1.0000
  C   C36       1.0  0.02520590140367323  0.6669367141502606  0.1564679326398775  1.0000
  C   C37       1.0  0.5282683595395099  0.6403021622516364  0.2570537259268093  1.0000
  C   C38       1.0  0.9717388466182655  0.35970438940218225  0.7570498661118634  1.0000
  C   C39       1.0  0.47174582900540674  0.3597070366844265  0.7429484348689854  1.0000
  C   C40       1.0  0.028240993904574904  0.6402842239418192  0.2429478738190838  1.0000
  C   C41       1.0  0.4546764984369247  0.5451900673148771  0.229354930082593  1.0000
  C   C42       1.0  0.0453370400714874  0.45481487449578856  0.7293546777038813  1.0000
  C   C43       1.0  0.5453524905840793  0.4548150264654963  0.7706421782260904  1.0000
  C   C44       1.0  0.9546430729236519  0.545176075209298  0.27064053599240623  1.0000
  C   C45       1.0  0.3768780501656721  0.47414751037480585  0.2886204874937661  1.0000
  C   C46       1.0  0.12313099154574299  0.5258590088528478  0.7886244497190804  1.0000
  C   C47       1.0  0.6231474142841193  0.5258630925207228  0.7113721999092988  1.0000
  C   C48       1.0  0.8768515317178469  0.474128787300522  0.2113720270913788  1.0000
  C   C49       1.0  0.3700008770169135  0.5005200558223565  0.37499433680412864  1.0000
  C   C50       1.0  0.12999113157637515  0.4994897539436637  0.8749995472715426  1.0000
  C   C51       1.0  0.630003876569319  0.4994916138907613  0.6250021399766652  1.0000
  C   C52       1.0  0.8699902773458064  0.500500397770317  0.1250026135671618  1.0000
  C   C53       1.0  0.44267559208114443  0.5958788636995751  0.4018841073074597  1.0000
  C   C54       1.0  0.05731174866337342  0.4041286501802334  0.9018869872373259  1.0000
  C   C55       1.0  0.557307905724521  0.40412920011095105  0.5981148957349163  1.0000
  C   C56       1.0  0.9426802759105753  0.5958691549866302  0.0981145420288598  1.0000
  C   C57       1.0  0.3107441501480536  0.345387152352565  0.1820033906415404  1.0000
  C   C58       1.0  0.18929262646172867  0.6546229639000741  0.6820084335746374  1.0000
  C   C59       1.0  0.6892915666635347  0.6546279888481906  0.8179905598652795  1.0000
  C   C60       1.0  0.8107105168091167  0.34536298664633597  0.317992464119385  1.0000
  N   N1        1.0  0.0026838089112431063  0.6535079695793797  0.4677246459589028  1.0000
  N   N2        1.0  0.4973171210028654  0.34648994568643593  0.9677226167225614  1.0000
  N   N3        1.0  0.9973045094396085  0.34649378712830275  0.532274988636175  1.0000
  N   N4        1.0  0.5026960929999759  0.6534989855924779  0.0322770178413236  1.0000
  N   N5        1.0  0.8100414002154109  0.862000151800956  0.6606792651261132  1.0000
  N   N6        1.0  0.6899648320183899  0.13799088552357833  0.1606751839378262  1.0000
  N   N7        1.0  0.1899651278493977  0.13800291284967872  0.3393292112652873  1.0000
  N   N8        1.0  0.3100153717640453  0.8620008429658624  0.8393276084608844  1.0000
  N   N9        1.0  0.3563529804878769  0.9225717211182172  0.6330693657424078  1.0000
  N   N10       1.0  0.1436567852605748  0.07742944571206319  0.1330761457272231  1.0000
  N   N11       1.0  0.6436577987777596  0.07743206471619861  0.36692837414818064  1.0000
  N   N12       1.0  0.8563336708974632  0.9225668210836062  0.8669247519825022  1.0000
  N   N13       1.0  0.1854727074959186  0.8906596597711597  0.3744261502042576  1.0000
  N   N14       1.0  0.3145478834863624  0.1093450743922091  0.8744290337709375  1.0000
  N   N15       1.0  0.8145038563819611  0.10934850004722561  0.6255816946666712  1.0000
  N   N16       1.0  0.6854607824049594  0.8906525003478196  0.1255762848252644  1.0000
  O   O1        1.0  0.6829051309944776  0.8316189569121379  0.3226825565220324  1.0000
  O   O2        1.0  0.8171155753426617  0.16837721747432252  0.8226784803353696  1.0000
  O   O3        1.0  0.3170757085253797  0.16837822308423264  0.6773214989926899  1.0000
  O   O4        1.0  0.1828780176389131  0.8316221260631167  0.17732557516293213  1.0000
  O   O5        1.0  0.3024063163214095  0.3792566476428832  0.2685793401726357  1.0000
  O   O6        1.0  0.1976136315324624  0.6207466155905124  0.7685818390268084  1.0000
  O   O7        1.0  0.6976161929484449  0.620752436084601  0.7314095578829909  1.0000
  O   O8        1.0  0.8023798951581752  0.37924024816082647  0.2314089537426796  1.0000
