data_image0
_chemical_formula_structural       Cu12H36C60N24
_chemical_formula_sum              "Cu12 H36 C60 N24"
_cell_length_a       18.03899917649906
_cell_length_b       18.019834602363485
_cell_length_c       17.95675613186629
_cell_angle_alpha    93.66481685619308
_cell_angle_beta     93.63595262498507
_cell_angle_gamma    93.34469060710964

_space_group_name_H-M_alt    "P 1"
_space_group_IT_number       1

loop_
  _space_group_symop_operation_xyz
  'x, y, z'

loop_
  _atom_site_type_symbol
  _atom_site_label
  _atom_site_symmetry_multiplicity
  _atom_site_fract_x
  _atom_site_fract_y
  _atom_site_fract_z
  _atom_site_occupancy
  Cu  Cu1       1.0  0.7435407395921202  0.7425783972678486  0.8632585432689055  1.0000
  Cu  Cu2       1.0  0.866775966731346  0.7462165397125419  0.7446167539858521  1.0000
  Cu  Cu3       1.0  0.7454885647309695  0.8668030813009509  0.7455142886710746  1.0000
  Cu  Cu4       1.0  0.7423100699893794  0.26559431021853197  0.1487982448192824  1.0000
  Cu  Cu5       1.0  0.8975743405001069  0.24096396989573068  0.2391406887115366  1.0000
  Cu  Cu6       1.0  0.7392213284488277  0.1551060027768614  0.267060591155861  1.0000
  Cu  Cu7       1.0  0.2666875400406283  0.7399877914094263  0.15256332996990096  1.0000
  Cu  Cu8       1.0  0.1517797033255306  0.7408047761635573  0.2664343229684007  1.0000
  Cu  Cu9       1.0  0.23922909611467696  0.8975823332850222  0.23989058637850044  1.0000
  Cu  Cu10      1.0  0.23771252618645622  0.23627633244595356  0.9005515537195663  1.0000
  Cu  Cu11      1.0  0.1535317433964423  0.2654804894879844  0.7409648311556938  1.0000
  Cu  Cu12      1.0  0.2650926991191938  0.14883749356728518  0.7424307163576814  1.0000
  H   H1        1.0  0.801237720622794  0.6173084547930969  0.9639855459125286  1.0000
  H   H2        1.0  0.9701918956446817  0.6235695109824916  0.8034690592482718  1.0000
  H   H3        1.0  0.6221986102732585  0.968614975623325  0.8056386939671258  1.0000
  H   H4        1.0  0.6180907444142036  0.7984227407572674  0.9650336700648124  1.0000
  H   H5        1.0  0.9678564486536912  0.8045732443667574  0.6202583048932839  1.0000
  H   H6        1.0  0.8031985523921464  0.9699335233506121  0.621970954499311  1.0000
  H   H7        1.0  0.7893484920792203  0.3926585727214941  0.052052536034714984  1.0000
  H   H8        1.0  0.005818398317835299  0.3533624132567823  0.1553788861037688  1.0000
  H   H9        1.0  0.6001193597345847  0.0462952620833832  0.21034029629217343  1.0000
  H   H10       1.0  0.6106743934556178  0.200118306504308  0.03535683783825759  1.0000
  H   H11       1.0  0.0041334638975669994  0.15394750621692313  0.3496056052180308  1.0000
  H   H12       1.0  0.7864986507114436  0.06029892424052719  0.3955774281767717  1.0000
  H   H13       1.0  0.2054426113925061  0.6051872011132745  0.0402916539954958  1.0000
  H   H14       1.0  0.04148804072878679  0.6049608448314459  0.2060163383948748  1.0000
  H   H15       1.0  0.3513109774414787  0.004315951803611997  0.1554208241432065  1.0000
  H   H16       1.0  0.395778412132195  0.7863987975108555  0.058413779460479986  1.0000
  H   H17       1.0  0.055239277993941  0.7886597603782874  0.39342892439999133  1.0000
  H   H18       1.0  0.15221221003309893  0.0058860859523975  0.34980454609272027  1.0000
  H   H19       1.0  0.15061273063502512  0.3478889197873655  0.007062015001437793  1.0000
  H   H20       1.0  0.06105434027305281  0.39610537910674987  0.7871147673302802  1.0000
  H   H21       1.0  0.3931639341164654  0.053863200345631385  0.7898528231149414  1.0000
  H   H22       1.0  0.3490178205372771  0.15007832367174959  0.008612918069907506  1.0000
  H   H23       1.0  0.0430470641516791  0.20721220482384686  0.603137244972352  1.0000
  H   H24       1.0  0.2034512760634684  0.037926069960462896  0.6062773547023141  1.0000
  H   H25       1.0  0.8405085717087815  0.9936452328853419  0.49512097018113366  1.0000
  H   H26       1.0  0.059478649944793516  0.06188335862324118  0.42820149102485777  1.0000
  H   H27       1.0  0.989460320539429  0.8425588912892151  0.493506772331017  1.0000
  H   H28       1.0  0.007392868413937501  0.0076759475400081005  0.6506148689362165  1.0000
  H   H29       1.0  0.9919477650783862  0.4941270717124907  0.8400697679225928  1.0000
  H   H30       1.0  0.06158719737496198  0.4300802497620778  0.06106915641399979  1.0000
  H   H31       1.0  0.842246889642759  0.49545665392457044  0.9902379388456878  1.0000
  H   H32       1.0  0.007145764963183885  0.6512560652861693  0.005931094834068074  1.0000
  H   H33       1.0  0.4962219614060928  0.8394502920798883  0.9935184947236806  1.0000
  H   H34       1.0  0.4305032942313645  0.059134714948839893  0.0637840647790213  1.0000
  H   H35       1.0  0.492894989125375  0.9881170715120787  0.8424663214782271  1.0000
  H   H36       1.0  0.651151376984899  0.005523562871850599  0.006777315216702103  1.0000
  C   C1        1.0  0.8357636226902585  0.6267134362969244  0.9177528820559004  1.0000
  C   C2        1.0  0.9027970187134499  0.5963470629933879  0.900742006579563  1.0000
  C   C3        1.0  0.9219162280614057  0.6299221242547259  0.8358842928242964  1.0000
  C   C4        1.0  0.629152183076151  0.9201266221237534  0.8376603670435686  1.0000
  C   C5        1.0  0.5961081947484957  0.9003042147969396  0.9025648209745257  1.0000
  C   C6        1.0  0.6270279864459525  0.8333375910079752  0.9189712920680152  1.0000
  C   C7        1.0  0.920715051588104  0.8382199477350125  0.6285744078905465  1.0000
  C   C8        1.0  0.9020578854623764  0.9040136523968417  0.5965803225901781  1.0000
  C   C9        1.0  0.8367111975074906  0.9225226658189315  0.6294718735465281  1.0000
  C   C10       1.0  0.8367916907179164  0.3749700802884064  0.08507739574765338  1.0000
  C   C11       1.0  0.9127844788269857  0.3968763461446442  0.08326377077663241  1.0000
  C   C12       1.0  0.9474231927953126  0.35454603806861934  0.1370838253520787  1.0000
  C   C13       1.0  0.6098474616676908  0.09288867602688097  0.1760245489216317  1.0000
  C   C14       1.0  0.5837705541430012  0.10159869147124569  0.10200914996615752  1.0000
  C   C15       1.0  0.6154450401528705  0.17145992383034783  0.08665654483097279  1.0000
  C   C16       1.0  0.9454873913529481  0.13806679929472657  0.35245357255121956  1.0000
  C   C17       1.0  0.9105438065818205  0.0862083057952958  0.3962931736705215  1.0000
  C   C18       1.0  0.8343454129025715  0.0909142318414382  0.3762181969007301  1.0000
  C   C19       1.0  0.17407367473083465  0.6122706499203828  0.08960059022330567  1.0000
  C   C20       1.0  0.10226260622516037  0.5834383080161059  0.10180089215106139  1.0000
  C   C21       1.0  0.0903252364223803  0.6121773499137148  0.1742296141205557  1.0000
  C   C22       1.0  0.3538362185303967  0.9456294509039791  0.13867252066260247  1.0000
  C   C23       1.0  0.3976898295486961  0.9104223325204402  0.08657521789032781  1.0000
  C   C24       1.0  0.376785212940824  0.8342930153733403  0.0898500512272946  1.0000
  C   C25       1.0  0.08663987272403517  0.8363548139713116  0.37470926251244663  1.0000
  C   C26       1.0  0.08278083673511107  0.9126431716692449  0.39524618965023  1.0000
  C   C27       1.0  0.13550382501006197  0.9473064443984922  0.3521528853819191  1.0000
  C   C28       1.0  0.13575334366069566  0.35121986529099297  0.9479034396253638  1.0000
  C   C29       1.0  0.08533832038916242  0.3962255624528624  0.9119814175788222  1.0000
  C   C30       1.0  0.0906274742095476  0.376045974156078  0.8355876387031387  1.0000
  C   C31       1.0  0.3741813105946079  0.08508033297022169  0.8379216366720003  1.0000
  C   C32       1.0  0.3952834252696604  0.08157229964889723  0.9143441825105684  1.0000
  C   C33       1.0  0.35142332056623354  0.1335482360286306  0.949675928748384  1.0000
  C   C34       1.0  0.09125430007433272  0.17451324359913659  0.6109846738750377  1.0000
  C   C35       1.0  0.10208283121210832  0.10193363429728207  0.5824382821020535  1.0000
  C   C36       1.0  0.17317337160974944  0.08802507867704888  0.6126605512211896  1.0000
  C   C37       1.0  0.9464710721589852  0.948749239770606  0.5458389465143583  1.0000
  C   C38       1.0  0.9008874891138986  0.996295161808874  0.4945099893770575  1.0000
  C   C39       1.0  0.9412937052894321  0.038012817610756096  0.4504819303942256  1.0000
  C   C40       1.0  0.0256582372415437  0.028026477398000793  0.46332492449501933  1.0000
  C   C41       1.0  0.9928881126953398  0.9030325189738659  0.4934296982640732  1.0000
  C   C42       1.0  0.03477205205676627  0.9434655930999651  0.44957480655736504  1.0000
  C   C43       1.0  0.0033856628222891996  0.004637343680549599  0.5897604958312499  1.0000
  C   C44       1.0  0.04515306682759499  0.046494694947917  0.5476577091029713  1.0000
  C   C45       1.0  0.9479626340954468  0.5463920081569783  0.946067657924587  1.0000
  C   C46       1.0  0.9953244991147372  0.49447683990353386  0.9008061021038429  1.0000
  C   C47       1.0  0.03737105743439169  0.4510185121508313  0.9419673346927767  1.0000
  C   C48       1.0  0.02760397991274029  0.46482274398110945  0.02661367608104109  1.0000
  C   C49       1.0  0.9026493723832587  0.4950127080934194  0.993297343168777  1.0000
  C   C50       1.0  0.9432934926804534  0.4513687469715819  0.0355818722568415  1.0000
  C   C51       1.0  0.004003479505669788  0.5906093142227603  0.00282823303609088  1.0000
  C   C52       1.0  0.04604042763158128  0.5489040844090807  0.04528780905565098  1.0000
  C   C53       1.0  0.5462475037651018  0.9451561014552537  0.948328077338033  1.0000
  C   C54       1.0  0.4956949074909788  0.8999066076265407  0.9964123601150803  1.0000
  C   C55       1.0  0.45215859182601287  0.9406825797695361  0.03876882221781838  1.0000
  C   C56       1.0  0.4650319545343322  0.025025468987109896  0.02918978197556041  1.0000
  C   C57       1.0  0.4936305180161255  0.9918580387749785  0.9032269132512811  1.0000
  C   C58       1.0  0.45034999347901555  0.0340216067542869  0.9445015675942515  1.0000
  C   C59       1.0  0.590575782338206  0.001976300827301698  0.004252353194757999  1.0000
  C   C60       1.0  0.5490611041255775  0.04414648848859309  0.046826827926402394  1.0000
  N   N1        1.0  0.8696748637924188  0.67691740902373  0.8155571573654188  1.0000
  N   N2        1.0  0.8161709133016258  0.6749044687098548  0.8663406914684302  1.0000
  N   N3        1.0  0.6750938254334925  0.8144636803145812  0.8671889710106342  1.0000
  N   N4        1.0  0.6764390791063875  0.8683645654803626  0.8167491647636851  1.0000
  N   N5        1.0  0.8176179322183258  0.8710171797869676  0.677537571589653  1.0000
  N   N6        1.0  0.8697305052577348  0.8187224258622408  0.6769933505896617  1.0000
  N   N7        1.0  0.8957545174934011  0.3110183890097602  0.1682708764220848  1.0000
  N   N8        1.0  0.827160389032592  0.3240817289215414  0.1357128481143661  1.0000
  N   N9        1.0  0.6582633556226796  0.2016679553138161  0.1467352573183334  1.0000
  N   N10       1.0  0.6549666573995765  0.15268709829485513  0.2023909973243292  1.0000
  N   N11       1.0  0.8249089673218606  0.14128196485778943  0.3248981223495094  1.0000
  N   N12       1.0  0.8938762779555418  0.17083352156367942  0.3097868009331535  1.0000
  N   N13       1.0  0.15020944126545288  0.6560052095330918  0.202624527840662  1.0000
  N   N14       1.0  0.2023869146878141  0.6560200301670845  0.1499120027345739  1.0000
  N   N15       1.0  0.3250048384736813  0.8251103089014152  0.1396531412880577  1.0000
  N   N16       1.0  0.31037960902896333  0.8941663506039887  0.1702216515225388  1.0000
  N   N17       1.0  0.16801102700268436  0.8954065121535139  0.30951623485467655  1.0000
  N   N18       1.0  0.13736824502373676  0.8265982768438959  0.3238771367065283  1.0000
  N   N19       1.0  0.139863326288328  0.3235063575601274  0.826907124553685  1.0000
  N   N20       1.0  0.168193281169728  0.30771921360881993  0.896621857857717  1.0000
  N   N21       1.0  0.3077626967893536  0.1652469868844122  0.8979912005888693  1.0000
  N   N22       1.0  0.3223043161195278  0.13485638774685776  0.8286543480969897  1.0000
  N   N23       1.0  0.20210740016761966  0.1475578040330987  0.6569600482929944  1.0000
  N   N24       1.0  0.15105198255935903  0.20143007049323808  0.655972525789764  1.0000
