data_image0
_chemical_formula_structural       Y2H42C54O12
_chemical_formula_sum              "Y2 H42 C54 O12"
_cell_length_a       7.890570395
_cell_length_b       11.330831555268034
_cell_length_c       13.0625
_cell_angle_alpha    94.2166068684424
_cell_angle_beta     90.0
_cell_angle_gamma    90.0

_space_group_name_H-M_alt    "P 1"
_space_group_IT_number       1

loop_
  _space_group_symop_operation_xyz
  'x, y, z'

loop_
  _atom_site_type_symbol
  _atom_site_label
  _atom_site_symmetry_multiplicity
  _atom_site_fract_x
  _atom_site_fract_y
  _atom_site_fract_z
  _atom_site_occupancy
  Y   Y1        1.0  0.46375481325389956  0.5417453620363801  0.4746290223729445  1.0000
  Y   Y2        1.0  0.9637554218917757  0.4582554037049036  0.5253698781406015  1.0000
  H   H1        1.0  0.6376509869537799  0.1261477563219415  0.6087515291472343  1.0000
  H   H2        1.0  0.137655447657913  0.8738530094193351  0.391248902466792  1.0000
  H   H3        1.0  0.3022240320561735  0.2658023994318839  0.6043534257628096  1.0000
  H   H4        1.0  0.8022259080295555  0.7342001361956321  0.39564329098319456  1.0000
  H   H5        1.0  0.5042398458951993  0.9589925017200756  0.5975257897030062  1.0000
  H   H6        1.0  0.004240504592822  0.0410126887367852  0.4024764552194355  1.0000
  H   H7        1.0  0.3425633211146319  0.7790711769206028  0.627710137743307  1.0000
  H   H8        1.0  0.8425626624170022  0.2209340135362581  0.37229363827960776  1.0000
  H   H9        1.0  0.0347059827479015  0.7906940198134507  0.6663262740866641  1.0000
  H   H10       1.0  0.5347053240502788  0.2093094007571779  0.33367509240235904  1.0000
  H   H11       1.0  0.886058884213277  0.9854602653931437  0.6712024178836843  1.0000
  H   H12       1.0  0.3860608102464056  0.014540500348132902  0.32879648262986183  1.0000
  H   H13       1.0  0.0483932061796182  0.167867514608858  0.6390372917212233  1.0000
  H   H14       1.0  0.5483976168239977  0.8321350210186509  0.360960956125254  1.0000
  H   H15       1.0  0.3709072796377981  0.6263981356230133  0.7595979289371043  1.0000
  H   H16       1.0  0.8709053536046696  0.37360086023203826  0.24040085869327044  1.0000
  H   H17       1.0  0.139787105973852  0.4517165590166671  0.8645516829267592  1.0000
  H   H18       1.0  0.6397851799407235  0.5482824368383774  0.1354478702538557  1.0000
  H   H19       1.0  0.4124112500234531  0.7309178821763211  0.9044077290402441  1.0000
  H   H20       1.0  0.9124093239903244  0.2690802287356036  0.09559253324902528  1.0000
  H   H21       1.0  0.4756386182649379  0.8265536847825317  0.07583636659402519  1.0000
  H   H22       1.0  0.9756366922318023  0.1734470809587449  0.9241640650200013  1.0000
  H   H23       1.0  0.3727335100975324  0.7363443533670448  0.2333907666525477  1.0000
  H   H24       1.0  0.8727315840643968  0.2636555274311192  0.766610374070126  1.0000
  H   H25       1.0  0.2047824072419289  0.5510939011196783  0.2175471851766772  1.0000
  H   H26       1.0  0.7047817485442991  0.4489059796784858  0.7824531899957634  1.0000
  H   H27       1.0  0.1405576459596389  0.45403687986827634  0.044616227792552386  1.0000
  H   H28       1.0  0.6405569872620092  0.5459638858730003  0.9553849693717069  1.0000
  H   H29       1.0  0.1063294486963358  0.1821097891267129  0.2614231745887992  1.0000
  H   H30       1.0  0.6063325920052165  0.8178900916714511  0.7385787316841146  1.0000
  H   H31       1.0  0.4021699118242239  0.3307457199265755  0.18571272940967276  1.0000
  H   H32       1.0  0.9021730551331046  0.6692506210991169  0.8142874199964183  1.0000
  H   H33       1.0  0.1578871916267843  0.041990550880584  0.1382907848958794  1.0000
  H   H34       1.0  0.6578916022711709  0.9580075600313478  0.8617087118431499  1.0000
  H   H35       1.0  0.1477979336879116  0.9276681702233418  0.970486012962091  1.0000
  H   H36       1.0  0.647803611667797  0.0723290557454703  0.029512661785105396  1.0000
  H   H37       1.0  0.2875647622937123  0.0046724996554133  0.8179362890928558  1.0000
  H   H38       1.0  0.7875691729380989  0.9953256112565114  0.1820624420959263  1.0000
  H   H39       1.0  0.4407070497975099  0.197887439951792  0.8352486104045836  1.0000
  H   H40       1.0  0.9407114604418894  0.8021106709601398  0.1647501207842055  1.0000
  H   H41       1.0  0.4523006349783643  0.3128150024989225  0.004231502312492797  1.0000
  H   H42       1.0  0.9523050456227509  0.6871822234698897  0.9957687035351839  1.0000
  C   C1        1.0  0.6284336558409223  0.3150415193801734  0.5910460452312805  1.0000
  C   C2        1.0  0.128434314538552  0.6849574764748709  0.4089535079493273  1.0000
  C   C3        1.0  0.5498259039358047  0.1998590932154798  0.6045127354668054  1.0000
  C   C4        1.0  0.0498328993109496  0.8001434424120362  0.3954862779299191  1.0000
  C   C5        1.0  0.3798812823340896  0.1864902575536647  0.6081653355655021  1.0000
  C   C6        1.0  0.879879356300961  0.8135096232444994  0.3918327429562183  1.0000
  C   C7        1.0  0.2884138770806857  0.0769944758559546  0.6195595041299526  1.0000
  C   C8        1.0  0.7884170203895664  0.9230098296577864  0.3804411532504232  1.0000
  C   C9        1.0  0.3695043392360517  0.9658844387118108  0.6156434429092243  1.0000
  C   C10       1.0  0.8695062152094266  0.034118096915698  0.3843586326884533  1.0000
  C   C11       1.0  0.278419669304526  0.8642664206376836  0.6327404372588532  1.0000
  C   C12       1.0  0.778421545277908  0.135736999932945  0.3672624603306502  1.0000
  C   C13       1.0  0.104655298496958  0.8711079158717752  0.6536345862132578  1.0000
  C   C14       1.0  0.6046559071348341  0.128893734812614  0.34636666739259425  1.0000
  C   C15       1.0  0.021843794728603396  0.9802098978826166  0.6557754925300259  1.0000
  C   C16       1.0  0.52184820537299  0.0197899829155403  0.34422488264241474  1.0000
  C   C17       1.0  0.1124329364784771  0.0823846643788997  0.6381279788333529  1.0000
  C   C18       1.0  0.6124411491293742  0.9176169863054966  0.36187097812177876  1.0000
  C   C19       1.0  0.2072182260785738  0.4981707629771606  0.6763612261745704  1.0000
  C   C20       1.0  0.707217567380944  0.5018291178210035  0.3236391489978629  1.0000
  C   C21       1.0  0.281505631254177  0.5548849974310031  0.7698257273481132  1.0000
  C   C22       1.0  0.7815062398920531  0.4451139984240413  0.23017612248321476  1.0000
  C   C23       1.0  0.2290113273870631  0.5255774512968969  0.8632583130420457  1.0000
  C   C24       1.0  0.7290081340184287  0.47442242950126  0.1367397654796747  1.0000
  C   C25       1.0  0.2735556356442572  0.5841783844752371  0.9623428605983476  1.0000
  C   C26       1.0  0.7735537096111287  0.4158214963229199  0.037657514574085796  1.0000
  C   C27       1.0  0.3678301890366669  0.690224657904615  0.9726195918175549  1.0000
  C   C28       1.0  0.8678282630035383  0.3097752228935491  0.027380783354885797  1.0000
  C   C29       1.0  0.4027795002011416  0.744656624060859  0.06923652056808999  1.0000
  C   C30       1.0  0.902777574168006  0.2553423717941925  0.9307637981627577  1.0000
  C   C31       1.0  0.3439865388844296  0.6949122015930129  0.1575761705609295  1.0000
  C   C32       1.0  0.8439846128513011  0.3050876792051511  0.8424242046115039  1.0000
  C   C33       1.0  0.249948977231071  0.5901269721047271  0.1488068542495498  1.0000
  C   C34       1.0  0.7499495858689471  0.409872908693437  0.8511935209228909  1.0000
  C   C35       1.0  0.2147677436695616  0.5354879292592116  0.05211777079916399  1.0000
  C   C36       1.0  0.714765817636433  0.4645110665958327  0.9478817823814438  1.0000
  C   C37       1.0  0.2218635551504988  0.32655551426968543  0.3563844258622737  1.0000
  C   C38       1.0  0.7218666984593796  0.6734434815853589  0.6436158928685813  1.0000
  C   C39       1.0  0.2076098327489788  0.2476876138359785  0.2621278272365259  1.0000
  C   C40       1.0  0.7076129760578596  0.752311382019066  0.7378724914943291  1.0000
  C   C41       1.0  0.3090232870294258  0.2589573644253207  0.17996354864970954  1.0000
  C   C42       1.0  0.8090276976738124  0.7410398615434914  0.820035891647727  1.0000
  C   C43       1.0  0.3038690335389873  0.1869265345101283  0.08306091246421228  1.0000
  C   C44       1.0  0.8038747115188727  0.8130715764018036  0.9169393498250499  1.0000
  C   C45       1.0  0.2191032984251038  0.0771528806738218  0.0721085545424955  1.0000
  C   C46       1.0  0.7191089764049963  0.92284523023811  0.9278901766462866  1.0000
  C   C47       1.0  0.2139503122701711  0.0123139834668748  0.9775363894718365  1.0000
  C   C48       1.0  0.7139559902500565  0.9876832425019373  0.022462285275359796  1.0000
  C   C49       1.0  0.2932056726172831  0.0554788538631286  0.8919709718755796  1.0000
  C   C50       1.0  0.7932113505971685  0.9445201419919158  0.10802858130503519  1.0000
  C   C51       1.0  0.3788762852802634  0.1637082819610498  0.9016336430552201  1.0000
  C   C52       1.0  0.8788781612536383  0.8362907138940018  0.0983674412258679  1.0000
  C   C53       1.0  0.3852699928925745  0.2284055882693394  0.9965489305819657  1.0000
  C   C54       1.0  0.8852769382079657  0.7715916376994728  0.0034520408159509027  1.0000
  O   O1        1.0  0.5346495612881483  0.4067189714260309  0.5852484396608091  1.0000
  O   O2        1.0  0.0346514873212769  0.5932817943152529  0.4147519919532171  1.0000
  O   O3        1.0  0.7903459050250348  0.3188051824548879  0.5859525027852824  1.0000
  O   O4        1.0  0.2903478310581633  0.6811938134001565  0.4140470503953324  1.0000
  O   O5        1.0  0.2356090760153435  0.5442966530414068  0.5888839922729261  1.0000
  O   O6        1.0  0.7356084173177209  0.4557041126998698  0.4111156737908601  1.0000
  O   O7        1.0  0.10434480129874397  0.4119967721731683  0.6774633347993699  1.0000
  O   O8        1.0  0.6043466772721189  0.5880039935681083  0.3225363312644163  1.0000
  O   O9        1.0  0.1027593645845641  0.3220405344890196  0.4229772264341563  1.0000
  O   O10       1.0  0.6027574385514356  0.6779602312522641  0.5770255018305903  1.0000
  O   O11       1.0  0.348735245013934  0.3958996568830173  0.36846039438397327  1.0000
  O   O12       1.0  0.84873585365181  0.6041002239151467  0.631538449687987  1.0000
