data_image0
_chemical_formula_structural       Ag4H12C16N12O12
_chemical_formula_sum              "Ag4 H12 C16 N12 O12"
_cell_length_a       7.164580114203655
_cell_length_b       7.164556426383619
_cell_length_c       12.94430547479057
_cell_angle_alpha    91.34703644458652
_cell_angle_beta     91.34775729118051
_cell_angle_gamma    109.891874566586

_space_group_name_H-M_alt    "P 1"
_space_group_IT_number       1

loop_
  _space_group_symop_operation_xyz
  'x, y, z'

loop_
  _atom_site_type_symbol
  _atom_site_label
  _atom_site_symmetry_multiplicity
  _atom_site_fract_x
  _atom_site_fract_y
  _atom_site_fract_z
  _atom_site_occupancy
  Ag  Ag1       1.0  0.4114840821490161  0.5094576226733807  0.855242117765755  1.0000
  Ag  Ag2       1.0  0.49054051296632645  0.5885179009555729  0.6447566484681602  1.0000
  Ag  Ag3       1.0  0.5885148377564987  0.4905348528500184  0.14475605094526858  1.0000
  Ag  Ag4       1.0  0.5094550840296392  0.411485038239519  0.3552416108018548  1.0000
  H   H1        1.0  0.7109725904102008  0.2879819207361933  0.9093479284843368  1.0000
  H   H2        1.0  0.7120190741140533  0.2890298182376299  0.5906534781934808  1.0000
  H   H3        1.0  0.28903155105484757  0.7120134929622638  0.09065575152617097  1.0000
  H   H4        1.0  0.2879732233400957  0.7109716655963895  0.4093462658374348  1.0000
  H   H5        1.0  0.7095457763164743  0.9371836335506459  0.91146947171746  1.0000
  H   H6        1.0  0.06281523963640004  0.29046018253225714  0.5885343075510007  1.0000
  H   H7        1.0  0.2904578434313621  0.0628102925388632  0.08853263772390817  1.0000
  H   H8        1.0  0.9371770628791649  0.709541306336867  0.4114685267715927  1.0000
  H   H9        1.0  0.17949485211610036  0.1006894468684294  0.7362592045554024  1.0000
  H   H10       1.0  0.8993092940229204  0.8205073437110643  0.7637394192099405  1.0000
  H   H11       1.0  0.820518313187186  0.8993118290934559  0.26373848396903543  1.0000
  H   H12       1.0  0.10068925197556669  0.1795000371518114  0.23625893381078095  1.0000
  C   C1        1.0  0.5906273062995098  0.16713015128387812  0.8717603146239483  1.0000
  C   C2        1.0  0.8328731113449805  0.4093759175045122  0.6282419054809265  1.0000
  C   C3        1.0  0.40937874452969664  0.8328667326408095  0.1282426357177542  1.0000
  C   C4        1.0  0.1671263081753763  0.590629965919362  0.37175721217023033  1.0000
  C   C5        1.0  0.5902695901805753  0.9727159826263543  0.8722062771694823  1.0000
  C   C6        1.0  0.027277839718514846  0.4097278614706  0.6277975599788306  1.0000
  C   C7        1.0  0.4097283002094229  0.0272735315256938  0.1277972487053844  1.0000
  C   C8        1.0  0.9727151702024273  0.5902676610789613  0.3722059801851214  1.0000
  C   C9        1.0  0.29459342069886657  0.8674258267815985  0.7767307104467277  1.0000
  C   C10       1.0  0.1325771937291548  0.705408280153179  0.7232703122776128  1.0000
  C   C11       1.0  0.7054089711917368  0.1325725792773156  0.22326989515705978  1.0000
  C   C12       1.0  0.8674211912142554  0.2945946368642396  0.27673107224571675  1.0000
  C   C13       1.0  0.2962701583418408  0.0631163673976403  0.7764845403146622  1.0000
  C   C14       1.0  0.9368841376606196  0.7037319774280564  0.7235138735956496  1.0000
  C   C15       1.0  0.7037364015510332  0.936881991548226  0.22351225486699625  1.0000
  C   C16       1.0  0.06311702763810695  0.2962709098590324  0.27648600074347474  1.0000
  N   N1        1.0  0.44177515452025756  0.2111811532494058  0.8254292561495757  1.0000
  N   N2        1.0  0.7888208936722021  0.5582299719733966  0.6745738415278025  1.0000
  N   N3        1.0  0.5582355898244911  0.7888171749475104  0.17457377205788296  1.0000
  N   N4        1.0  0.21117800666165448  0.4417744263590818  0.3254252507000643  1.0000
  N   N5        1.0  0.4411319268942079  0.82289221438554  0.8266077937999723  1.0000
  N   N6        1.0  0.17711014599169764  0.5588668079369369  0.6733946252700206  1.0000
  N   N7        1.0  0.5588654196762022  0.17710773244908745  0.17339353987675563  1.0000
  N   N8        1.0  0.8228875561794308  0.4411301576260769  0.3266082201867702  1.0000
  N   N9        1.0  0.07654906955703915  0.2847505647507802  0.984945750017637  1.0000
  N   N10       1.0  0.7152544748554842  0.923453127069436  0.5150527201138502  1.0000
  N   N11       1.0  0.9234496621296128  0.7152493621835845  0.015051738275317895  1.0000
  N   N12       1.0  0.2847425135834953  0.0765497985192596  0.48494555663697964  1.0000
  O   O1        1.0  0.25154212544035187  0.3816259168649622  0.022964180541229996  1.0000
  O   O2        1.0  0.6183662143923028  0.748453150200227  0.47703342376463803  1.0000
  O   O3        1.0  0.7484533054391205  0.6183725534495607  0.9770340199397153  1.0000
  O   O4        1.0  0.3816283442306627  0.2515468188120736  0.5229647846587824  1.0000
  O   O5        1.0  0.04217615263902988  0.296756770479135  0.8890144227762135  1.0000
  O   O6        1.0  0.7032529500420635  0.9578229200988699  0.6109862221619338  1.0000
  O   O7        1.0  0.9578229308522735  0.7032401714072735  0.11098225957804428  1.0000
  O   O8        1.0  0.2967440383969161  0.0421800054898327  0.3890120545889033  1.0000
  O   O9        1.0  0.9443349788284223  0.1814975945140134  0.0419205809002108  1.0000
  O   O10       1.0  0.8185091913568385  0.0556673572615978  0.4580757937557393  1.0000
  O   O11       1.0  0.05566287933635992  0.8185038298593525  0.9580761427623088  1.0000
  O   O12       1.0  0.18148727663028527  0.944334081976933  0.5419216849988757  1.0000
