data_image0
_chemical_formula_structural       Mg6H27C54N12O18F3
_chemical_formula_sum              "Mg6 H27 C54 N12 O18 F3"
_cell_length_a       6.73424387137636
_cell_length_b       28.596930749593877
_cell_length_c       28.600933813786206
_cell_angle_alpha    119.3866331347801
_cell_angle_beta     94.5281274175659
_cell_angle_gamma    94.4712418712726

_space_group_name_H-M_alt    "P 1"
_space_group_IT_number       1

loop_
  _space_group_symop_operation_xyz
  'x, y, z'

loop_
  _atom_site_type_symbol
  _atom_site_label
  _atom_site_symmetry_multiplicity
  _atom_site_fract_x
  _atom_site_fract_y
  _atom_site_fract_z
  _atom_site_occupancy
  Mg  Mg1       1.0  0.9897361997735316  0.3756057332385724  0.6955579629634556  1.0000
  Mg  Mg2       1.0  0.5583590219393527  0.6990005154871  0.373659218145832  1.0000
  Mg  Mg3       1.0  0.2945803583631275  0.3044767506770754  0.6800727741218324  1.0000
  Mg  Mg4       1.0  0.18493581326140435  0.6263189496477751  0.3253198395517956  1.0000
  Mg  Mg5       1.0  0.6143104238746487  0.31991926139311744  0.6244277810174524  1.0000
  Mg  Mg6       1.0  0.8593392434636301  0.6746544897889707  0.3009982952524979  1.0000
  H   H1        1.0  0.7049377502214611  0.4905812933183001  0.5600353034220689  1.0000
  H   H2        1.0  0.6873727301430462  0.4365667887897117  0.5975279039308177  1.0000
  H   H3        1.0  0.3112713041008562  0.36810979380015146  0.5241942666364494  1.0000
  H   H4        1.0  0.140352976097482  0.4253780489439976  0.4947633794147776  1.0000
  H   H5        1.0  0.3341081491543178  0.4829256237889438  0.4468734294140901  1.0000
  H   H6        1.0  0.2194130517497399  0.6003373992686889  0.4322053363684332  1.0000
  H   H7        1.0  0.8483536584365794  0.5236588357751516  0.37186964481468016  1.0000
  H   H8        1.0  0.6239962689417806  0.48343302734294713  0.411505101829313  1.0000
  H   H9        1.0  0.8503472789384573  0.6302889955926503  0.5282107997481944  1.0000
  H   H10       1.0  0.14468772292794094  0.4399002078536469  0.9303244413078743  1.0000
  H   H11       1.0  0.09013246190412622  0.402459110257432  0.8388925097692734  1.0000
  H   H12       1.0  0.7873463347018302  0.47596558766299785  0.8441050568299389  1.0000
  H   H13       1.0  0.6456110159517223  0.5052925891877251  0.9306941405458103  1.0000
  H   H14       1.0  0.8864545607009474  0.5531671911282814  0.03608366446614753  1.0000
  H   H15       1.0  0.7868857068526012  0.5678531783931148  0.16817582850185883  1.0000
  H   H16       1.0  0.47587799578555945  0.6281299693304306  0.1517541289702606  1.0000
  H   H17       1.0  0.21146800323884923  0.5885858764170422  0.07194569813346871  1.0000
  H   H18       1.0  0.32153849170757093  0.471779435106761  0.1019627527607625  1.0000
  H   H19       1.0  0.21441147934184804  0.06969282398898001  0.5095146509711626  1.0000
  H   H20       1.0  0.2515069741372288  0.16109018114231333  0.5635143516418637  1.0000
  H   H21       1.0  0.9438021176568796  0.1558318962568634  0.6317539156854649  1.0000
  H   H22       1.0  0.7154445794738535  0.0692333541173795  0.5744914652871529  1.0000
  H   H23       1.0  0.8507357323440488  0.9639333033456411  0.5170864754340414  1.0000
  H   H24       1.0  0.6183453952119679  0.8318649231955887  0.39977042657091727  1.0000
  H   H25       1.0  0.32409801130469157  0.8480922090548972  0.4762973722808397  1.0000
  H   H26       1.0  0.1398852601605328  0.9280025255590871  0.5165653975467492  1.0000
  H   H27       1.0  0.21977749537868602  0.8979348103260559  0.36972945122323597  1.0000
  C   C1        1.0  0.8234280882916349  0.5582540205357631  0.5343366725364475  1.0000
  C   C2        1.0  0.9040375896290126  0.5097614404109905  0.5213256643865448  1.0000
  C   C3        1.0  0.9092500095649995  0.4374132545027861  0.5466523249741185  1.0000
  C   C4        1.0  0.8243386393251979  0.42161781068382703  0.580838560098968  1.0000
  C   C5        1.0  0.9168275602456786  0.3886333439462248  0.5972433562770191  1.0000
  C   C6        1.0  0.10257956675700092  0.3712159353723266  0.5779095869008231  1.0000
  C   C7        1.0  0.17384516860839477  0.3836598983258241  0.5398262301837704  1.0000
  C   C8        1.0  0.0806482446882272  0.41550386710249415  0.5233706538105807  1.0000
  C   C9        1.0  0.2318642983759389  0.3448600191590073  0.5988654084593178  1.0000
  C   C10       1.0  0.1324388793496922  0.5337936845607558  0.4786608767422534  1.0000
  C   C11       1.0  0.4081676209342788  0.5404901601285488  0.42599838778220084  1.0000
  C   C12       1.0  0.35652677424896945  0.5832286621201206  0.4191195378460364  1.0000
  C   C13       1.0  0.47744410975939633  0.6044078272009301  0.39414116476386596  1.0000
  C   C14       1.0  0.6632328718166745  0.5837687290860174  0.37859522740396295  1.0000
  C   C15       1.0  0.7087211481509568  0.5396551097970742  0.3848942663442898  1.0000
  C   C16       1.0  0.5844926210761372  0.5175361969980016  0.4071510120509103  1.0000
  C   C17       1.0  0.808308861980734  0.6057554054355236  0.3562926949535664  1.0000
  C   C18       1.0  0.9095530438672341  0.5924853479726905  0.5184121645620932  1.0000
  C   C19       1.0  0.2885323985351178  0.4656575692141871  0.023811355808810244  1.0000
  C   C20       1.0  0.38220179574408764  0.4786800391115236  0.9883653240954544  1.0000
  C   C21       1.0  0.3627547225280309  0.453329012928137  0.8907235162387508  1.0000
  C   C22       1.0  0.243870915765406  0.4191517192077185  0.8407080922740278  1.0000
  C   C23       1.0  0.32006057272189276  0.4027902295534815  0.791387270794253  1.0000
  C   C24       1.0  0.5251380357675542  0.4221558956923985  0.7933643396444978  1.0000
  C   C25       1.0  0.6343666119076942  0.46024409281945095  0.8439377725385313  1.0000
  C   C26       1.0  0.5575056879945349  0.47664536271347663  0.892188989557141  1.0000
  C   C27       1.0  0.6333832761563797  0.4012229080998041  0.7460731635269724  1.0000
  C   C28       1.0  0.6530429383041536  0.5214296728387495  0.05515786611348263  1.0000
  C   C29       1.0  0.9814261265105271  0.5741316174489839  0.11453962490401177  1.0000
  C   C30       1.0  0.9369303937564835  0.5809800741400011  0.1641495654433598  1.0000
  C   C31       1.0  0.08303058045874681  0.6059274387875461  0.2102752691562273  1.0000
  C   C32       1.0  0.2842727527789464  0.6214735159226379  0.2051710883072461  1.0000
  C   C33       1.0  0.32325215865537865  0.6151737655338536  0.1547559968195742  1.0000
  C   C34       1.0  0.1765429602797185  0.5929731450159184  0.11041497485589964  1.0000
  C   C35       1.0  0.4518058699298066  0.6437387414098267  0.24945126612582413  1.0000
  C   C36       1.0  0.39052975972138165  0.4816093906313697  0.07399244283819685  1.0000
  C   C37       1.0  0.264658572585482  0.9761243788878531  0.4417470842508208  1.0000
  C   C38       1.0  0.393803492957403  0.011596000455938296  0.4902256701506857  1.0000
  C   C39       1.0  0.4723515349241935  0.1092199966615084  0.5625192020600025  1.0000
  C   C40       1.0  0.4034911428238673  0.1592517424540247  0.5783701587164956  1.0000
  C   C41       1.0  0.5290279786202133  0.20858624208655396  0.6113362681382526  1.0000
  C   C42       1.0  0.732272601980057  0.2065847956488156  0.6286955782632759  1.0000
  C   C43       1.0  0.790892028672495  0.1560017361599009  0.6161936143220926  1.0000
  C   C44       1.0  0.6657440616235702  0.10775058635451981  0.5843508743787993  1.0000
  C   C45       1.0  0.8877458990468979  0.2539011851931718  0.6551143963556569  1.0000
  C   C46       1.0  0.5980801938043997  0.944845476451981  0.4662526971855172  1.0000
  C   C47       1.0  0.8669576957326511  0.8854374611273101  0.45958860592067197  1.0000
  C   C48       1.0  0.772530401314448  0.8358532764897078  0.41687364443016856  1.0000
  C   C49       1.0  0.8723809186350093  0.7896805459735318  0.3956623965726606  1.0000
  C   C50       1.0  0.07876806649523634  0.7947370167224438  0.41629630643219434  1.0000
  C   C51       1.0  0.16837785754950116  0.8451471987889787  0.4603810609808716  1.0000
  C   C52       1.0  0.06628769869801954  0.8895358786996184  0.4825204813738111  1.0000
  C   C53       1.0  0.2021288670191339  0.7504939146175289  0.3942759536805838  1.0000
  C   C54       1.0  0.31661877158904883  0.9259425275499141  0.407546510749775  1.0000
  N   N1        1.0  0.821427683106137  0.4762989956456496  0.5387607132681893  1.0000
  N   N2        1.0  0.057903566967745214  0.49775186050082  0.4926941569927408  1.0000
  N   N3        1.0  0.2927151393965559  0.5175477401951412  0.44981416293972387  1.0000
  N   N4        1.0  0.06747415708047548  0.5809615631634202  0.49038309492408405  1.0000
  N   N5        1.0  0.2824629129841441  0.4612040588206199  0.9374298770100182  1.0000
  N   N6        1.0  0.5645547182657396  0.5073629620839597  0.005056594071369665  1.0000
  N   N7        1.0  0.8421016587880954  0.5502969155462196  0.0677791121067698  1.0000
  N   N8        1.0  0.5763670491365573  0.5096940858253234  0.09057239941163432  1.0000
  N   N9        1.0  0.3451278491544584  0.06254686260670181  0.5236920403938115  1.0000
  N   N10       1.0  0.5595775212131926  0.9949358561706136  0.5022507943080826  1.0000
  N   N11       1.0  0.774551668224916  0.932233875170752  0.48252749065773065  1.0000
  N   N12       1.0  0.48601009702811393  0.909404852012074  0.41909544505510615  1.0000
  O   O1        1.0  0.3940386966192405  0.3294028693026405  0.579546199214974  1.0000
  O   O2        1.0  0.18274994115523666  0.3401916263375995  0.6395209614706658  1.0000
  O   O3        1.0  0.8322400019493229  0.3765199084689853  0.6315920833613546  1.0000
  O   O4        1.0  0.9708924114843211  0.5856677528183241  0.3427249347126704  1.0000
  O   O5        1.0  0.7710530210789412  0.6472152691623734  0.3513910677625276  1.0000
  O   O6        1.0  0.40843256838313374  0.6426418303033189  0.385444659030007  1.0000
  O   O7        1.0  0.8148753515264885  0.4205827346505517  0.7499646594807956  1.0000
  O   O8        1.0  0.5436841170157295  0.36053974437117375  0.7007407585227269  1.0000
  O   O9        1.0  0.20116816567595214  0.3684608698386072  0.7449053576349982  1.0000
  O   O10       1.0  0.6278573704467405  0.6573128609735402  0.24292427785780982  1.0000
  O   O11       1.0  0.4197070078571628  0.648587184641123  0.2957974202200049  1.0000
  O   O12       1.0  0.022981066680685665  0.6145783180946224  0.2571913278180843  1.0000
  O   O13       1.0  0.06544002805974002  0.2500059582849019  0.6705562764799922  1.0000
  O   O14       1.0  0.8430923470731454  0.2992588131559586  0.6598675408000715  1.0000
  O   O15       1.0  0.45648924861274753  0.2550655262808945  0.6235199314370519  1.0000
  O   O16       1.0  0.3848553068458712  0.7570530050260158  0.41436829215518134  1.0000
  O   O17       1.0  0.12375136672911692  0.7041474229816346  0.3527827511011382  1.0000
  O   O18       1.0  0.7653410626007399  0.742778782993632  0.35736641249116724  1.0000
  F   F1        1.0  0.6628946164553112  0.5701687055894525  0.5630483685036295  1.0000
  F   F2        1.0  0.09934006568008868  0.4368893793010642  0.006937738118111327  1.0000
  F   F3        1.0  0.09226542011651886  0.9929570749799622  0.42980376895413736  1.0000
