data_image0
_chemical_formula_structural       Dy4H36C16S6N4O36
_chemical_formula_sum              "Dy4 H36 C16 S6 N4 O36"
_cell_length_a       6.5772359742984925
_cell_length_b       12.326959777889234
_cell_length_c       12.952
_cell_angle_alpha    76.32380600391777
_cell_angle_beta     76.00504907179108
_cell_angle_gamma    74.66443179233026

_space_group_name_H-M_alt    "P 1"
_space_group_IT_number       1

loop_
  _space_group_symop_operation_xyz
  'x, y, z'

loop_
  _atom_site_type_symbol
  _atom_site_label
  _atom_site_symmetry_multiplicity
  _atom_site_fract_x
  _atom_site_fract_y
  _atom_site_fract_z
  _atom_site_occupancy
  Dy  Dy1       1.0  0.3877337886635742  0.9641824919011555  0.8602561451369726  1.0000
  Dy  Dy2       1.0  0.6122593046860062  0.035815382865649795  0.1397480379893494  1.0000
  Dy  Dy3       1.0  0.721260025339973  0.5554944657517211  0.6328593549614041  1.0000
  Dy  Dy4       1.0  0.2787448969467193  0.44450512070419274  0.36713681364719974  1.0000
  H   H1        1.0  0.7494120245220087  0.19735946567540447  0.6364435050520072  1.0000
  H   H2        1.0  0.25059163943002727  0.802646967536937  0.36355359364701917  1.0000
  H   H3        1.0  0.6312481254211092  0.25256143936194053  0.5182799877900734  1.0000
  H   H4        1.0  0.3687578117469741  0.7474432821612851  0.4817164448293668  1.0000
  H   H5        1.0  0.9999208580969636  0.023125775674174096  0.6452108087424123  1.0000
  H   H6        1.0  7.552335005559432e-05  0.9768755224708484  0.35479065607055565  1.0000
  H   H7        1.0  0.1809499244651178  0.11081475275865667  0.5674873953301615  1.0000
  H   H8        1.0  0.8190480238878095  0.8891865453863659  0.43251542121659275  1.0000
  H   H9        1.0  0.6595502897637573  0.09648021233577  0.4407208230660089  1.0000
  H   H10       1.0  0.34045079240097903  0.9035210858092455  0.5592792923775889  1.0000
  H   H11       1.0  0.6933755750856818  0.014431250857398896  0.5720596254824457  1.0000
  H   H12       1.0  0.30662202011217243  0.9855709031321707  0.4279414976856304  1.0000
  H   H13       1.0  0.0814405579962241  0.3363537561953435  0.8964677540182111  1.0000
  H   H14       1.0  0.9185671449472109  0.6636466861051176  0.10353251300541191  1.0000
  H   H15       1.0  0.9028558429095456  0.27841650331652085  0.011996142913630983  1.0000
  H   H16       1.0  0.09714645300603313  0.7215856506730489  0.988001314640478  1.0000
  H   H17       1.0  0.769653184962209  0.3891944547593837  0.13838973558561923  1.0000
  H   H18       1.0  0.2303466834516925  0.6108059875410774  0.8616114935844053  1.0000
  H   H19       1.0  0.9102908501411168  0.48411874169730135  0.16041653278170998  1.0000
  H   H20       1.0  0.08970937142785829  0.5158808447586125  0.8395840735223957  1.0000
  H   H21       1.0  0.3788071201820955  0.4088686093501792  0.9462128467376091  1.0000
  H   H22       1.0  0.6211946682927872  0.5911309771057275  0.05378833921874813  1.0000
  H   H23       1.0  0.2676480641914196  0.4960911511531306  0.04656874495827881  1.0000
  H   H24       1.0  0.7323518042224822  0.5039092911473374  0.9534317121302108  1.0000
  H   H25       1.0  0.991220957153203  0.1554581721913806  0.42423590458144395  1.0000
  H   H26       1.0  0.008782398227580868  0.8445414142645261  0.5757643168641026  1.0000
  H   H27       1.0  0.1627276315456497  0.3292853360298054  0.1097093073929969  1.0000
  H   H28       1.0  0.8372706699623436  0.6707151062706557  0.8902928862878382  1.0000
  H   H29       1.0  0.7728190899576575  0.34066721274387385  0.792016803557374  1.0000
  H   H30       1.0  0.22717991786047517  0.6593315178674857  0.20798105606549197  1.0000
  H   H31       1.0  0.5388076509526627  0.3772965037796964  0.7764744453888923  1.0000
  H   H32       1.0  0.46119151115109946  0.6227056502098804  0.22352262494224825  1.0000
  H   H33       1.0  0.3784054231700509  0.1856318277618101  0.7177142799907088  1.0000
  H   H34       1.0  0.6215888839303644  0.8143669028495495  0.2822872452461311  1.0000
  H   H35       1.0  0.16262620301716876  0.1526501462120748  0.730545299818573  1.0000
  H   H36       1.0  0.8373665371773387  0.8473485843992847  0.2694587340921403  1.0000
  C   C1        1.0  0.9081891403517162  0.3151904320818488  0.5123882445019419  1.0000
  C   C2        1.0  0.09182553652548359  0.6848082985295108  0.4876069187465931  1.0000
  C   C3        1.0  0.7825849648137435  0.22181779131903306  0.5481606447400582  1.0000
  C   C4        1.0  0.217420111758571  0.778185218515091  0.45183627873988297  1.0000
  C   C5        1.0  0.08316967452238092  0.05326091823970099  0.5631260935186404  1.0000
  C   C6        1.0  0.9168263537695651  0.9467412357498686  0.43687522207871876  1.0000
  C   C7        1.0  0.7771252401462049  0.0445509882209763  0.4901118189512843  1.0000
  C   C8        1.0  0.22287513570839218  0.9554520216131479  0.5098887701426237  1.0000
  C   C9        1.0  0.23108886815626306  0.18889173966525155  0.0013039070932591968  1.0000
  C   C10       1.0  0.7689017976916404  0.8111044234124449  0.9987001872413117  1.0000
  C   C11       1.0  0.061754468126565605  0.2992075350493479  0.9828942765629948  1.0000
  C   C12       1.0  0.9382469671932443  0.7007929072511201  0.017106760177746642  1.0000
  C   C13       1.0  0.8744839942189842  0.4488228564754877  0.09823196012401074  1.0000
  C   C14       1.0  0.12551587419491742  0.5511775858249734  0.9017692690460138  1.0000
  C   C15       1.0  0.22951127894953777  0.45976226155551086  0.9856879655658946  1.0000
  C   C16       1.0  0.7704885894643638  0.5402381807449572  0.014314035685664774  1.0000
  S   S1        1.0  0.7212515973439508  0.5749075877537634  0.34880697017030843  1.0000
  S   S2        1.0  0.27875019113093197  0.4250919987021504  0.6511903553783894  1.0000
  S   S3        1.0  0.5210875177598596  0.7620936292243314  0.7430778858769926  1.0000
  S   S4        1.0  0.47891305696418834  0.2379051013870281  0.2569220975611941  1.0000
  S   S5        1.0  0.1628212613974896  0.9104140578413576  0.1479598440604164  1.0000
  S   S6        1.0  0.8371695587360433  0.089585528614549  0.852046549308561  1.0000
  N   N1        1.0  0.9122463228216516  0.1206509742094966  0.49980990419810933  1.0000
  N   N2        1.0  0.0877544061880116  0.879351179780073  0.5001900620298798  1.0000
  N   N3        1.0  0.08378127745920243  0.3805204702118985  0.0474044536406097  1.0000
  N   N4        1.0  0.9162158102979558  0.6194791162440153  0.9525988537666522  1.0000
  O   O1        1.0  0.8415557293952531  0.39926774515149077  0.5598066556072041  1.0000
  O   O2        1.0  0.1584782577935258  0.6007335529935317  0.44018633049537936  1.0000
  O   O3        1.0  0.07015497181144069  0.3024306456369956  0.4364322798835332  1.0000
  O   O4        1.0  0.9298550043480418  0.6975680849743567  0.5635596002451849  1.0000
  O   O5        1.0  0.6865871112533739  0.6192138044324976  0.45024200611231907  1.0000
  O   O6        1.0  0.3134099765037845  0.3807857820234162  0.549754352561159  1.0000
  O   O7        1.0  0.63562846085523  0.6699713773538534  0.264284758875398  1.0000
  O   O8        1.0  0.3643736807747189  0.3300273532574991  0.7357127158889086  1.0000
  O   O9        1.0  0.6111297203224666  0.47945096550370886  0.3648540326460293  1.0000
  O   O10       1.0  0.38887555511929145  0.5205477651076507  0.6351422851781906  1.0000
  O   O11       1.0  0.9546150631006467  0.5318363547654101  0.3087645407958633  1.0000
  O   O12       1.0  0.04538723281492453  0.46816579922416673  0.6912344609213152  1.0000
  O   O13       1.0  0.45629485587249957  0.7323256439721533  0.6521752846361865  1.0000
  O   O14       1.0  0.5437050125414019  0.2676747983283078  0.3478228562077064  1.0000
  O   O15       1.0  0.6911148515964313  0.660408170315506  0.7774159087860043  1.0000
  O   O16       1.0  0.3088845093767745  0.3395897044512992  0.22258287213401223  1.0000
  O   O17       1.0  0.5990145713626019  0.8709878668054214  0.7076975464782295  1.0000
  O   O18       1.0  0.4009828695496296  0.1290108638059309  0.29230359390004423  1.0000
  O   O19       1.0  0.33653065621084716  0.782258182744151  0.8343347541704774  1.0000
  O   O20       1.0  0.6634640040446413  0.2177396920226542  0.16566383195583975  1.0000
  O   O21       1.0  0.25393388259720967  0.8852376786175282  0.03763417300213235  1.0000
  O   O22       1.0  0.7460536048550637  0.11476618706114997  0.9623693504734732  1.0000
  O   O23       1.0  0.3245640083313717  0.9422797180936229  0.19151655500843393  1.0000
  O   O24       1.0  0.6754339846053766  0.0577138774504178  0.808487217255859  1.0000
  O   O25       1.0  0.9702844191742841  0.0071505812426551  0.148903686755169  1.0000
  O   O26       1.0  0.029711101676966268  0.9928490052132587  0.8511036734890355  1.0000
  O   O27       1.0  0.0989246121545477  0.8065162407623134  0.22078080042030024  1.0000
  O   O28       1.0  0.9010611541061948  0.1934842015381548  0.7792237047763136  1.0000
  O   O29       1.0  0.2584480434545569  0.1189966266880091  0.9402108442664456  1.0000
  O   O30       1.0  0.7415462636458585  0.8810021039233503  0.059789136807324915  1.0000
  O   O31       1.0  0.3277497815019715  0.17688081720452684  0.07792958274389865  1.0000
  O   O32       1.0  0.6722490720305386  0.8231144900286154  0.922072926578359  1.0000
  O   O33       1.0  0.6525361460295044  0.40908513802216356  0.7913210484701381  1.0000
  O   O34       1.0  0.3474652892902981  0.5909153042783046  0.2086753557814163  1.0000
  O   O35       1.0  0.3212892649008197  0.12096250162689157  0.7120332834769273  1.0000
  O   O36       1.0  0.6787031221386144  0.8790370848290223  0.2879690570551077  1.0000
