data_image0
_chemical_formula_structural       Zn2H28C42N2Cl8O12
_chemical_formula_sum              "Zn2 H28 C42 N2 Cl8 O12"
_cell_length_a       13.914557479371645
_cell_length_b       15.256482293138072
_cell_length_c       16.048523178867118
_cell_angle_alpha    89.92743865140102
_cell_angle_beta     90.10913552877692
_cell_angle_gamma    89.94837666150922

_space_group_name_H-M_alt    "P 1"
_space_group_IT_number       1

loop_
  _space_group_symop_operation_xyz
  'x, y, z'

loop_
  _atom_site_type_symbol
  _atom_site_label
  _atom_site_symmetry_multiplicity
  _atom_site_fract_x
  _atom_site_fract_y
  _atom_site_fract_z
  _atom_site_occupancy
  Zn  Zn1       1.0  0.400455908988846  0.5003245608958692  0.4998470285568359  1.0000
  Zn  Zn2       1.0  0.6004901827122211  0.5012886288785622  0.5008266000533368  1.0000
  H   H1        1.0  0.3961623955401805  0.38973329864985823  0.9295029418000526  1.0000
  H   H2        1.0  0.5691505867022144  0.36903764208337725  0.9293053709413928  1.0000
  H   H3        1.0  0.6242723699144717  0.775611692938881  0.4215843064028492  1.0000
  H   H4        1.0  0.3702219331790673  0.7795136728155966  0.5737437521943534  1.0000
  H   H5        1.0  0.7485892779754335  0.4338736382787332  0.3881639397251392  1.0000
  H   H6        1.0  0.2512245065668637  0.564788752477469  0.3860653277427631  1.0000
  H   H7        1.0  0.7532040235361492  0.5759875526921052  0.607897159097661  1.0000
  H   H8        1.0  0.24912278964088586  0.4267794026849856  0.6084473866357386  1.0000
  H   H9        1.0  0.6502204745841809  0.45822526139727415  0.9249933969945447  1.0000
  H   H10       1.0  0.342604689164851  0.4948129459712193  0.9244880038517422  1.0000
  H   H11       1.0  0.4549858786393911  0.6288794393795955  0.0742674661104488  1.0000
  H   H12       1.0  0.580402564641268  0.6134310293424363  0.0742870293649958  1.0000
  H   H13       1.0  0.45480883403539  0.6315221676806503  0.928552464591107  1.0000
  H   H14       1.0  0.5807788779598582  0.6160965582607149  0.9285686791181861  1.0000
  H   H15       1.0  0.3831125806325629  0.22704712469487728  0.4115797404643615  1.0000
  H   H16       1.0  0.6229530404013132  0.22241831651506766  0.5816153317925555  1.0000
  H   H17       1.0  0.8556039228632386  0.4439505267598777  0.2715542630430505  1.0000
  H   H18       1.0  0.8426451548225413  0.33648372526599246  0.31658736136749616  1.0000
  H   H19       1.0  0.9490898803730372  0.36364530944501894  0.259192203071251  1.0000
  H   H20       1.0  0.14336003464747185  0.5512451452643533  0.270004009708508  1.0000
  H   H21       1.0  0.15642686822607735  0.6598517249636588  0.3123897670532756  1.0000
  H   H22       1.0  0.04961972974663809  0.6311286327108618  0.2559146375880701  1.0000
  H   H23       1.0  0.4571335540601068  0.016314026059681908  0.3010478554352147  1.0000
  H   H24       1.0  0.39209982158069306  0.1168577975780707  0.2854784427952524  1.0000
  H   H25       1.0  0.3295963592487183  0.013917865615560698  0.2834001870494731  1.0000
  H   H26       1.0  0.5439435671088899  0.010197261782415997  0.6881110750898147  1.0000
  H   H27       1.0  0.6110622680974628  0.10905644499084133  0.7057235866650373  1.0000
  H   H28       1.0  0.6714454721726567  0.0049213253045721  0.7055278485040617  1.0000
  C   C1        1.0  0.503210926746135  0.3322670091490565  0.4983389109344928  1.0000
  C   C2        1.0  0.5128826680309969  0.5898196177259649  0.9527581090621313  1.0000
  C   C3        1.0  0.5128400864686142  0.5885507617461843  0.0487523082686678  1.0000
  C   C4        1.0  0.49943928034596746  0.496281739368186  0.8282040076728238  1.0000
  C   C5        1.0  0.49910513381090726  0.4940659634586382  0.17275591724559552  1.0000
  C   C6        1.0  0.4997510959823756  0.49780964385136167  0.24819510014084056  1.0000
  C   C7        1.0  0.43507513470871106  0.0986265556829835  0.4465962646460043  1.0000
  C   C8        1.0  0.5675683091521931  0.09603161615679309  0.5444015487014229  1.0000
  C   C9        1.0  0.43528263282092877  0.18991402751829867  0.448016104997862  1.0000
  C   C10       1.0  0.5697801459278293  0.1873319420691928  0.5446034446607302  1.0000
  C   C11       1.0  0.5029476214588653  0.23421194099154258  0.49687292972215863  1.0000
  C   C12       1.0  0.500467489281064  0.0502614444831551  0.495316710776585  1.0000
  C   C13       1.0  0.5681470125114813  0.9037723517197023  0.45246698973957683  1.0000
  C   C14       1.0  0.4282297397788425  0.9059790129065703  0.5393072972460333  1.0000
  C   C15       1.0  0.50035483102274  0.5007401138921422  0.3382414131111134  1.0000
  C   C16       1.0  0.5690406252083589  0.8125829153997942  0.4541746411086081  1.0000
  C   C17       1.0  0.42596225291092776  0.8147427320140536  0.540076101163571  1.0000
  C   C18       1.0  0.49731108382513145  0.7680627076073421  0.4979273200451787  1.0000
  C   C19       1.0  0.4987556661449019  0.9532393708626898  0.49544999625022274  1.0000
  C   C20       1.0  0.8941244407681025  0.4599994093639737  0.4338016943332122  1.0000
  C   C21       1.0  0.10618241531540208  0.5389095924574788  0.4325446302998302  1.0000
  C   C22       1.0  0.7936766806639637  0.46339822522035223  0.4359926340895299  1.0000
  C   C23       1.0  0.20663204625745377  0.5360106584287223  0.4345784981404322  1.0000
  C   C24       1.0  0.7952955315760376  0.5444043884176892  0.5592283804644895  1.0000
  C   C25       1.0  0.20643061891912134  0.45731030221464397  0.5593444928385338  1.0000
  C   C26       1.0  0.8955924614327628  0.5455047889064347  0.5596622909377305  1.0000
  C   C27       1.0  0.10613893526272017  0.4557914782310847  0.560046318337065  1.0000
  C   C28       1.0  0.9474496818592612  0.5014793391924853  0.4977062729056031  1.0000
  C   C29       1.0  0.053565588523234495  0.49859007082408624  0.49747189126890135  1.0000
  C   C30       1.0  0.49749237665628937  0.6698003728924036  0.49970953365647114  1.0000
  C   C31       1.0  0.5002004040669447  0.4993767964904308  0.6622652017209774  1.0000
  C   C32       1.0  0.39929133183725424  0.4604948524557457  0.04662777891248741  1.0000
  C   C33       1.0  0.5855681891449365  0.4376785995782769  0.0467706581546565  1.0000
  C   C34       1.0  0.5814305365767679  0.43632931726448015  0.9507205375740853  1.0000
  C   C35       1.0  0.4030248987224923  0.4577572485230376  0.9506559769307685  1.0000
  C   C36       1.0  0.49991509208410173  0.49752258947735584  0.7525437632242885  1.0000
  C   C37       1.0  0.4989455514488696  0.4933514736515149  0.0827824611596313  1.0000
  C   C38       1.0  0.49913308033448783  0.49578758791796673  0.9186176351441804  1.0000
  C   C39       1.0  0.893843743626398  0.3889440815872902  0.3012700114282368  1.0000
  C   C40       1.0  0.10523936229005668  0.6069223140692729  0.2984438326973802  1.0000
  C   C41       1.0  0.3885483338257527  0.0504536562236595  0.3124771112569747  1.0000
  C   C42       1.0  0.6132189097653364  0.04331402377476219  0.6773487554699147  1.0000
  N   N1        1.0  0.7471966878225444  0.50376671707712  0.49836638257436056  1.0000
  N   N2        1.0  0.25381470487034347  0.497120534107701  0.4976359475645254  1.0000
  Cl  Cl1       1.0  0.9528693476904448  0.6047177634175114  0.6363231063026761  1.0000
  Cl  Cl2       1.0  0.0497480096998189  0.39768168615666605  0.6378809681720554  1.0000
  Cl  Cl3       1.0  0.3629390864826972  0.35669754256079494  0.08778575291283632  1.0000
  Cl  Cl4       1.0  0.5905132631483807  0.32861797951752436  0.08755416872845251  1.0000
  Cl  Cl5       1.0  0.6971261956815765  0.4886830412248671  0.08042586653638753  1.0000
  Cl  Cl6       1.0  0.3063933333182831  0.5368772630109718  0.07952076806970611  1.0000
  Cl  Cl7       1.0  0.6551226247065427  0.9575402183667165  0.3943897505472905  1.0000
  Cl  Cl8       1.0  0.3419213038171733  0.9625599293451542  0.5956498909294938  1.0000
  O   O1        1.0  0.4257016152400581  0.3707255166539412  0.47671481266402094  1.0000
  O   O2        1.0  0.5805934312009953  0.3700939513181111  0.5211373581483444  1.0000
  O   O3        1.0  0.422437185621895  0.5242718560774478  0.3731171321570202  1.0000
  O   O4        1.0  0.578799159763541  0.47946130965122785  0.37379898301229997  1.0000
  O   O5        1.0  0.4197820601271259  0.6319078767320789  0.5209648309255215  1.0000
  O   O6        1.0  0.5757079180597771  0.6319390466580401  0.4797010385984849  1.0000
  O   O7        1.0  0.4221688700079155  0.4775289456199872  0.6263778222266936  1.0000
  O   O8        1.0  0.5782889903729114  0.5226565869896191  0.627563950989213  1.0000
  O   O9        1.0  0.9449344176626366  0.4181125095403146  0.3741363954589403  1.0000
  O   O10       1.0  0.05477813663276978  0.5795044332796451  0.3721274049471219  1.0000
  O   O11       1.0  0.3676750837955964  0.0534084906818677  0.3999931160986706  1.0000
  O   O12       1.0  0.6340336515528759  0.048290250597851504  0.5899025503361701  1.0000
