data_image0
_chemical_formula_structural       Ba2H32C28S2O20
_chemical_formula_sum              "Ba2 H32 C28 S2 O20"
_cell_length_a       6.201118556423675
_cell_length_b       12.861813112423585
_cell_length_c       13.786297565230516
_cell_angle_alpha    76.32122562781117
_cell_angle_beta     87.18147500609437
_cell_angle_gamma    82.30604744396564

_space_group_name_H-M_alt    "P 1"
_space_group_IT_number       1

loop_
  _space_group_symop_operation_xyz
  'x, y, z'

loop_
  _atom_site_type_symbol
  _atom_site_label
  _atom_site_symmetry_multiplicity
  _atom_site_fract_x
  _atom_site_fract_y
  _atom_site_fract_z
  _atom_site_occupancy
  Ba  Ba1       1.0  0.7410406266959485  0.47169352116931407  0.6318638130637171  1.0000
  Ba  Ba2       1.0  0.2589612268117278  0.5283101546732138  0.36813347964550774  1.0000
  H   H1        1.0  0.953375862694621  0.13576157018050589  0.20106643912555466  1.0000
  H   H2        1.0  0.04662470473745369  0.8642332388574161  0.798934935045523  1.0000
  H   H3        1.0  0.970305704388288  0.9444433899996196  0.29637032904191346  1.0000
  H   H4        1.0  0.029684494272530115  0.05555472147603519  0.703632067872036  1.0000
  H   H5        1.0  0.32094124963816023  0.008997809663178199  0.41203900239388264  1.0000
  H   H6        1.0  0.6790576371728748  0.991005035192657  0.5879628953120318  1.0000
  H   H7        1.0  0.30813029209753756  0.20367451568001368  0.32109448730675183  1.0000
  H   H8        1.0  0.6918609899391157  0.7963260084806759  0.6789066467440464  1.0000
  H   H9        1.0  0.20671399279265762  0.40786832307126986  0.12535931285349738  1.0000
  H   H10       1.0  0.7932878284225711  0.5921353715917376  0.8746365258533333  1.0000
  H   H11       1.0  0.04589706582429194  0.43482996446336114  0.9562890173556157  1.0000
  H   H12       1.0  0.9541119820609366  0.5651776825249823  0.04370579951019954  1.0000
  H   H13       1.0  0.6541885794788557  0.3010884422907196  0.8456443103925084  1.0000
  H   H14       1.0  0.3458171239001687  0.6989047437590371  0.15435437140356367  1.0000
  H   H15       1.0  0.8174204508689159  0.27211698736978457  0.012806340942681526  1.0000
  H   H16       1.0  0.18258025967532637  0.7278697547388188  0.9871981833208638  1.0000
  H   H17       1.0  0.6912292074768658  0.2137456426058435  0.6496633247706995  1.0000
  H   H18       1.0  0.3087682824388339  0.7862563835542173  0.3503409583069941  1.0000
  H   H19       1.0  0.9368077863061472  0.21932548759232154  0.6363653884629276  1.0000
  H   H20       1.0  0.06318673221044689  0.7806750046887814  0.36363566834521077  1.0000
  H   H21       1.0  0.15959617651623148  0.32798869599432107  0.549743175098655  1.0000
  H   H22       1.0  0.8404015784803038  0.6720117644071947  0.4502578044668227  1.0000
  H   H23       1.0  0.23953078468669992  0.39981315936223877  0.6167806141432949  1.0000
  H   H24       1.0  0.7604778714465681  0.6001888493216254  0.38321612857316023  1.0000
  H   H25       1.0  0.9347690301441391  0.7206833078478495  0.5772351379636265  1.0000
  H   H26       1.0  0.06522726337217219  0.2793163714988367  0.42276531896887093  1.0000
  H   H27       1.0  0.02267871875195479  0.6690403531518782  0.6892331079786163  1.0000
  H   H28       1.0  0.977317401858386  0.33096013259966384  0.31076718320700547  1.0000
  H   H29       1.0  0.751879205632008  0.3762296581536971  0.43062587377239947  1.0000
  H   H30       1.0  0.2481159883622439  0.6237676179181901  0.5693751190220483  1.0000
  H   H31       1.0  0.5694262282772939  0.31556215399840676  0.4963529135541408  1.0000
  H   H32       1.0  0.4305652589577776  0.6844375449369479  0.5036498402459203  1.0000
  C   C1        1.0  0.8155679545455143  0.1076243716149534  0.24736050520362338  1.0000
  C   C2        1.0  0.18441901907911534  0.8923730594377943  0.7526348646879273  1.0000
  C   C3        1.0  0.8246916558086996  0.0009334523407317975  0.3011178513627756  1.0000
  C   C4        1.0  0.17529858658831904  0.9990639280119565  0.6988788952885018  1.0000
  C   C5        1.0  0.6469552589226099  0.9658395593415604  0.36101412390790727  1.0000
  C   C6        1.0  0.3530378304062083  0.03416013306424048  0.6389878642696303  1.0000
  C   C7        1.0  0.4577794456106048  0.037860615447222294  0.3654377374508045  1.0000
  C   C8        1.0  0.5422226662366186  0.9621429098315272  0.6345711872774945  1.0000
  C   C9        1.0  0.4490316962021482  0.14542348851628617  0.31418880667882837  1.0000
  C   C10       1.0  0.5509690786321573  0.8545784775334723  0.6858175801597852  1.0000
  C   C11       1.0  0.6290949009544776  0.1794078363058559  0.2563220364415528  1.0000
  C   C12       1.0  0.37089966600078134  0.8205926277445384  0.7436812013701657  1.0000
  C   C13       1.0  0.5197787271561509  0.3378036626014873  0.07807543948948144  1.0000
  C   C14       1.0  0.4802195142658477  0.6621943974059119  0.9219245833142369  1.0000
  C   C15       1.0  0.3028715419619488  0.38390659793176946  0.06426164296151883  1.0000
  C   C16       1.0  0.697129022971474  0.6160954904510658  0.935735292861587  1.0000
  C   C17       1.0  0.21410532381819544  0.3994428901321852  0.9704636692951213  1.0000
  C   C18       1.0  0.7859019490673091  0.6005655697905823  0.029531747446334612  1.0000
  C   C19       1.0  0.33986146022977703  0.3710921190266346  0.8914112268702399  1.0000
  C   C20       1.0  0.6601479334673854  0.6289139151519905  0.1085839214893199  1.0000
  C   C21       1.0  0.5569148940664235  0.3242356391028026  0.9069980199857995  1.0000
  C   C22       1.0  0.44308694579367375  0.6757607668050482  0.0930029840701963  1.0000
  C   C23       1.0  0.6481404841229476  0.3070129790875882  0.0006804842924311181  1.0000
  C   C24       1.0  0.3518603483899554  0.6929802641917888  0.9993175863664379  1.0000
  C   C25       1.0  0.6583771330221071  0.8522008976424824  0.42361203739623227  1.0000
  C   C26       1.0  0.3416195385985858  0.1477971500739983  0.5763902050323966  1.0000
  C   C27       1.0  0.2388175957509802  0.39454130581984964  0.789738216365379  1.0000
  C   C28       1.0  0.7612020261039092  0.6054622135054188  0.21025719750682736  1.0000
  S   S1        1.0  0.6284360453272909  0.3182096639301974  0.1981076075148281  1.0000
  S   S2        1.0  0.37156111022022753  0.6817932627370878  0.8018892398040621  1.0000
  O   O1        1.0  0.8115415461899644  0.23902612615022883  0.6783290710453188  1.0000
  O   O2        1.0  0.18846223013207464  0.7609693727208365  0.32167860314696395  1.0000
  O   O3        1.0  0.4822177568906768  0.8116097258634124  0.44349144998714973  1.0000
  O   O4        1.0  0.517780722022181  0.18838749009817948  0.5565116465682112  1.0000
  O   O5        1.0  0.1502265180687274  0.4038576153253499  0.5559073696192274  1.0000
  O   O6        1.0  0.8497760432090473  0.5961428254874901  0.44409131307867983  1.0000
  O   O7        1.0  0.8469561539145121  0.8044350028947915  0.45348627888790133  1.0000
  O   O8        1.0  0.15304515108145725  0.19556383163788374  0.5465135009262811  1.0000
  O   O9        1.0  0.03503371640719171  0.4175943235153454  0.7841988334753511  1.0000
  O   O10       1.0  0.964984474056095  0.5824004136974351  0.21579411884798116  1.0000
  O   O11       1.0  0.9894592501918141  0.65338933150975  0.6254558092881197  1.0000
  O   O12       1.0  0.01053704332449711  0.3466103478369361  0.37454464764437034  1.0000
  O   O13       1.0  0.3707865598140074  0.3901145766195739  0.715673055565205  1.0000
  O   O14       1.0  0.6292405724365723  0.6098840405173431  0.28432319830292846  1.0000
  O   O15       1.0  0.6167642493749526  0.38834849289740697  0.4702453546520149  1.0000
  O   O16       1.0  0.3832371524983457  0.6116502851738446  0.5297587871693281  1.0000
  O   O17       1.0  0.47872404250099976  0.3797441030118803  0.25437080693516384  1.0000
  O   O18       1.0  0.521272421422637  0.6202620492748564  0.7456253773962302  1.0000
  O   O19       1.0  0.8563903730354667  0.3373102781062087  0.18724117891434844  1.0000
  O   O20       1.0  0.14360461326172214  0.6626951025359346  0.8127537557828578  1.0000
