data_image0
_chemical_formula_structural       CdH12C10N4O4
_chemical_formula_sum              "Cd1 H12 C10 N4 O4"
_cell_length_a       5.105842971309726
_cell_length_b       6.893818278956178
_cell_length_c       10.391321318397074
_cell_angle_alpha    73.94699990698517
_cell_angle_beta     83.7933291654267
_cell_angle_gamma    68.80567853644013

_space_group_name_H-M_alt    "P 1"
_space_group_IT_number       1

loop_
  _space_group_symop_operation_xyz
  'x, y, z'

loop_
  _atom_site_type_symbol
  _atom_site_label
  _atom_site_symmetry_multiplicity
  _atom_site_fract_x
  _atom_site_fract_y
  _atom_site_fract_z
  _atom_site_occupancy
  Cd  Cd1       1.0  7.430085098296841e-06  9.389369658710024e-06  0.999978348014679  1.0000
  H   H1        1.0  0.33615489602834714  0.2043570900345557  0.3948083792393575  1.0000
  H   H2        1.0  0.6638280117442433  0.7956382953058495  0.6052028064770525  1.0000
  H   H3        1.0  0.8174585392075926  0.8546800609313293  0.33817275906037747  1.0000
  H   H4        1.0  0.1825901197090474  0.1453405011118178  0.6618091775077986  1.0000
  H   H5        1.0  0.3487113094667577  0.17174784370126872  0.14795029154650052  1.0000
  H   H6        1.0  0.6512880524594848  0.8282459783394175  0.8520613508969603  1.0000
  H   H7        1.0  0.6680033353847675  0.46596300721144956  0.8076848999471267  1.0000
  H   H8        1.0  0.3319689784999723  0.5340478155528174  0.1923026562607504  1.0000
  H   H9        1.0  0.4874363816722535  0.39951221155033784  0.6966848083323285  1.0000
  H   H10       1.0  0.5125839972712071  0.6004868769685885  0.30333826468066144  1.0000
  H   H11       1.0  0.30708030291665267  0.621777614823877  0.7646045009281295  1.0000
  H   H12       1.0  0.692983176708367  0.378205962183962  0.23538479456663455  1.0000
  C   C1        1.0  0.040473875350855316  0.015562321982827098  0.4297625875801927  1.0000
  C   C2        1.0  0.9594848451414607  0.9844020441920449  0.5701903058657507  1.0000
  C   C3        1.0  0.22011620673746526  0.1237468608827044  0.3609505202079291  1.0000
  C   C4        1.0  0.7798993403440235  0.8762511563735771  0.6390383447155942  1.0000
  C   C5        1.0  0.954746821614691  0.9462003025727057  0.3307804575196585  1.0000
  C   C6        1.0  0.04521993631083632  0.0537704717034586  0.6692218221044612  1.0000
  C   C7        1.0  0.466513112922854  0.4598899692521313  0.7860794201512393  1.0000
  C   C8        1.0  0.5335171199578851  0.5401450932936315  0.21390158980676688  1.0000
  C   C9        1.0  0.3649490510974758  0.3167109530984291  0.9030599742999142  1.0000
  C   C10       1.0  0.6350715725138656  0.6833368017769176  0.09691328716471054  1.0000
  N   N1        1.0  0.23199982511573586  0.11617948830249958  0.232123238214804  1.0000
  N   N2        1.0  0.7679944476522066  0.8838255688488417  0.7678855274172207  1.0000
  N   N3        1.0  0.0718914384283806  0.0093439052231687  0.21224791487316708  1.0000
  N   N4        1.0  0.9280527165860806  0.9906306176959702  0.7878250164614046  1.0000
  O   O1        1.0  0.513910067863975  0.2275011096311985  0.009856637682794699  1.0000
  O   O2        1.0  0.4860569690047001  0.7724906541938594  0.9901435108273731  1.0000
  O   O3        1.0  0.13538174906124573  0.29288920698250825  0.8892884368593812  1.0000
  O   O4        1.0  0.8646328066435629  0.7071356651369599  0.11073091843040571  1.0000
