data_image0
_chemical_formula_structural       Zn4H24C16N32O4
_chemical_formula_sum              "Zn4 H24 C16 N32 O4"
_cell_length_a       5.814832463530046
_cell_length_b       9.531105138381255
_cell_length_c       14.262227478006201
_cell_angle_alpha    90.00008336518559
_cell_angle_beta     90.00004905193045
_cell_angle_gamma    101.53130783677437

_space_group_name_H-M_alt    "P 1"
_space_group_IT_number       1

loop_
  _space_group_symop_operation_xyz
  'x, y, z'

loop_
  _atom_site_type_symbol
  _atom_site_label
  _atom_site_symmetry_multiplicity
  _atom_site_fract_x
  _atom_site_fract_y
  _atom_site_fract_z
  _atom_site_occupancy
  Zn  Zn1       1.0  0.7968136628915159  0.19284378702685956  0.3983103881961795  1.0000
  Zn  Zn2       1.0  0.20318678877915625  0.30715669691522146  0.8983107757159843  1.0000
  Zn  Zn3       1.0  0.20318571987311176  0.8071569750083826  0.6016890472358795  1.0000
  Zn  Zn4       1.0  0.7968125939874895  0.6928440651218113  0.10169006202157499  1.0000
  H   H1        1.0  0.08534534094242467  0.6748145283946981  0.2720854690009631  1.0000
  H   H2        1.0  0.9146593222499675  0.825189089960922  0.772086129194939  1.0000
  H   H3        1.0  0.9146554121611316  0.3251851635882588  0.7279153687363262  1.0000
  H   H4        1.0  0.0853428294535092  0.17481488525971403  0.22791400739191656  1.0000
  H   H5        1.0  0.2688808353913501  0.5571968215527219  0.2394846470935405  1.0000
  H   H6        1.0  0.7311240554274079  0.9428024312223541  0.7394867569907644  1.0000
  H   H7        1.0  0.7311195680619703  0.4428017996205896  0.760516190643173  1.0000
  H   H8        1.0  0.2688787673135238  0.057198332325803784  0.26051408074742  1.0000
  H   H9        1.0  0.2881377061868874  0.6364319025989713  0.40875908876891737  1.0000
  H   H10       1.0  0.711865601835882  0.8635667100889677  0.9087597131492513  1.0000
  H   H11       1.0  0.7118630469166688  0.3635677893839784  0.591241748968379  1.0000
  H   H12       1.0  0.2881368712538119  0.1364329826486568  0.09124042343560029  1.0000
  H   H13       1.0  0.9982603045099054  0.536813117493189  0.4251079468614661  1.0000
  H   H14       1.0  0.0017420298472643136  0.9631876777323426  0.9251091134971787  1.0000
  H   H15       1.0  0.0017404485936509937  0.46318657448976097  0.5748928908758231  1.0000
  H   H16       1.0  0.9982611425428941  0.036814156624565386  0.0748910230888313  1.0000
  H   H17       1.0  0.6308817942754672  0.1100629405598141  0.5746768786903472  1.0000
  H   H18       1.0  0.3691197962429981  0.38993779000672646  0.0746772286393025  1.0000
  H   H19       1.0  0.36911895882607126  0.8899367514213522  0.4253225567414489  1.0000
  H   H20       1.0  0.6308813065107869  0.610062972785869  0.9253236090985695  1.0000
  H   H21       1.0  0.7612690012865642  0.9912347663853186  0.5384130050331635  1.0000
  H   H22       1.0  0.23873015127445282  0.5087639715902624  0.0384136422895907  1.0000
  H   H23       1.0  0.23873105251450968  0.0087627839765645  0.4615864303974746  1.0000
  H   H24       1.0  0.7612688818409552  0.4912357196362296  0.9615864942946428  1.0000
  C   C1        1.0  0.902899677354398  0.46696314759137886  0.24108194336824332  1.0000
  C   C2        1.0  0.0971006717675706  0.03303800638519759  0.7410820288525314  1.0000
  C   C3        1.0  0.09710107575016738  0.5330365443924662  0.7589195955217958  1.0000
  C   C4        1.0  0.9028990606472929  0.9669638264596898  0.2589174065801032  1.0000
  C   C5        1.0  0.11224740792613364  0.5648614159548087  0.2808014507076208  1.0000
  C   C6        1.0  0.887754861045465  0.9351400822421918  0.7808015059743807  1.0000
  C   C7        1.0  0.8877529955271868  0.43513720521850274  0.7191993870290928  1.0000
  C   C8        1.0  0.1122472906549845  0.06486389297575812  0.21919652715422439  1.0000
  C   C9        1.0  0.1610420484563591  0.5425683701388735  0.3849815287544088  1.0000
  C   C10       1.0  0.8389594711957713  0.9574301811865381  0.8849836914352948  1.0000
  C   C11       1.0  0.8389587046451791  0.45743132184229296  0.6150179066773802  1.0000
  C   C12       1.0  0.16104163156003176  0.0425705816078406  0.11501854860807009  1.0000
  C   C13       1.0  0.2639552007434815  0.41473551539425546  0.4042281286245881  1.0000
  C   C14       1.0  0.7360483582720005  0.085263914334476  0.9042291948398711  1.0000
  C   C15       1.0  0.7360455523600746  0.5852641765886942  0.595772709112701  1.0000
  C   C16       1.0  0.2639527444817916  0.9147368484581195  0.0957716428979936  1.0000
  N   N1        1.0  0.8169963704180956  0.3297840376946154  0.26454453633842684  1.0000
  N   N2        1.0  0.1830043958341676  0.1702182468978748  0.7645447847481676  1.0000
  N   N3        1.0  0.18300301234854996  0.6702167243424171  0.7354563013991324  1.0000
  N   N4        1.0  0.8169974062190732  0.8297846575131088  0.23545535183810523  1.0000
  N   N5        1.0  0.6282156752641869  0.28429130333883984  0.20900336672026748  1.0000
  N   N6        1.0  0.3717821623096356  0.21570762649415795  0.7090030255268971  1.0000
  N   N7        1.0  0.3717833578512212  0.7157083878876591  0.7909967698639662  1.0000
  N   N8        1.0  0.62821859079191  0.7842920654870085  0.2909964099048992  1.0000
  N   N9        1.0  0.6004796661607228  0.3886358939417462  0.1538731736522507  1.0000
  N   N10       1.0  0.3995200824925718  0.1113639669296731  0.653872741932737  1.0000
  N   N11       1.0  0.39952315657920673  0.6113648696055236  0.8461269629331836  1.0000
  N   N12       1.0  0.6004786009715843  0.8886346534862852  0.34612669349817077  1.0000
  N   N13       1.0  0.7695495100160628  0.505316407949131  0.17217264575766927  1.0000
  N   N14       1.0  0.23044830725752516  0.9946826702227722  0.6721725224892765  1.0000
  N   N15       1.0  0.2304515927377295  0.49468435484346435  0.8278281919802025  1.0000
  N   N16       1.0  0.7695503762066379  0.005315950193185899  0.32782691294163147  1.0000
  N   N17       1.0  0.29350144404141787  0.19672762916705716  0.43349063892969036  1.0000
  N   N18       1.0  0.7064987591587979  0.3032718736390477  0.9334905021698103  1.0000
  N   N19       1.0  0.706497239422745  0.8032709912489009  0.5665087965012177  1.0000
  N   N20       1.0  0.29350062360583007  0.6967288883961943  0.0665089332622557  1.0000
  N   N21       1.0  0.13910344726502893  0.2815756614455508  0.42153249194906545  1.0000
  N   N22       1.0  0.860895351207894  0.21842488093511037  0.9215337311951186  1.0000
  N   N23       1.0  0.8608955858513809  0.7184240297818362  0.5784683457879183  1.0000
  N   N24       1.0  0.13910266122183404  0.7815769511559978  0.0784671065427105  1.0000
  N   N25       1.0  0.5045813270843524  0.2770210436044848  0.4231900804300962  1.0000
  N   N26       1.0  0.4954171265024596  0.22297843218887436  0.9231890894515258  1.0000
  N   N27       1.0  0.49541907636796617  0.7229775775679315  0.5768100561538673  1.0000
  N   N28       1.0  0.5045805362740126  0.7770223290899098  0.07680964482748458  1.0000
  N   N29       1.0  0.49370911205058116  0.41355058642864145  0.4052441396106516  1.0000
  N   N30       1.0  0.5062910099126084  0.08644884437865835  0.9052451245191762  1.0000
  N   N31       1.0  0.5062916410519661  0.5864491055534131  0.5947559969738945  1.0000
  N   N32       1.0  0.49370630321565295  0.9135508460922637  0.09475501206475197  1.0000
  O   O1        1.0  0.7649529809289957  0.09591203701732097  0.5337996906784852  1.0000
  O   O2        1.0  0.23504814237493574  0.40408751854461394  0.03380070729490109  1.0000
  O   O3        1.0  0.23504742252130476  0.9040865841533047  0.46619904359997827  1.0000
  O   O4        1.0  0.7649526107286206  0.5959121734383358  0.9662001304423878  1.0000
