data_image0
_chemical_formula_structural       Mo4H52C44N12O12
_chemical_formula_sum              "Mo4 H52 C44 N12 O12"
_cell_length_a       9.611636823135953
_cell_length_b       12.252141783001084
_cell_length_c       12.358518142193127
_cell_angle_alpha    90.0000320836861
_cell_angle_beta     112.8651259313362
_cell_angle_gamma    89.99995447184847

_space_group_name_H-M_alt    "P 1"
_space_group_IT_number       1

loop_
  _space_group_symop_operation_xyz
  'x, y, z'

loop_
  _atom_site_type_symbol
  _atom_site_label
  _atom_site_symmetry_multiplicity
  _atom_site_fract_x
  _atom_site_fract_y
  _atom_site_fract_z
  _atom_site_occupancy
  Mo  Mo1       1.0  0.8481524946889465  0.8511097041045376  0.0007019868044437512  1.0000
  Mo  Mo2       1.0  0.15184750915507553  0.3511086433390531  0.999298841781538  1.0000
  Mo  Mo3       1.0  0.15256803776541264  0.648897112133227  0.0006732194100180957  1.0000
  Mo  Mo4       1.0  0.8474321415853012  0.14889643450728582  0.9993275499832138  1.0000
  H   H1        1.0  0.2515093352669808  0.8267329837360082  0.20013661745656458  1.0000
  H   H2        1.0  0.7484906872177532  0.32673307120377615  0.7998633940770289  1.0000
  H   H3        1.0  0.9484476287983481  0.6732689860667948  0.20016362605859664  1.0000
  H   H4        1.0  0.05155140027163439  0.17326869123925095  0.7998368110512288  1.0000
  H   H5        1.0  0.24865333643175086  0.1727991528277997  0.19323672568994968  1.0000
  H   H6        1.0  0.7513468196572006  0.6727990968900172  0.8067632407832546  1.0000
  H   H7        1.0  0.9444507612488097  0.32720377689646096  0.19318223116992067  1.0000
  H   H8        1.0  0.05555038995495211  0.8272033379984834  0.80681811991915  1.0000
  H   H9        1.0  0.5069906241602027  0.9224337428386279  0.27054160198930066  1.0000
  H   H10       1.0  0.49300931274656534  0.42243394958885727  0.7294576276415083  1.0000
  H   H11       1.0  0.7634586360985054  0.5774972368388803  0.27069398882599666  1.0000
  H   H12       1.0  0.23654160522201545  0.07749760317648931  0.7293067596668195  1.0000
  H   H13       1.0  0.6620298483973669  0.0918703490285608  0.3082731877621611  1.0000
  H   H14       1.0  0.3379703779322369  0.5918704854614918  0.6917267550211434  1.0000
  H   H15       1.0  0.6462926407218107  0.40802079271253433  0.3084906588395597  1.0000
  H   H16       1.0  0.3537073112109397  0.9080201030411391  0.6915093764889448  1.0000
  H   H17       1.0  0.4988969601837996  0.1728815312242062  0.2701572189540968  1.0000
  H   H18       1.0  0.5011031983500942  0.6728807714435663  0.7298435574599793  1.0000
  H   H19       1.0  0.7712952766614833  0.3270553071171561  0.2702693522483912  1.0000
  H   H20       1.0  0.2287047455434319  0.8270555330479326  0.7297306593795765  1.0000
  H   H21       1.0  0.573041220751918  0.15335262928870463  0.09893680350235458  1.0000
  H   H22       1.0  0.42695782308777547  0.6533528285861226  0.901062817860655  1.0000
  H   H23       1.0  0.5258938674009102  0.3466649678471897  0.09911069356889604  1.0000
  H   H24       1.0  0.47410726691088473  0.8466667700603453  0.9008896632172849  1.0000
  H   H25       1.0  0.3971613763146351  0.08785881930699453  0.06524409166978269  1.0000
  H   H26       1.0  0.6028377243696565  0.5878581119555194  0.9347555105213841  1.0000
  H   H27       1.0  0.6681192102922253  0.41213754848594425  0.06540147428028578  1.0000
  H   H28       1.0  0.3318818646776193  0.9121394582907101  0.9345980917545444  1.0000
  H   H29       1.0  0.5658428911073798  0.009398210741423402  0.10651117953194236  1.0000
  H   H30       1.0  0.4341562751592463  0.5093975850939216  0.8934875897749421  1.0000
  H   H31       1.0  0.5407969191867608  0.49061204264818764  0.10678194664961183  1.0000
  H   H32       1.0  0.4592018294177365  0.9906138498061239  0.8932169635212331  1.0000
  H   H33       1.0  0.415948681286892  0.16267032567588302  0.427765379203663  1.0000
  H   H34       1.0  0.5840514835935621  0.6626694252099627  0.5722345843044464  1.0000
  H   H35       1.0  0.0117758638057381  0.3372995112843712  0.4277682291170776  1.0000
  H   H36       1.0  0.9882275419226615  0.8372991753684716  0.5722344235964697  1.0000
  H   H37       1.0  0.4940940055997274  0.16448065845217738  0.6450135344726816  1.0000
  H   H38       1.0  0.5059061577091626  0.6644805000851478  0.3549864295654714  1.0000
  H   H39       1.0  0.151023207281284  0.3355512635384911  0.6449988244031104  1.0000
  H   H40       1.0  0.8489779417096557  0.8355508915892856  0.3550031489632133  1.0000
  H   H41       1.0  0.6258828855545886  0.0051060670011438035  0.7639320496750415  1.0000
  H   H42       1.0  0.374117413564889  0.5051051073152807  0.2360670577931145  1.0000
  H   H43       1.0  0.1381738858721846  0.49493486317738444  0.7639393931671634  1.0000
  H   H44       1.0  0.8618259956571848  0.9949344160317468  0.23606228743706476  1.0000
  H   H45       1.0  0.682251859244623  0.8436940979495944  0.6679188988707594  1.0000
  H   H46       1.0  0.3177458877484014  0.3436933731282465  0.33207962887533427  1.0000
  H   H47       1.0  0.9857645858571474  0.6563373730486933  0.6679516012551757  1.0000
  H   H48       1.0  0.014234457908088397  0.15633765335530822  0.3320488308984223  1.0000
  H   H49       1.0  0.6079937049504096  0.8417988806244311  0.4498899662156503  1.0000
  H   H50       1.0  0.39200517533104323  0.34179823274919124  0.5501097103102737  1.0000
  H   H51       1.0  0.8420341145379028  0.6582300865077287  0.449941400388397  1.0000
  H   H52       1.0  0.1579660567116292  0.15823121668105955  0.5500593717371061  1.0000
  C   C1        1.0  0.2117513869720185  0.910756669412926  0.1881189787453437  1.0000
  C   C2        1.0  0.7882496917136166  0.4107559227334508  0.8118813968017449  1.0000
  C   C3        1.0  0.9761957433943138  0.5892575400825139  0.18809689879446262  1.0000
  C   C4        1.0  0.023802226948369292  0.08925726934777602  0.8119023643884731  1.0000
  C   C5        1.0  0.21084427085114751  0.0883820850869483  0.18541535219370786  1.0000
  C   C6        1.0  0.7891548318951891  0.5883811938452155  0.8145850600674649  1.0000
  C   C7        1.0  0.9744298061570684  0.4116257397610356  0.18536832576990733  1.0000
  C   C8        1.0  0.025572403417321296  0.9116261401259679  0.8146331993663409  1.0000
  C   C9        1.0  0.468149773900123  0.0002170421028538001  0.2935973137392338  1.0000
  C   C10       1.0  0.5318505319783995  0.5002170661202429  0.70640260221478  1.0000
  C   C11       1.0  0.8254037842901667  0.49974510390227794  0.2936899212012918  1.0000
  C   C12       1.0  0.1745972196752206  0.9997453502884922  0.7063112903119942  1.0000
  C   C13       1.0  0.5409367556533482  0.09415242090589973  0.25232145057355376  1.0000
  C   C14       1.0  0.45906346869558945  0.5941525135587113  0.7476784928777604  1.0000
  C   C15       1.0  0.7114148974412728  0.4057738025371549  0.2524844609759497  1.0000
  C   C16       1.0  0.28858505392519623  0.9057740012348962  0.7475147637780708  1.0000
  C   C17       1.0  0.5172531915157778  0.0854706444999849  0.12351975968833537  1.0000
  C   C18       1.0  0.4827470403686861  0.585469978992059  0.8764801812214883  1.0000
  C   C19       1.0  0.6063093780151547  0.41450696585663144  0.12371585127176121  1.0000
  C   C20       1.0  0.3936905657711591  0.9145079880505097  0.8762833760387989  1.0000
  C   C21       1.0  0.5065704142313193  0.0015009242995276003  0.4245544440118535  1.0000
  C   C22       1.0  0.4934276322780704  0.5015008982516777  0.575444793482511  1.0000
  C   C23       1.0  0.9179617299600551  0.4984767624074424  0.4246324211382628  1.0000
  C   C24       1.0  0.08203927510582079  0.9984778086250757  0.5753687900038713  1.0000
  C   C25       1.0  0.4739218385718615  0.09215367182620333  0.47979675341677097  1.0000
  C   C26       1.0  0.5260795141232181  0.5921535942410473  0.5202027189503085  1.0000
  C   C27       1.0  0.005832378588017699  0.4078137297848842  0.47981021997369305  1.0000
  C   C28       1.0  0.9941687026513718  0.907814176950801  0.5201901547120967  1.0000
  C   C29       1.0  0.5170027467578322  0.09339674073182644  0.601376750604416  1.0000
  C   C30       1.0  0.4829974782477891  0.5933949889128911  0.398623192625422  1.0000
  C   C31       1.0  0.0844362847415923  0.4066041552229437  0.6013835290817084  1.0000
  C   C32       1.0  0.9155648000637625  0.9066045826423449  0.3986176551668662  1.0000
  C   C33       1.0  0.5920752444932872  0.0038932015444928013  0.6690227948610995  1.0000
  C   C34       1.0  0.4079228024562839  0.5038922744316353  0.33097725325027477  1.0000
  C   C35       1.0  0.07705108866767318  0.49612240286662507  0.6690313239271503  1.0000
  C   C36       1.0  0.9229499184426261  0.9961211551020314  0.33096988652545895  1.0000
  C   C37       1.0  0.6240720520220933  0.9131717494189932  0.6143664886294786  1.0000
  C   C38       1.0  0.3759278979557692  0.41317183481466213  0.38563435812381636  1.0000
  C   C39       1.0  0.990382480754789  0.5868286930190011  0.6144236241171938  1.0000
  C   C40       1.0  0.0096177524666814  0.0868290064416684  0.385577127107176  1.0000
  C   C41       1.0  0.5816872492186889  0.9121710869017082  0.4928136809252023  1.0000
  C   C42       1.0  0.4183115649518498  0.41217121458158373  0.5071843963668597  1.0000
  C   C43       1.0  0.9112044879326502  0.587830140892443  0.4928832702350688  1.0000
  C   C44       1.0  0.0887957469361069  0.08782965750221193  0.5071182911991912  1.0000
  N   N1        1.0  0.0718869133411459  0.9431869439703675  0.12700841700969787  1.0000
  N   N2        1.0  0.9281118789416779  0.4431877771067222  0.872991289195326  1.0000
  N   N3        1.0  0.0550777345029729  0.5568585762737969  0.1270304953704837  1.0000
  N   N4        1.0  0.9449213930874762  0.05685776656473251  0.8729690977461075  1.0000
  N   N5        1.0  0.0715997784082063  0.05486389010752651  0.1252371856526153  1.0000
  N   N6        1.0  0.9284004825563912  0.5548645785400481  0.874763556214887  1.0000
  N   N7        1.0  0.05353566167978129  0.4451866723172629  0.1252002424928662  1.0000
  N   N8        1.0  0.9464653896388028  0.9451865333402555  0.8748009530497212  1.0000
  N   N9        1.0  0.3023621643222185  0.9999851329056996  0.22607976124857734  1.0000
  N   N10       1.0  0.6976377103078376  0.4999844211932399  0.7739211109171008  1.0000
  N   N11       1.0  0.9235050842469549  0.5000176596447333  0.22600969056814083  1.0000
  N   N12       1.0  0.07649522432090089  1.7334685964e-05  0.7739910352443218  1.0000
  O   O1        1.0  0.7863695542241657  2.2608360154700006e-05  1.3753685898586163e-05  1.0000
  O   O2        1.0  0.2136296226958976  0.5000221801765222  0.9999858227933983  1.0000
  O   O3        1.0  0.0021620552760737  0.7500288659273554  0.0043140041093324  1.0000
  O   O4        1.0  0.9978380362988022  0.25002890878786843  0.9956867948878596  1.0000
  O   O5        1.0  0.8100154311345235  0.8029679620791371  0.11788471451913546  1.0000
  O   O6        1.0  0.1899846144933051  0.3029668113662325  0.8821160999745103  1.0000
  O   O7        1.0  0.3077859552101145  0.6970698988954425  0.11783417320406638  1.0000
  O   O8        1.0  0.6922130506859574  0.19707006789818857  0.8821654609561094  1.0000
  O   O9        1.0  0.7025967145627448  0.8040170057887722  0.8756345013059245  1.0000
  O   O10       1.0  0.29740219599441525  0.3040169924658685  0.12436435424351086  1.0000
  O   O11       1.0  0.1731289078711882  0.6960548221901065  0.8756219939038914  1.0000
  O   O12       1.0  0.8268712305493223  0.19605529541953368  0.12437878929378593  1.0000
