data_image0
_chemical_formula_structural       Al2H12C30N6O24
_chemical_formula_sum              "Al2 H12 C30 N6 O24"
_cell_length_a       4.1532215462538415
_cell_length_b       17.212747487587706
_cell_length_c       17.213134697604257
_cell_angle_alpha    120.0004623446785
_cell_angle_beta     90.00053562040466
_cell_angle_gamma    89.99870067670642

_space_group_name_H-M_alt    "P 1"
_space_group_IT_number       1

loop_
  _space_group_symop_operation_xyz
  'x, y, z'

loop_
  _atom_site_type_symbol
  _atom_site_label
  _atom_site_symmetry_multiplicity
  _atom_site_fract_x
  _atom_site_fract_y
  _atom_site_fract_z
  _atom_site_occupancy
  Al  Al1       1.0  0.9357890119278309  0.4999985979308122  0.5000008561589767  1.0000
  Al  Al2       1.0  0.06418925899328091  0.16666738241634263  0.8333348091253397  1.0000
  H   H1        1.0  0.29227156666798493  0.11856467922660126  0.537625418120669  1.0000
  H   H2        1.0  0.7182878289056377  0.1176564623466945  0.5342878939044198  1.0000
  H   H3        1.0  0.7071846401200476  0.2049337213633606  0.4518434450026021  1.0000
  H   H4        1.0  0.2812070268833224  0.20157338524541055  0.4508849764597755  1.0000
  H   H5        1.0  0.2922731319589928  0.9190642549367638  0.8814366476235591  1.0000
  H   H6        1.0  0.7182991794061167  0.9166307051570683  0.8823409062684107  1.0000
  H   H7        1.0  0.70720108885277  0.7469098745053202  0.7950631079993755  1.0000
  H   H8        1.0  0.2812449490851493  0.7493151417415619  0.7984292217169155  1.0000
  H   H9        1.0  0.2922751914234425  0.4623728949744147  0.08094029141880542  1.0000
  H   H10       1.0  0.7183130277523374  0.4657137935599635  0.08337056952137091  1.0000
  H   H11       1.0  0.7071980010713618  0.548157703316079  0.25309374098807064  1.0000
  H   H12       1.0  0.2812273751308894  0.5491158079862332  0.2506892389320398  1.0000
  C   C1        1.0  0.4445566778204437  0.4302571843327597  0.36411711850476536  1.0000
  C   C2        1.0  0.44455318096962776  0.4338527507013553  0.5697366375363515  1.0000
  C   C3        1.0  0.4445240923884768  0.6358806825163227  0.5661351961933221  1.0000
  C   C4        1.0  0.5554418465471757  0.23614525314528115  0.7669283180153385  1.0000
  C   C5        1.0  0.555458930725692  0.03078245540162796  0.7638535580982265  1.0000
  C   C6        1.0  0.5554458316688269  0.233077297452674  0.9692164086832378  1.0000
  C   C7        1.0  0.5240794819676965  0.2933271473123753  0.7240555468847133  1.0000
  C   C8        1.0  0.4758477087974313  0.39098494579469906  0.6269588368774421  1.0000
  C   C9        1.0  0.5078706621821639  0.25078954106140144  0.6307188815640147  1.0000
  C   C10       1.0  0.4890154619366029  0.4350319206829597  0.7213017208215434  1.0000
  C   C11       1.0  0.4916728588190864  0.2976355313883516  0.5841515795300936  1.0000
  C   C12       1.0  0.511297731764394  0.3876950994837431  0.7683609751891538  1.0000
  C   C13       1.0  0.5052971344862841  0.15976825637103084  0.5457967655467968  1.0000
  C   C14       1.0  0.49411910687108934  0.21292587087413756  0.4929703935840379  1.0000
  C   C15       1.0  0.5240604041680328  0.9307281783341425  0.7066757000847872  1.0000
  C   C16       1.0  0.47584033634519335  0.7359726934203438  0.6090157145892547  1.0000
  C   C17       1.0  0.5078762306060299  0.8799286044383976  0.7492142630341121  1.0000
  C   C18       1.0  0.488935337598555  0.7862636780510001  0.5649663478072853  1.0000
  C   C19       1.0  0.4916442644793051  0.7865135492673048  0.7023619434275189  1.0000
  C   C20       1.0  0.5112878154896164  0.8806627444717064  0.6123102930242581  1.0000
  C   C21       1.0  0.5053037567671269  0.8860289232861404  0.8402303478472958  1.0000
  C   C22       1.0  0.4941382250952843  0.7800426414682562  0.7870678239407097  1.0000
  C   C23       1.0  0.5241232803847424  0.2759483922545627  0.06927409500610787  1.0000
  C   C24       1.0  0.47585854588623283  0.3730417432036219  0.26402742906437743  1.0000
  C   C25       1.0  0.5078769229502527  0.3692843658650061  0.12007355058673845  1.0000
  C   C26       1.0  0.4890133855923223  0.2786978403911675  0.2137327646290288  1.0000
  C   C27       1.0  0.49165530284576425  0.4158484270787143  0.21348670341149056  1.0000
  C   C28       1.0  0.5112736966246275  0.23164253654907438  0.11933868875775734  1.0000
  C   C29       1.0  0.505318061997201  0.45420788083895036  0.11397473221997954  1.0000
  C   C30       1.0  0.4941358395648977  0.5070303164642594  0.21996066544580367  1.0000
  N   N1        1.0  0.5165974610188045  0.5344745093677475  0.7733657877227174  1.0000
  N   N2        1.0  0.48393521946979956  0.4396138615063237  0.8678760206028998  1.0000
  N   N3        1.0  0.5165022923766855  0.7388855168944704  0.4655248040034223  1.0000
  N   N4        1.0  0.4839154158540069  0.9282669274769831  0.5603872338996112  1.0000
  N   N5        1.0  0.516588167070566  0.22663376396136678  0.26111080280004023  1.0000
  N   N6        1.0  0.48390607722917167  0.1321274445162999  0.07174025939888648  1.0000
  O   O1        1.0  0.666963312369596  0.5962475698394982  0.5840406772311226  1.0000
  O   O2        1.0  0.6669843930319886  0.4878009718863865  0.4037575985157886  1.0000
  O   O3        1.0  0.6669995512540936  0.4159550153362306  0.5122012862822772  1.0000
  O   O4        1.0  0.19202459015445333  0.6002371246822379  0.5214105570783191  1.0000
  O   O5        1.0  0.19206044846310286  0.47858103929054624  0.5788232885368957  1.0000
  O   O6        1.0  0.1920598245791609  0.4211782240062761  0.399756269113702  1.0000
  O   O7        1.0  0.807995846188625  0.18838361716797916  0.933622456095087  1.0000
  O   O8        1.0  0.8079907859321268  0.2452390944397536  0.8116207278277658  1.0000
  O   O9        1.0  0.8080079774793845  0.06637976377810877  0.7547565077233217  1.0000
  O   O10       1.0  0.3329085349321943  0.2508606842657244  0.9295071453914402  1.0000
  O   O11       1.0  0.3329272342678209  0.07048960336385336  0.8213451602951595  1.0000
  O   O12       1.0  0.332906193757772  0.17865201561974697  0.7491402385735313  1.0000
  O   O13       1.0  0.32913568461065523  0.5785726843889734  0.7550538510533401  1.0000
  O   O14       1.0  0.7349046893380446  0.5650814754124696  0.8295266319322323  1.0000
  O   O15       1.0  0.6715744154597801  0.4212517130530458  0.9119007902406153  1.0000
  O   O16       1.0  0.265533954345628  0.49574505184903495  0.898597601028115  1.0000
  O   O17       1.0  0.3289946075374531  0.6764839130486492  0.4214164192965625  1.0000
  O   O18       1.0  0.7347792255891435  0.7644461243234275  0.4349266963286097  1.0000
  O   O19       1.0  0.6715839335441701  0.9906461093549696  0.5787262169145749  1.0000
  O   O20       1.0  0.26551162681226265  0.9028489540682684  0.5042626882026369  1.0000
  O   O21       1.0  0.3291363903421427  0.2449501599988935  0.3235198541674436  1.0000
  O   O22       1.0  0.7349052597872969  0.1704688627532605  0.23555038991143112  1.0000
  O   O23       1.0  0.6714891151454979  0.0881104231067908  0.009345749232821313  1.0000
  O   O24       1.0  0.2655089066750662  0.10140033152487862  0.0971498014224181  1.0000
