data_image0
_chemical_formula_structural       Co2H12C8O12
_chemical_formula_sum              "Co2 H12 C8 O12"
_cell_length_a       6.797736699676511
_cell_length_b       7.866768886821062
_cell_length_c       7.839296429989881
_cell_angle_alpha    121.24238515561309
_cell_angle_beta     100.29678478529254
_cell_angle_gamma    100.45710423077357

_space_group_name_H-M_alt    "P 1"
_space_group_IT_number       1

loop_
  _space_group_symop_operation_xyz
  'x, y, z'

loop_
  _atom_site_type_symbol
  _atom_site_label
  _atom_site_symmetry_multiplicity
  _atom_site_fract_x
  _atom_site_fract_y
  _atom_site_fract_z
  _atom_site_occupancy
  Co  Co1       1.0  0.48303141961916657  0.1406622232105192  0.8501929648499669  1.0000
  Co  Co2       1.0  0.9819168869691098  0.8500884734527998  0.13966770620547192  1.0000
  H   H1        1.0  0.49495854385956045  0.510343573679421  0.030459548202337223  1.0000
  H   H2        1.0  0.0012419903997126992  0.0358018415424084  0.5133680511175811  1.0000
  H   H3        1.0  0.24935017709164245  0.4369695291181301  0.9750453900591224  1.0000
  H   H4        1.0  0.7560152364493788  0.9818758856179598  0.4398520594252273  1.0000
  H   H5        1.0  0.8558611424171545  0.4375621674496273  0.14853002751384276  1.0000
  H   H6        1.0  0.35641970766018016  0.1473212865906888  0.4356031348092059  1.0000
  H   H7        1.0  0.8163659940674324  0.20313823627235905  0.09370894669586961  1.0000
  H   H8        1.0  0.3162477973745156  0.0956516659398687  0.2030536816683224  1.0000
  H   H9        1.0  0.28446240286751123  0.47284073546259  0.6492674359276974  1.0000
  H   H10       1.0  0.7883776356903596  0.6521040883917238  0.4755855167130605  1.0000
  H   H11       1.0  0.22551730355029062  0.46741648189670565  0.3431581068839762  1.0000
  H   H12       1.0  0.7321568678176362  0.34479062204076166  0.4670110709465191  1.0000
  C   C1        1.0  0.26378339193531275  0.7768845349320161  0.8738250534499556  1.0000
  C   C2        1.0  0.7624203993291445  0.8717544724477336  0.7785185898896714  1.0000
  C   C3        1.0  0.26839069621834716  0.6148285469983109  0.6637814979720958  1.0000
  C   C4        1.0  0.7714441363956723  0.6643291788139436  0.6168971903256164  1.0000
  C   C5        1.0  0.22882126585603402  0.6091128038475871  0.4866508784718206  1.0000
  C   C6        1.0  0.7332021200124859  0.48652084156429254  0.6090345451037464  1.0000
  C   C7        1.0  0.16190855163219453  0.7612918984777295  0.45384782319494815  1.0000
  C   C8        1.0  0.6664392435594452  0.4516679395108554  0.7604462946037884  1.0000
  O   O1        1.0  0.35891760880859647  0.9733598544018988  0.9677875831058244  1.0000
  O   O2        1.0  0.859361006035371  0.9696041958087559  0.9764672773031788  1.0000
  O   O3        1.0  0.15846269905473065  0.7008063842707699  0.952484531214381  1.0000
  O   O4        1.0  0.6515938318685884  0.9447470668712867  0.7009116087948827  1.0000
  O   O5        1.0  0.2039273223039118  0.9561131268916512  0.6004994165642259  1.0000
  O   O6        1.0  0.7040146416167944  0.5984676928595151  0.9548017157326427  1.0000
  O   O7        1.0  0.04868013872206933  0.681557699276567  0.26417767446744717  1.0000
  O   O8        1.0  0.558717716400551  0.2611124839344825  0.6814363999498454  1.0000
  O   O9        1.0  0.7477023881752629  0.31235272561881544  0.11637765009481166  1.0000
  O   O10       1.0  0.2484313456420111  0.1208457736618413  0.3137182064300745  1.0000
  O   O11       1.0  0.37569301629489626  0.41087584928628457  0.024531994737941383  1.0000
  O   O12       1.0  0.8831356881613958  0.034296291183999  0.416391007724414  1.0000
