data_image0
_chemical_formula_structural       Zn4H28C32N20O8
_chemical_formula_sum              "Zn4 H28 C32 N20 O8"
_cell_length_a       9.849472154200523
_cell_length_b       12.01140465698167
_cell_length_c       12.011420022392569
_cell_angle_alpha    88.24881449100096
_cell_angle_beta     69.26570760270992
_cell_angle_gamma    69.26593111407577

_space_group_name_H-M_alt    "P 1"
_space_group_IT_number       1

loop_
  _space_group_symop_operation_xyz
  'x, y, z'

loop_
  _atom_site_type_symbol
  _atom_site_label
  _atom_site_symmetry_multiplicity
  _atom_site_fract_x
  _atom_site_fract_y
  _atom_site_fract_z
  _atom_site_occupancy
  Zn  Zn1       1.0  0.8549171539837062  0.8419804556405239  0.6266126965131493  1.0000
  Zn  Zn2       1.0  0.6450839384701793  0.37339127995390686  0.15802177636199852  1.0000
  Zn  Zn3       1.0  0.14508283444194356  0.15802175010189498  0.37338894700058495  1.0000
  Zn  Zn4       1.0  0.3549163069803429  0.626612709147679  0.8419822339323558  1.0000
  H   H1        1.0  0.7052719680320438  0.7209004903547861  0.5094828552989058  1.0000
  H   H2        1.0  0.7947278037363291  0.4905196048096058  0.27909882546570935  1.0000
  H   H3        1.0  0.2947269143222472  0.27910172007432266  0.4905174511662977  1.0000
  H   H4        1.0  0.20527777212113574  0.5094799303915492  0.7208979114501872  1.0000
  H   H5        1.0  0.5005225743608576  0.7512296442333124  0.5705997058955248  1.0000
  H   H6        1.0  0.9994787158757885  0.4294033064901227  0.24877059127991438  1.0000
  H   H7        1.0  0.4994782841442955  0.24877076769674028  0.4294025669706727  1.0000
  H   H8        1.0  0.0005268703620231852  0.5705917405788055  0.7512287778602839  1.0000
  H   H9        1.0  0.6326824079312628  0.6032970960444003  0.5593583462414813  1.0000
  H   H10       1.0  0.8673155739205353  0.4406441523216529  0.39670490211562287  1.0000
  H   H11       1.0  0.3673190532481883  0.3967042268463459  0.4406395569722505  1.0000
  H   H12       1.0  0.1326857145022872  0.5593598493928126  0.6032954679736307  1.0000
  H   H13       1.0  0.6479810823208466  0.018897549538124295  0.8452034840857365  1.0000
  H   H14       1.0  0.8520147225035332  0.15479573880822528  0.9811120256539141  1.0000
  H   H15       1.0  0.35200105274695653  0.9811100369399668  0.15479663216338932  1.0000
  H   H16       1.0  0.14799335393488636  0.845201076479981  0.018894043448518975  1.0000
  H   H17       1.0  0.5074050464421731  0.24166341884151166  0.8904868690815633  1.0000
  H   H18       1.0  0.9925876702789793  0.10950473678290958  0.7583451010486616  1.0000
  H   H19       1.0  0.492581795461433  0.7583432937909363  0.10950688167498163  1.0000
  H   H20       1.0  0.007421265722442335  0.8904902875761846  0.24166076786396215  1.0000
  H   H21       1.0  0.6888896698173781  0.2688181131333208  0.5118851844919945  1.0000
  H   H22       1.0  0.8111032355415945  0.4881031835625719  0.7311770058534892  1.0000
  H   H23       1.0  0.31111017124096224  0.7311796477257742  0.488106648111966  1.0000
  H   H24       1.0  0.18889627024766753  0.5118909615627699  0.2688241954078663  1.0000
  H   H25       1.0  0.824059790421458  0.04276178749251609  0.4801178665297813  1.0000
  H   H26       1.0  0.6759352232453679  0.5198784174239249  0.9572343282585364  1.0000
  H   H27       1.0  0.17593883490795287  0.9572386395774186  0.5198800731548019  1.0000
  H   H28       1.0  0.32407168402263403  0.48011841985052667  0.042765426541734514  1.0000
  C   C1        1.0  0.6107545613350215  0.7219152559529292  0.6981699641652382  1.0000
  C   C2        1.0  0.889247330022094  0.301830848935971  0.2780850254010191  1.0000
  C   C3        1.0  0.38924994000061736  0.27808427528512414  0.3018279243289399  1.0000
  C   C4        1.0  0.1107513899559009  0.6981695521846234  0.7219203801640148  1.0000
  C   C5        1.0  0.6133902814341212  0.6978325255402137  0.57703049717297  1.0000
  C   C6        1.0  0.8866095387300916  0.42297453681232605  0.3021688195014889  1.0000
  C   C7        1.0  0.38661100685253313  0.3021669909252863  0.42297167559832627  1.0000
  C   C8        1.0  0.11339390911673063  0.5770249846961093  0.69783187965551  1.0000
  C   C9        1.0  0.6528782493965294  0.0775959274021432  0.7738961475404551  1.0000
  C   C10       1.0  0.8471152008091066  0.22610020715897858  0.9224113982897606  1.0000
  C   C11       1.0  0.3471106108601561  0.9224134604471811  0.2261010851041334  1.0000
  C   C12       1.0  0.1528909099949587  0.7738984037450152  0.07759353395395148  1.0000
  C   C13       1.0  0.5740579727187551  0.20082822028638245  0.798371999318178  1.0000
  C   C14       1.0  0.9259346487182896  0.20161888003096348  0.7991792007945052  1.0000
  C   C15       1.0  0.42593209275035104  0.7991785042353567  0.2016182967035219  1.0000
  C   C16       1.0  0.07406797097889485  0.7983779385078336  0.20082598986115843  1.0000
  C   C17       1.0  0.5862413634415305  0.27084780723643576  0.702721870823467  1.0000
  C   C18       1.0  0.9137466619606441  0.29726772386825207  0.7291552260870092  1.0000
  C   C19       1.0  0.4137537183346325  0.7291553271335686  0.2972703768796663  1.0000
  C   C20       1.0  0.08625136055830046  0.702727306992024  0.27084888593208234  1.0000
  C   C21       1.0  0.6770049651076562  0.2145857340400354  0.5864863824552131  1.0000
  C   C22       1.0  0.8229918854584212  0.41350221802349546  0.7854126500684443  1.0000
  C   C23       1.0  0.32299773296990963  0.7854174021223129  0.41350527008039967  1.0000
  C   C24       1.0  0.17701197100071647  0.5864919285379385  0.21458809259114994  1.0000
  C   C25       1.0  0.7520759024306898  0.09102933847064777  0.5689586698159061  1.0000
  C   C26       1.0  0.7479197271849642  0.4310362691054833  0.9089704591028538  1.0000
  C   C27       1.0  0.24792010200752665  0.9089719876706822  0.43103835495105614  1.0000
  C   C28       1.0  0.2520882861543967  0.5689605634822781  0.091030632745948  1.0000
  C   C29       1.0  0.5088858087641199  0.4052804370857642  0.7211994601593972  1.0000
  C   C30       1.0  0.9911072871821532  0.27878509916744315  0.5947258335549321  1.0000
  C   C31       1.0  0.49110909001124264  0.5947343494891512  0.2787908195129134  1.0000
  C   C32       1.0  0.008892606322568527  0.7212081620263858  0.40527194944242956  1.0000
  N   N1        1.0  0.6979517969074823  0.7738631354369827  0.7238893754526572  1.0000
  N   N2        1.0  0.8020510466802618  0.276113475614018  0.22613608462641124  1.0000
  N   N3        1.0  0.3020516509393474  0.2261363860714524  0.27611132370434177  1.0000
  N   N4        1.0  0.19794724351624643  0.7238878209711286  0.7738694210335311  1.0000
  N   N5        1.0  0.6603080164564832  0.7806926800196765  0.84466055710552  1.0000
  N   N6        1.0  0.8396960543239231  0.15534123960237878  0.21930258167105174  1.0000
  N   N7        1.0  0.3396952059149995  0.21930504947981427  0.15534026389767772  1.0000
  N   N8        1.0  0.16030480418123727  0.8446591723276737  0.7806996911951457  1.0000
  N   N9        1.0  0.5545602146508416  0.7342654061881856  0.891105384549391  1.0000
  N   N10       1.0  0.9454437271231482  0.10889650712546481  0.2657301988721912  1.0000
  N   N11       1.0  0.4454436629774817  0.26573321985569004  0.10889521451269964  1.0000
  N   N12       1.0  0.05455819538732956  0.891103911650944  0.7342700928734517  1.0000
  N   N13       1.0  0.5212780427999988  0.6963536447963603  0.8017069060021099  1.0000
  N   N14       1.0  0.9787234254967884  0.19829574366448102  0.3036449005883952  1.0000
  N   N15       1.0  0.47872540504683053  0.3036458767120749  0.19829379315488896  1.0000
  N   N16       1.0  0.02127786278986592  0.8017037728010122  0.696357272182901  1.0000
  N   N17       1.0  0.739904273134236  0.023727943281471695  0.6614164796408418  1.0000
  N   N18       1.0  0.760091089951246  0.33858054247141917  0.9762738784485377  1.0000
  N   N19       1.0  0.2600876061094512  0.9762751734327179  0.3385808818816897  1.0000
  N   N20       1.0  0.23991347448345127  0.6614189714670714  0.023728987299271902  1.0000
  O   O1        1.0  0.4236796579600508  0.4510865456230419  0.8315128883458628  1.0000
  O   O2        1.0  0.07632411408014406  0.1684764330400697  0.5489162977318713  1.0000
  O   O3        1.0  0.5763232971423874  0.5489183738984734  0.16848113097036338  1.0000
  O   O4        1.0  0.9236871752710982  0.8315159117717243  0.4510872897754865  1.0000
  O   O5        1.0  0.5296976691331351  0.46433308269937607  0.6338794264866152  1.0000
  O   O6        1.0  0.9702807979850333  0.3661082383520905  0.5356666064515139  1.0000
  O   O7        1.0  0.47029183559153853  0.5356682340796651  0.3661203600386714  1.0000
  O   O8        1.0  0.029699726933501  0.6338778422152272  0.4643354794582706  1.0000
