data_image0
_chemical_formula_structural       Co4H16C16O20
_chemical_formula_sum              "Co4 H16 C16 O20"
_cell_length_a       5.824413350770392
_cell_length_b       8.066941036088817
_cell_length_c       11.200233406411492
_cell_angle_alpha    89.9873722658706
_cell_angle_beta     90.0075545481783
_cell_angle_gamma    90.02383267672394

_space_group_name_H-M_alt    "P 1"
_space_group_IT_number       1

loop_
  _space_group_symop_operation_xyz
  'x, y, z'

loop_
  _atom_site_type_symbol
  _atom_site_label
  _atom_site_symmetry_multiplicity
  _atom_site_fract_x
  _atom_site_fract_y
  _atom_site_fract_z
  _atom_site_occupancy
  Co  Co1       1.0  0.7911017147312053  0.11459853333376914  0.9816838435335454  1.0000
  Co  Co2       1.0  0.7089164461965468  0.8853908182230228  0.4817027872193478  1.0000
  Co  Co3       1.0  0.2088711627818043  0.6145945339283545  0.5182433027844837  1.0000
  Co  Co4       1.0  0.29106190252179687  0.38543632384594423  0.018293872825765296  1.0000
  H   H1        1.0  0.7382101409035329  0.7509878298318641  0.7771478477006893  1.0000
  H   H2        1.0  0.761889899318426  0.24893844574062032  0.27703927954406987  1.0000
  H   H3        1.0  0.26190047608929495  0.251176126847753  0.7229088235563237  1.0000
  H   H4        1.0  0.2384812241903447  0.748951376608517  0.2226644809000291  1.0000
  H   H5        1.0  0.9881786637511637  0.8500312451540923  0.7183528258791939  1.0000
  H   H6        1.0  0.5118098282181337  0.1500203520340549  0.218267986575178  1.0000
  H   H7        1.0  0.011797886087045103  0.3497974630865743  0.7817028986372563  1.0000
  H   H8        1.0  0.4882901734859217  0.6501079345980688  0.2816759958441537  1.0000
  H   H9        1.0  0.2513690998687892  0.8345157055643996  0.8412950412179043  1.0000
  H   H10       1.0  0.24864370793865484  0.16570665392809764  0.34124294977270603  1.0000
  H   H11       1.0  0.7484486098041144  0.3341041283471569  0.6587266169123396  1.0000
  H   H12       1.0  0.7517919554150155  0.6655598722297714  0.1587431461828714  1.0000
  H   H13       1.0  0.17931264987888798  0.767665372611667  0.9871191817501097  1.0000
  H   H14       1.0  0.32081566747267226  0.2323846940831445  0.48707078719165503  1.0000
  H   H15       1.0  0.8203290135138701  0.2677217806226935  0.5128561946992889  1.0000
  H   H16       1.0  0.6797222508972852  0.7322607878428686  0.012897291701961  1.0000
  C   C1        1.0  0.697904298302639  0.010315507551538901  0.7384202295106022  1.0000
  C   C2        1.0  0.8019795418704165  0.9895627402682053  0.23843011271353018  1.0000
  C   C3        1.0  0.3019006874210389  0.510574272594795  0.7615828267964843  1.0000
  C   C4        1.0  0.19792291339440743  0.48960235743286534  0.2615334827100924  1.0000
  C   C5        1.0  0.8425868710517863  0.8648645202017068  0.7798482029080629  1.0000
  C   C6        1.0  0.65740058513952  0.13511547206766042  0.27978969554352057  1.0000
  C   C7        1.0  0.157340379149133  0.364901184043049  0.7201818646630045  1.0000
  C   C8        1.0  0.3427470003623512  0.635100618167897  0.22013083562208635  1.0000
  C   C9        1.0  0.1594945944536832  0.8696623621378379  0.9234454633723104  1.0000
  C   C10       1.0  0.34052944633604193  0.13042523112298451  0.42338375935797495  1.0000
  C   C11       1.0  0.8403084643476434  0.3695133280565699  0.5766329387829003  1.0000
  C   C12       1.0  0.6597715241016927  0.6303424288119147  0.07662325994348149  1.0000
  C   C13       1.0  0.270739200150615  0.02425493219297441  0.9728759867400922  1.0000
  C   C14       1.0  0.22922742151193634  0.975804309765103  0.4728145698041786  1.0000
  C   C15       1.0  0.7290123365187356  0.5241235490111509  0.5273060721818581  1.0000
  C   C16       1.0  0.7709911818556919  0.4758076282896085  0.027207531994136495  1.0000
  O   O1        1.0  0.6733853719276937  0.1338627210476417  0.8082578883850285  1.0000
  O   O2        1.0  0.8264619019666172  0.8660976233703014  0.3083234636603008  1.0000
  O   O3        1.0  0.3263314205625889  0.6340798172526123  0.6916839460258615  1.0000
  O   O4        1.0  0.17347037798052162  0.36602586106763385  0.19172456462411697  1.0000
  O   O5        1.0  0.6058619218094067  0.002089000055335101  0.636045884617232  1.0000
  O   O6        1.0  0.8939933223619507  0.9978184633374244  0.1360587194986351  1.0000
  O   O7        1.0  0.39400331188370796  0.5023435009941155  0.8639281593449155  1.0000
  O   O8        1.0  0.1057201417342881  0.4979266319344761  0.3638419116377207  1.0000
  O   O9        1.0  0.1579172791359298  0.16230837152089359  0.965901323483045  1.0000
  O   O10       1.0  0.3419513387491762  0.8377281595210989  0.4657029179753991  1.0000
  O   O11       1.0  0.8418184138305236  0.6622045293991691  0.5342537505561182  1.0000
  O   O12       1.0  0.6580804850659163  0.33775184153012117  0.0341292020421093  1.0000
  O   O13       1.0  0.4680154416112998  0.0074908210365052024  0.0158154169084952  1.0000
  O   O14       1.0  0.03205091915653209  0.9925680435526161  0.515908468234322  1.0000
  O   O15       1.0  0.5317113499657538  0.5073619524546944  0.4843330650728106  1.0000
  O   O16       1.0  0.9683006201708437  0.4926067903502799  0.9842552445103435  1.0000
  O   O17       1.0  0.9203807178150215  0.8943497752912395  0.8993824857258516  1.0000
  O   O18       1.0  0.5796570455907074  0.10570746213014101  0.39934239176514547  1.0000
  O   O19       1.0  0.0794441745569117  0.3942040017224856  0.6006311770956714  1.0000
  O   O20       1.0  0.42063920983102326  0.6055544452223743  0.10063920115453576  1.0000
