data_image0
_chemical_formula_structural       Cd2H40C36N4O8
_chemical_formula_sum              "Cd2 H40 C36 N4 O8"
_cell_length_a       9.629434866825438
_cell_length_b       10.088772541432064
_cell_length_c       10.438093091511256
_cell_angle_alpha    110.1002075309271
_cell_angle_beta     92.26852755126858
_cell_angle_gamma    106.38812883689884

_space_group_name_H-M_alt    "P 1"
_space_group_IT_number       1

loop_
  _space_group_symop_operation_xyz
  'x, y, z'

loop_
  _atom_site_type_symbol
  _atom_site_label
  _atom_site_symmetry_multiplicity
  _atom_site_fract_x
  _atom_site_fract_y
  _atom_site_fract_z
  _atom_site_occupancy
  Cd  Cd1       1.0  0.3771586000306754  0.8681664185189887  0.08514621414907707  1.0000
  Cd  Cd2       1.0  0.6228475186316587  0.13183651443368657  0.9148519916327302  1.0000
  H   H1        1.0  0.3186222199434355  0.7711434113737424  0.7535673719563717  1.0000
  H   H2        1.0  0.6813717330106216  0.2288542979550811  0.24642868165734905  1.0000
  H   H3        1.0  0.31759546886508616  0.5657070894055706  0.5372312740157738  1.0000
  H   H4        1.0  0.682400913845065  0.434291668579256  0.46276425319974374  1.0000
  H   H5        1.0  0.40484587156755947  0.3269303163395776  0.7895580712281571  1.0000
  H   H6        1.0  0.5951450028694651  0.6730674855294083  0.21043982977199246  1.0000
  H   H7        1.0  0.39511012149733193  0.5431846536627845  0.9957274598122864  1.0000
  H   H8        1.0  0.6048762595537056  0.456812174347739  0.0042690097376051695  1.0000
  H   H9        1.0  0.22234513007972373  0.3416285670630117  0.3815107213639806  1.0000
  H   H10       1.0  0.7776497576555813  0.6583657324887326  0.6184861313518084  1.0000
  H   H11       1.0  0.24104318918916331  0.13342071281525136  0.17498627417941037  1.0000
  H   H12       1.0  0.7589499412499024  0.8665713693657509  0.825016481769161  1.0000
  H   H13       1.0  0.5302353676680696  0.033762761960268506  0.40097254241823066  1.0000
  H   H14       1.0  0.46976628130719444  0.9662391696153494  0.5990309297361023  1.0000
  H   H15       1.0  0.5271409252080304  0.23844674386530323  0.6199444722402346  1.0000
  H   H16       1.0  0.4728555816203084  0.7615553550480103  0.3800588894520445  1.0000
  H   H17       1.0  0.09277272312027655  0.9397387033387474  0.8883326022827871  1.0000
  H   H18       1.0  0.9072310729763448  0.0602665415425605  0.11166918021486788  1.0000
  H   H19       1.0  0.1190062629292541  0.1267436915805575  0.9080580161229506  1.0000
  H   H20       1.0  0.8809978891368931  0.8732626885479606  0.09193841163255466  1.0000
  H   H21       1.0  0.972311595111421  0.9781160035769075  0.6845491136345316  1.0000
  H   H22       1.0  0.0276875169173678  0.0218815187580859  0.31545183460035986  1.0000
  H   H23       1.0  0.14902394542261282  0.0651668043344813  0.6578567086777412  1.0000
  H   H24       1.0  0.8509727131511655  0.9348296968631046  0.3421380681325843  1.0000
  H   H25       1.0  0.03475526185665252  0.741662589575185  0.639759014201907  1.0000
  H   H26       1.0  0.9652452548844012  0.2583360109521138  0.36024234237419245  1.0000
  H   H27       1.0  0.2134394039149826  0.8310169107239604  0.6192040323972563  1.0000
  H   H28       1.0  0.7865596979571238  0.168980623404714  0.3807940453421637  1.0000
  H   H29       1.0  0.9402704164380539  0.7963962146015715  0.4352041472929569  1.0000
  H   H30       1.0  0.0597256103025785  0.20360140813603073  0.5647967346647107  1.0000
  H   H31       1.0  0.1234608697541616  0.8694101929055619  0.4163631265939855  1.0000
  H   H32       1.0  0.876536834176797  0.1305862551683461  0.5836364564678718  1.0000
  H   H33       1.0  0.15714411148901763  0.6181675336143897  0.3816985283118157  1.0000
  H   H34       1.0  0.8428466862276595  0.38182687228892576  0.618304933857125  1.0000
  H   H35       1.0  0.967768887394577  0.547602080409824  0.3877751172578314  1.0000
  H   H36       1.0  0.03222121416332155  0.45239352172684016  0.6122162702537608  1.0000
  H   H37       1.0  0.9166498431191316  0.6238724995887283  0.18328951562163812  1.0000
  H   H38       1.0  0.08336261987356856  0.37613700090270186  0.8167034413679984  1.0000
  H   H39       1.0  0.0016951029905953308  0.48317973422468424  0.14442030386015856  1.0000
  H   H40       1.0  0.9983116610471188  0.51682206146306  0.8555756241016113  1.0000
  C   C1        1.0  0.3368068169939846  0.6705981887393265  0.7566993274000282  1.0000
  C   C2        1.0  0.6631878851402818  0.32940174784042864  0.2432965418794666  1.0000
  C   C3        1.0  0.3365219385303106  0.5552042261538759  0.6363103339824858  1.0000
  C   C4        1.0  0.663474447565406  0.44479452789972374  0.3636861500648506  1.0000
  C   C5        1.0  0.3654818519489779  0.42965393165351884  0.6450140250100702  1.0000
  C   C6        1.0  0.6345138820002348  0.5703459675274657  0.3549828231936586  1.0000
  C   C7        1.0  0.3881968061558965  0.42469540834699865  0.7768538794813367  1.0000
  C   C8        1.0  0.6117972506029902  0.5753056654976805  0.22314426761820275  1.0000
  C   C9        1.0  0.3829839427431878  0.5439881873427339  0.8916681970413406  1.0000
  C   C10       1.0  0.617007304591162  0.45601073011732723  0.1083291333757827  1.0000
  C   C11       1.0  0.3718214740004058  0.30701788628245913  0.5198297873227914  1.0000
  C   C12       1.0  0.6281752951493119  0.6929819715685285  0.4801689966369978  1.0000
  C   C13       1.0  0.29275302909014306  0.2770513385480982  0.39172852551481435  1.0000
  C   C14       1.0  0.7072422416991628  0.7229440648010481  0.608270627113427  1.0000
  C   C15       1.0  0.30137899064931173  0.16072787227901134  0.2761117406991218  1.0000
  C   C16       1.0  0.6986162801399944  0.839267531070135  0.7238874119291268  1.0000
  C   C17       1.0  0.4621756983307535  0.10434676294881479  0.40340584299548243  1.0000
  C   C18       1.0  0.537825570976068  0.8956540608981811  0.596596286078217  1.0000
  C   C19       1.0  0.45925563408710707  0.2178139754153179  0.5244892406224082  1.0000
  C   C20       1.0  0.5407415181166115  0.7821869862330644  0.47551184324983337  1.0000
  C   C21       1.0  0.3096650975855155  0.06014612870069408  0.8740890031045083  1.0000
  C   C22       1.0  0.6903393405009268  0.9398579828469099  0.1259095447412762  1.0000
  C   C23       1.0  0.1449447221342197  0.02547753409858439  0.8472158426698756  1.0000
  C   C24       1.0  0.8550583112399508  0.9745254992567068  0.15278229683470101  1.0000
  C   C25       1.0  0.08681391017916702  0.9795473135833961  0.6948740994731962  1.0000
  C   C26       1.0  0.9131872451661569  0.020450157541432586  0.3051230656192132  1.0000
  C   C27       1.0  0.09868937936290213  0.8288897907025898  0.6046709321134642  1.0000
  C   C28       1.0  0.9013093529974441  0.171106623903782  0.39532867304080105  1.0000
  C   C29       1.0  0.05038695704738668  0.7869740977089422  0.45128190902226356  1.0000
  C   C30       1.0  0.9496117820840769  0.21302230903496877  0.5487196097956542  1.0000
  C   C31       1.0  0.04959537174742926  0.6311020943750236  0.3609933059756328  1.0000
  C   C32       1.0  0.9504030982915382  0.36889656129367415  0.6390108769111364  1.0000
  C   C33       1.0  0.01759054141584211  0.6008814549610973  0.20681975678345305  1.0000
  C   C34       1.0  0.9824218482420691  0.3991246456334281  0.7931797182067937  1.0000
  C   C35       1.0  0.14258623218783129  0.6949409305940434  0.1596465106794724  1.0000
  C   C36       1.0  0.8574318919709615  0.3050604419135823  0.8403630559443582  1.0000
  N   N1        1.0  0.36040871240392386  0.6661373210469747  0.8824027190947773  1.0000
  N   N2        1.0  0.6395835599742484  0.33386156687677737  0.11759367658292061  1.0000
  N   N3        1.0  0.3845947087453183  0.0755752493612434  0.2815721681328185  1.0000
  N   N4        1.0  0.615404124034292  0.9244245336922104  0.7184285736754388  1.0000
  O   O1        1.0  0.27319440393549854  0.6995321251575889  0.195927449263003  1.0000
  O   O2        1.0  0.7268226083024416  0.30046589271434954  0.8040857427735587  1.0000
  O   O3        1.0  0.38984512358952383  0.11974967212164239  0.8020225493559536  1.0000
  O   O4        1.0  0.610157941949936  0.880265715499675  0.19798166417943713  1.0000
  O   O5        1.0  0.36649059814545387  0.0314008318093641  0.9704960981532551  1.0000
  O   O6        1.0  0.6335141772874594  0.9685920449945229  0.02949484824687696  1.0000
  O   O7        1.0  0.11468482132362108  0.7656763846057402  0.08663628925648233  1.0000
  O   O8        1.0  0.8853438850012555  0.23433476249896762  0.9133759514215711  1.0000
