data_image0
_chemical_formula_structural       Cu4H48C52N24Cl4O4F8
_chemical_formula_sum              "Cu4 H48 C52 N24 Cl4 O4 F8"
_cell_length_a       7.503223669002882
_cell_length_b       14.23775960940258
_cell_length_c       14.473011099752432
_cell_angle_alpha    104.35279828760277
_cell_angle_beta     90.00000220308618
_cell_angle_gamma    89.99990281611686

_space_group_name_H-M_alt    "P 1"
_space_group_IT_number       1

loop_
  _space_group_symop_operation_xyz
  'x, y, z'

loop_
  _atom_site_type_symbol
  _atom_site_label
  _atom_site_symmetry_multiplicity
  _atom_site_fract_x
  _atom_site_fract_y
  _atom_site_fract_z
  _atom_site_occupancy
  Cu  Cu1       1.0  0.16867928374794167  0.9974899625219608  0.8885752400677736  1.0000
  Cu  Cu2       1.0  0.6686797867223717  0.5025095859095572  0.11142310801801611  1.0000
  Cu  Cu3       1.0  0.8313226814081389  0.0025095549366725  0.11142430355229754  1.0000
  Cu  Cu4       1.0  0.33131818015336023  0.4974892094090323  0.8885755658578776  1.0000
  H   H1        1.0  0.12176634446225884  0.8277927150417811  0.17748735228560975  1.0000
  H   H2        1.0  0.6217650552552172  0.6722068724466796  0.8225123868318891  1.0000
  H   H3        1.0  0.8782342879321451  0.1722075302367685  0.8225116805918804  1.0000
  H   H4        1.0  0.3782369099009487  0.3277926393346321  0.17748853727555775  1.0000
  H   H5        1.0  0.2795702740364022  0.1444587205487977  0.07972100551126725  1.0000
  H   H6        1.0  0.7795724067073808  0.3555408237997355  0.9202776745435984  1.0000
  H   H7        1.0  0.720430358358087  0.8555415190524297  0.9202794078535917  1.0000
  H   H8        1.0  0.22042822568931805  0.6444579715175822  0.07972099933199676  1.0000
  H   H9        1.0  0.33159079385306  0.8403135154466099  0.011592966538266582  1.0000
  H   H10       1.0  0.8315868990986249  0.6596858662895357  0.988408105906821  1.0000
  H   H11       1.0  0.6684138368217208  0.15968744913332242  0.9884076263270886  1.0000
  H   H12       1.0  0.16841106777715714  0.3403129261903857  0.01159125821276059  1.0000
  H   H13       1.0  0.923812521601164  0.6753010976862298  0.23296834107302544  1.0000
  H   H14       1.0  0.4238138911356304  0.8246974824842399  0.7670297701680584  1.0000
  H   H15       1.0  0.07618411251280584  0.3246984311295975  0.7670284415729116  1.0000
  H   H16       1.0  0.576185408497274  0.17530347925956852  0.23297151294158175  1.0000
  H   H17       1.0  0.36782756436848274  0.6330895169611708  0.23589164988619873  1.0000
  H   H18       1.0  0.8678296419217519  0.8669098387348697  0.7641073436826036  1.0000
  H   H19       1.0  0.6321690697469081  0.36690926984206135  0.7641090947209009  1.0000
  H   H20       1.0  0.1321709904726447  0.1330904065436798  0.23589168919488668  1.0000
  H   H21       1.0  0.566585628726955  0.9481403686832907  0.24531373356184363  1.0000
  H   H22       1.0  0.0665852064444508  0.5518614435250199  0.754687246704478  1.0000
  H   H23       1.0  0.43341367090594224  0.0518605930605176  0.7546875495477965  1.0000
  H   H24       1.0  0.9334154259511894  0.4481380710955919  0.24531298715943006  1.0000
  H   H25       1.0  0.5234883289507622  0.8353857900649971  0.16352947927101988  1.0000
  H   H26       1.0  0.023486221993700002  0.6646153354198744  0.8364720214247685  1.0000
  H   H27       1.0  0.47651230344146733  0.1646158966587947  0.8364719833394221  1.0000
  H   H28       1.0  0.976514410403141  0.33538345138145337  0.16352872318187656  1.0000
  H   H29       1.0  0.49050244620281097  0.8819809684430526  0.39689800700938366  1.0000
  H   H30       1.0  0.9905013046155421  0.61801753962105  0.6031021599738366  1.0000
  H   H31       1.0  0.50949818619398  0.11801782119694339  0.6031020473535806  1.0000
  H   H32       1.0  0.009500660541782202  0.38198124717964543  0.39689858463265903  1.0000
  H   H33       1.0  0.3104999502740499  0.797325544229892  0.3819981113651139  1.0000
  H   H34       1.0  0.8104998716756812  0.7026745911120216  0.6180010745898061  1.0000
  H   H35       1.0  0.689499349359963  0.2026746953719609  0.6180023019998941  1.0000
  H   H36       1.0  0.18950076072106736  0.29732420136662796  0.38199828952947007  1.0000
  H   H37       1.0  0.2765688664087025  0.1793093002419965  0.4963267778725467  1.0000
  H   H38       1.0  0.7765697283600377  0.32069023561444965  0.5036746638317952  1.0000
  H   H39       1.0  0.7234344315067535  0.8206909393579522  0.5036736354920137  1.0000
  H   H40       1.0  0.22342957127511917  0.6793092790067875  0.49632557003226924  1.0000
  H   H41       1.0  0.7861274133658044  0.030218253142592705  0.3983537678928713  1.0000
  H   H42       1.0  0.2861282977640657  0.4697841877151561  0.6016449384484589  1.0000
  H   H43       1.0  0.21387321902408024  0.9697848863810918  0.6016473634757775  1.0000
  H   H44       1.0  0.7138723346280715  0.5302175046859576  0.39835514367460706  1.0000
  H   H45       1.0  0.9574097304626294  0.8959091868668878  0.2944403450815756  1.0000
  H   H46       1.0  0.45741046753206416  0.6040929890093095  0.7055579658693462  1.0000
  H   H47       1.0  0.04258823640734731  0.10409323335478152  0.7055592262990589  1.0000
  H   H48       1.0  0.5425914976217572  0.39590797557189467  0.2944426269963075  1.0000
  C   C1        1.0  0.3084393165470446  0.07127632471537741  0.08505634423570291  1.0000
  C   C2        1.0  0.8084398810753229  0.4287224671254678  0.9149421498297984  1.0000
  C   C3        1.0  0.6915626486090787  0.928723189904595  0.9149438896280558  1.0000
  C   C4        1.0  0.19156075132022474  0.5712770531724658  0.08505670354674785  1.0000
  C   C5        1.0  0.33183590097743126  0.9169912295048235  0.04801395428126648  1.0000
  C   C6        1.0  0.8318335805923385  0.5830081576741789  0.9519857376211862  1.0000
  C   C7        1.0  0.6681673969368307  0.08300973791440922  0.951985948340557  1.0000
  C   C8        1.0  0.16816571904622896  0.416989184843878  0.048013267496344304  1.0000
  C   C9        1.0  0.782671834521331  0.6877919266473285  0.24716105211485484  1.0000
  C   C10       1.0  0.28267324242743547  0.8122067881065647  0.7528370908489636  1.0000
  C   C11       1.0  0.2173247995938752  0.31220687151056126  0.7528369315175071  1.0000
  C   C12       1.0  0.7173260572065702  0.1877934514952884  0.24716332251604461  1.0000
  C   C13       1.0  0.5009622921446281  0.6633436698290824  0.24637005421084274  1.0000
  C   C14       1.0  0.0009636217212332003  0.8366560385270745  0.7536283315708661  1.0000
  C   C15       1.0  0.4990343419706706  0.3366551226514787  0.7536293099088882  1.0000
  C   C16       1.0  0.9990370106720124  0.163344931732091  0.24637088080756805  1.0000
  C   C17       1.0  0.46138958245929734  0.9021316876839123  0.20533779584085474  1.0000
  C   C18       1.0  0.9613885283809653  0.5978690230822963  0.7946629161885995  1.0000
  C   C19       1.0  0.538611049935284  0.09786854623997951  0.7946639980113731  1.0000
  C   C20       1.0  0.038613436775158  0.402130491537676  0.20533731767516633  1.0000
  C   C21       1.0  0.31966921137915716  0.8749314293439453  0.27231127252586873  1.0000
  C   C22       1.0  0.8196693948122944  0.6250701443771477  0.7276889606137334  1.0000
  C   C23       1.0  0.6803314210141808  0.1250695352378912  0.7276893203399412  1.0000
  C   C24       1.0  0.18033257034267794  0.3749300952234407  0.27231145275097657  1.0000
  C   C25       1.0  0.4144178993229773  0.8279455575162304  0.34498714114737794  1.0000
  C   C26       1.0  0.9144192561243757  0.672054478734971  0.6550120214508228  1.0000
  C   C27       1.0  0.5855800675505523  0.17205468208626226  0.6550132722177795  1.0000
  C   C28       1.0  0.08558270903170502  0.32794503872366226  0.34498752216925516  1.0000
  C   C29       1.0  0.21512334623442092  0.961070437388436  0.33201395487130014  1.0000
  C   C30       1.0  0.7151237988450918  0.5389312331826446  0.6679869920096451  1.0000
  C   C31       1.0  0.7848746206368417  0.038931249336627616  0.6679875077394399  1.0000
  C   C32       1.0  0.28487550078776286  0.46106973139983143  0.33201360085631393  1.0000
  C   C33       1.0  0.2979665495116706  0.0422344556577841  0.3908831769061934  1.0000
  C   C34       1.0  0.7979683171193843  0.45776651543322094  0.6091172385032382  1.0000
  C   C35       1.0  0.7020327501223351  0.9577657839440762  0.6091172364588148  1.0000
  C   C36       1.0  0.20203231527390397  0.5422344519872766  0.39088266411888395  1.0000
  C   C37       1.0  0.20697887319478533  0.11813343340557479  0.45079423651368  1.0000
  C   C38       1.0  0.706980877108393  0.3818676187684815  0.5492075798334498  1.0000
  C   C39       1.0  0.7930177609148858  0.8818689754620765  0.5492080958418414  1.0000
  C   C40       1.0  0.29301708976512947  0.618132620834011  0.45079283353170757  1.0000
  C   C41       1.0  0.02250350929379151  0.1112285032228755  0.4510994153036736  1.0000
  C   C42       1.0  0.5225014927402685  0.38877273053525135  0.5489010620191623  1.0000
  C   C43       1.0  0.9774984558589214  0.8887731835002768  0.5489020473066192  1.0000
  C   C44       1.0  0.4774964741320532  0.6112282368865181  0.45109884060325817  1.0000
  C   C45       1.0  0.9306932710317783  0.033029077398318  0.39566200152459174  1.0000
  C   C46       1.0  0.4306954975284755  0.4669732227706477  0.604337362567705  1.0000
  C   C47       1.0  0.06930336307669901  0.966974059288603  0.6043398200881925  1.0000
  C   C48       1.0  0.5693051348648198  0.5330277446498569  0.3956625400544169  1.0000
  C   C49       1.0  0.028674157453608008  0.9584499179260818  0.33678767685488264  1.0000
  C   C50       1.0  0.5286719355681414  0.5415512168072638  0.6632103714569271  1.0000
  C   C51       1.0  0.9713291404617056  0.04155033018986389  0.6632106657786212  1.0000
  C   C52       1.0  0.4713286968263049  0.4584490256326178  0.3367893516642441  1.0000
  N   N1        1.0  0.38835022464208896  0.9526828325603135  0.13835089203396217  1.0000
  N   N2        1.0  0.8883480079558411  0.547317225710522  0.8616489666672893  1.0000
  N   N3        1.0  0.6116517405128835  0.047317407040267795  0.8616495213307476  1.0000
  N   N4        1.0  0.11165129167932263  0.4526822889107151  0.1383512671967679  1.0000
  N   N5        1.0  0.3739698533490668  0.0513505392662523  0.16315526220925142  1.0000
  N   N6        1.0  0.8739703446332359  0.4486496400498012  0.8368435761295319  1.0000
  N   N7        1.0  0.6260294462837875  0.9486504253162166  0.8368453306567007  1.0000
  N   N8        1.0  0.12603028776351272  0.5513491524288554  0.1631557879897514  1.0000
  N   N9        1.0  0.2799474164034876  0.9909180456550503  0.012370077703629077  1.0000
  N   N10       1.0  0.7799453374100483  0.5090806660210206  0.9876294463602878  1.0000
  N   N11       1.0  0.7200572142724088  0.0090821967829271  0.9876296454171014  1.0000
  N   N12       1.0  0.2200526294668849  0.4909174014782848  0.01236973825834297  1.0000
  N   N13       1.0  0.5383287585546412  0.752190272491255  0.30077748965329937  1.0000
  N   N14       1.0  0.038329033865963404  0.7478093973962886  0.6992215779737381  1.0000
  N   N15       1.0  0.46166920831998953  0.24780924496928952  0.6992220539672263  1.0000
  N   N16       1.0  0.9616702657679996  0.25219084504423256  0.30077814514758944  1.0000
  N   N17       1.0  0.7175930130957654  0.7690636767372183  0.3024139453009341  1.0000
  N   N18       1.0  0.21759200957597366  0.7309358278924307  0.6975837015475151  1.0000
  N   N19       1.0  0.2824062865392565  0.23093584640001555  0.6975842178320806  1.0000
  N   N20       1.0  0.7824072900579824  0.2690644145480904  0.30241602157381214  1.0000
  N   N21       1.0  0.6533222047718115  0.6202378630128749  0.21042317735028607  1.0000
  N   N22       1.0  0.15332340037358705  0.8797602501006807  0.7895748151851835  1.0000
  N   N23       1.0  0.34667442934343756  0.37976093230634694  0.7895754965257568  1.0000
  N   N24       1.0  0.8466745664998927  0.1202399923404727  0.21042490793629307  1.0000
  Cl  Cl1       1.0  0.09006243086089681  0.15333042415230116  0.9109407861202431  1.0000
  Cl  Cl2       1.0  0.5900631599685513  0.34666928954575127  0.0890606975032355  1.0000
  Cl  Cl3       1.0  0.9099408670544665  0.8466698211249767  0.08905824675694879  1.0000
  Cl  Cl4       1.0  0.40993613966784903  0.6533294944175481  0.9109407373472468  1.0000
  O   O1        1.0  0.20615811501338757  0.8018761026041191  0.21853097704130425  1.0000
  O   O2        1.0  0.7061567377728369  0.6981234044133657  0.7814687431083416  1.0000
  O   O3        1.0  0.7938411846217762  0.1981234120171251  0.7814692568227601  1.0000
  O   O4        1.0  0.29384389462396154  0.30187538522663  0.2185313112546227  1.0000
  F   F1        1.0  0.4810305215521354  0.04829797902960561  0.39294482839707723  1.0000
  F   F2        1.0  0.9810296428452149  0.4517013647037589  0.6070558771090477  1.0000
  F   F3        1.0  0.5189714436063826  0.9517000799518129  0.6070564269521556  1.0000
  F   F4        1.0  0.018972322309714712  0.5482988777354905  0.39294384601198123  1.0000
  F   F5        1.0  0.9296094985874748  0.18575240054443043  0.5090918968650515  1.0000
  F   F6        1.0  0.4296095359090943  0.31424844502044647  0.4909084889565492  1.0000
  F   F7        1.0  0.07039379932576402  0.8142492833394285  0.49091025598877286  1.0000
  F   F8        1.0  0.5703910964841512  0.685752525238719  0.5090907234218848  1.0000
