data_image0
_chemical_formula_structural       Zn8H72C48O26
_chemical_formula_sum              "Zn8 H72 C48 O26"
_cell_length_a       16.186509249092808
_cell_length_b       16.352915629085143
_cell_length_c       16.723879402384387
_cell_angle_alpha    62.08523365661743
_cell_angle_beta     88.78201893015515
_cell_angle_gamma    61.04838933673012

_space_group_name_H-M_alt    "P 1"
_space_group_IT_number       1

loop_
  _space_group_symop_operation_xyz
  'x, y, z'

loop_
  _atom_site_type_symbol
  _atom_site_label
  _atom_site_symmetry_multiplicity
  _atom_site_fract_x
  _atom_site_fract_y
  _atom_site_fract_z
  _atom_site_occupancy
  Zn  Zn1       1.0  0.054535189667930854  0.9547308094952526  0.9560045490387171  1.0000
  Zn  Zn2       1.0  0.020551149972988007  0.9256765308039689  0.14607145168660912  1.0000
  Zn  Zn3       1.0  0.8383449904006214  0.096552897629678  0.962985707816536  1.0000
  Zn  Zn4       1.0  0.0022066912151715965  0.15198327514006138  0.9860518021874969  1.0000
  Zn  Zn5       1.0  0.44806145956816573  0.15283480271011735  0.5380347160433844  1.0000
  Zn  Zn6       1.0  0.4243003422693618  0.09842590984916204  0.3788608062473387  1.0000
  Zn  Zn7       1.0  0.4116368679036028  0.9622216455592181  0.583642723380926  1.0000
  Zn  Zn8       1.0  0.6139247042902483  0.9238623514710866  0.5540043084325462  1.0000
  H   H1        1.0  0.5043046381941636  0.4678307508305437  0.11946605464468264  1.0000
  H   H2        1.0  0.5256169104517525  0.4123163486767111  0.24253946531460716  1.0000
  H   H3        1.0  0.4742698654344863  0.5549610789051657  0.16472220022370013  1.0000
  H   H4        1.0  0.37523968805614766  0.43058307010491603  0.17668706774107085  1.0000
  H   H5        1.0  0.3230841668438202  0.5726108011800694  0.09892542718704081  1.0000
  H   H6        1.0  0.3844998868442957  0.4586307516506666  0.31387585099522414  1.0000
  H   H7        1.0  0.3220405251643754  0.6006223482189695  0.23335143140880638  1.0000
  H   H8        1.0  0.21257449185647204  0.5488092740851442  0.3103971499283773  1.0000
  H   H9        1.0  0.1637212046185468  0.6066440227602002  0.10710274664251072  1.0000
  H   H10       1.0  0.0811253047962737  0.6260092872498292  0.17662471440555552  1.0000
  H   H11       1.0  0.17262940618550005  0.4298363395051439  0.30344932798451657  1.0000
  H   H12       1.0  0.22978932118598291  0.42544748542961497  0.21272025777323486  1.0000
  H   H13       1.0  0.8758693111101367  0.6837677608968704  0.9059215945257721  1.0000
  H   H14       1.0  0.7475574987547942  0.7785764705230563  0.857158847282456  1.0000
  H   H15       1.0  0.8096668817339037  0.7720034967226612  0.9483473332478314  1.0000
  H   H16       1.0  0.8389096129081395  0.8465681680826123  0.7490791285369484  1.0000
  H   H17       1.0  0.9039072292136582  0.8377513128946744  0.8394659219112983  1.0000
  H   H18       1.0  0.6797706517082674  0.9810893922358656  0.763954713646527  1.0000
  H   H19       1.0  0.7492455746928073  0.9778548396932794  0.8457301303442579  1.0000
  H   H20       1.0  0.6926022311502892  0.14127285910563347  0.6961079821964162  1.0000
  H   H21       1.0  0.911136974342149  0.9942881050577699  0.716675900846056  1.0000
  H   H22       1.0  0.8421509446273135  0.1371691907838154  0.6634037192980885  1.0000
  H   H23       1.0  0.7274517634524217  0.15403603045214698  0.5521675573681578  1.0000
  H   H24       1.0  0.8108198253025732  0.009674237435135305  0.6071777617341567  1.0000
  H   H25       1.0  0.10759904552610793  0.9961467742450407  0.6657806829388664  1.0000
  H   H26       1.0  0.11346364337018154  0.11380762126707092  0.5946024331197467  1.0000
  H   H27       1.0  0.03947898700798908  0.11361596278432262  0.6749699593873972  1.0000
  H   H28       1.0  0.2648431429816683  0.9671286605476227  0.7302311054741468  1.0000
  H   H29       1.0  0.1920135557866162  0.9651857279143882  0.8100741593750131  1.0000
  H   H30       1.0  0.1985802526262291  0.16596444219306503  0.6687075730048948  1.0000
  H   H31       1.0  0.1245315223283329  0.16568434228175713  0.7464409817700287  1.0000
  H   H32       1.0  0.2568848075485592  0.17148504095013795  0.7930680264058981  1.0000
  H   H33       1.0  0.3270851952528773  0.9380243060774734  0.9447337692612552  1.0000
  H   H34       1.0  0.3079221721690006  0.049524662060477335  0.9543609960119996  1.0000
  H   H35       1.0  0.42535011766006653  0.04964038930710038  0.832127308291021  1.0000
  H   H36       1.0  0.4145224030014846  0.9392783356950074  0.8502595078366756  1.0000
  H   H37       1.0  0.9268993839615759  0.9467414566174456  0.432565671145639  1.0000
  H   H38       1.0  0.804624350128833  0.06211919807460462  0.38812815575116844  1.0000
  H   H39       1.0  0.8815607766460972  0.05071825545823559  0.31155521970136857  1.0000
  H   H40       1.0  0.809618041785285  0.894562729577686  0.41334458703772736  1.0000
  H   H41       1.0  0.8858035336540481  0.884643648958196  0.33645371190581846  1.0000
  H   H42       1.0  0.6761059639477055  0.07847855354302165  0.2842582425750636  1.0000
  H   H43       1.0  0.7511663431563846  0.07675227985247078  0.20733095185959638  1.0000
  H   H44       1.0  0.6295456507944975  0.04316081879228751  0.17473072453919516  1.0000
  H   H45       1.0  0.8213535052388039  0.8212409064520401  0.2551867606957146  1.0000
  H   H46       1.0  0.725102805010934  0.8942902214731276  0.15277325814795262  1.0000
  H   H47       1.0  0.6218751391766375  0.8848727026009159  0.2744839887034587  1.0000
  H   H48       1.0  0.7312713753833934  0.821242641292436  0.3596082890808249  1.0000
  H   H49       1.0  0.37873057747863476  0.6958541143789743  0.39384087468577184  1.0000
  H   H50       1.0  0.417918024077359  0.7869511632689096  0.329513135778754  1.0000
  H   H51       1.0  0.32317672396970915  0.7920985953617858  0.2717330565594409  1.0000
  H   H52       1.0  0.30704954501372583  0.8468622524253536  0.42660615347183045  1.0000
  H   H53       1.0  0.21289594640548867  0.8567831368113873  0.36361869510427175  1.0000
  H   H54       1.0  0.3087069092770491  0.990536821320724  0.282056757126128  1.0000
  H   H55       1.0  0.22699896852450507  0.9933627255738745  0.21215046172059007  1.0000
  H   H56       1.0  0.1522571684411673  0.15193028241598228  0.23131020138418285  1.0000
  H   H57       1.0  0.05543444846874486  0.02512242200633342  0.3317071778897828  1.0000
  H   H58       1.0  0.00036222603671383065  0.16811765867393547  0.2502631060753445  1.0000
  H   H59       1.0  0.11021693133485405  0.14027987827523694  0.3773414960212308  1.0000
  H   H60       1.0  0.17084551530603426  0.9972106419915718  0.43668714529544433  1.0000
  H   H61       1.0  0.5904286249384753  0.5528946110925335  0.016860060571360705  1.0000
  H   H62       1.0  0.6531455396225425  0.6213421672333013  0.9676886546808845  1.0000
  H   H63       1.0  0.7197417745234774  0.47596866008541383  0.03712296460530951  1.0000
  H   H64       1.0  0.567700665179359  0.6158507488031758  0.8465761587033642  1.0000
  H   H65       1.0  0.6369024501534071  0.47128527411566506  0.9152498910325806  1.0000
  H   H66       1.0  0.7217339587484021  0.6167992944629858  0.8294780111011735  1.0000
  H   H67       1.0  0.7929732939262522  0.47309204948415823  0.9015157055033642  1.0000
  H   H68       1.0  0.7825477112552762  0.5344593753265343  0.7368231688140983  1.0000
  H   H69       1.0  0.6577020680655395  0.43326362086669673  0.7881322467217944  1.0000
  H   H70       1.0  0.7443676600761292  0.4163749787674434  0.7223528471339123  1.0000
  H   H71       1.0  0.6351953728387941  0.6191936413012797  0.6201160606534658  1.0000
  H   H72       1.0  0.5646929240924621  0.6130793028126859  0.7018343190141325  1.0000
  C   C1        1.0  0.47463094010475976  0.48355124618586837  0.17393845521718995  1.0000
  C   C2        1.0  0.37205316895371243  0.5028295992538503  0.16898812604084415  1.0000
  C   C3        1.0  0.33055509098151253  0.524392366084072  0.24507459512437899  1.0000
  C   C4        1.0  0.23240471648561115  0.5325571624989253  0.2537703773153909  1.0000
  C   C5        1.0  0.14902418265153022  0.6241758749502611  0.16347684994006073  1.0000
  C   C6        1.0  0.12204799284634053  0.7405431807860767  0.12396726989885565  1.0000
  C   C7        1.0  0.23618432306982842  0.4273706181281939  0.2769081467786593  1.0000
  C   C8        1.0  0.3258790322073111  0.31867407141179177  0.34834117380270163  1.0000
  C   C9        1.0  0.8158930750834515  0.7670578674316887  0.8848571481359289  1.0000
  C   C10       1.0  0.8331294040315244  0.8539166877196182  0.811421070282947  1.0000
  C   C11       1.0  0.7507701640165152  0.9698404511998929  0.7838210696892889  1.0000
  C   C12       1.0  0.754366454229597  0.06550000692251262  0.7035894285988747  1.0000
  C   C13       1.0  0.8494518891080391  0.061301924186089575  0.7206018875194362  1.0000
  C   C14       1.0  0.8831468472808695  0.050306256536643425  0.8107560435787492  1.0000
  C   C15       1.0  0.7426743658363223  0.07356550861820227  0.6079868369344084  1.0000
  C   C16       1.0  0.6611240897624882  0.06102078383870681  0.585684877256192  1.0000
  C   C17       1.0  0.10938477970015019  0.06288208629384669  0.6648604313999515  1.0000
  C   C18       1.0  0.1960849186776842  0.018395939361482615  0.7410895528291805  1.0000
  C   C19       1.0  0.1960772270600587  0.11300554805646351  0.7393405813391002  1.0000
  C   C20       1.0  0.2754384463572493  0.08972810567014713  0.8105844076685218  1.0000
  C   C21       1.0  0.2781363899223025  0.026416543816977927  0.9158609899213633  1.0000
  C   C22       1.0  0.18135058026853565  0.04278538027816823  0.9356707256391135  1.0000
  C   C23       1.0  0.3826675116350631  0.02789390634297449  0.8052474393420825  1.0000
  C   C24       1.0  0.39567768016269883  0.04744388480094827  0.7093480011375564  1.0000
  C   C25       1.0  0.8619791516507219  0.003768001050339385  0.3722137088796701  1.0000
  C   C26       1.0  0.8265506776297047  0.9428372580208304  0.3510952927787302  1.0000
  C   C27       1.0  0.7357519416361954  0.0228732760701788  0.26729464521877594  1.0000
  C   C28       1.0  0.6953974908916791  0.9735049056266974  0.23298283837122827  1.0000
  C   C29       1.0  0.7669012913084359  0.9030843705762311  0.19580703785052836  1.0000
  C   C30       1.0  0.8230697033183532  0.9498736345213175  0.13819423778459597  1.0000
  C   C31       1.0  0.6654614093827006  0.9001449064087981  0.3086808976838427  1.0000
  C   C32       1.0  0.6065416856509954  0.9487826136774659  0.3632459857597753  1.0000
  C   C33       1.0  0.35349808319175224  0.7799831672568941  0.3374025942947015  1.0000
  C   C34       1.0  0.2768760002225862  0.8647213932237036  0.35790080880287434  1.0000
  C   C35       1.0  0.24567106490226112  0.9814483035407093  0.28141898876183563  1.0000
  C   C36       1.0  0.15913788146706764  0.07568093780605523  0.286423368427009  1.0000
  C   C37       1.0  0.06014638098127282  0.08590814320695732  0.26814021124376813  1.0000
  C   C38       1.0  0.04450828835227584  0.06855825277423823  0.19006569341198096  1.0000
  C   C39       1.0  0.17265466577079994  0.06711103859285568  0.3810991617406715  1.0000
  C   C40       1.0  0.26383130962898355  0.057269035905669244  0.41732274756078175  1.0000
  C   C41       1.0  0.6509379608735627  0.5489377736406882  0.9843914046881752  1.0000
  C   C42       1.0  0.639033203374524  0.5443886653258899  0.8963628289351109  1.0000
  C   C43       1.0  0.7219593746869108  0.5420827381744077  0.8497337776168907  1.0000
  C   C44       1.0  0.7201472589595709  0.5323443361770404  0.7627847351217912  1.0000
  C   C45       1.0  0.7282877233185376  0.4262559546715606  0.7828631899093141  1.0000
  C   C46       1.0  0.8042328646806568  0.3178194728540332  0.8681040144107545  1.0000
  C   C47       1.0  0.6252602799017666  0.6247133458538912  0.6833469919973469  1.0000
  C   C48       1.0  0.5878627272705187  0.7426480195314086  0.6508344894693039  1.0000
  O   O1        1.0  0.9760112223725486  0.03726546920484717  0.012610845626746003  1.0000
  O   O2        1.0  0.11885281050304293  0.77371003980263  0.18026564680537402  1.0000
  O   O3        1.0  0.09963574027536738  0.7989483924120508  0.034542359542847116  1.0000
  O   O4        1.0  0.376150593211193  0.2547542731284833  0.3190506883938299  1.0000
  O   O5        1.0  0.34423051484998984  0.2973445847388587  0.43212082955101766  1.0000
  O   O6        1.0  0.8196764728654315  0.08621312410371462  0.8515042059528073  1.0000
  O   O7        1.0  0.9752911085764923  0.006768208462311288  0.8369964297329278  1.0000
  O   O8        1.0  0.6880450677967505  0.9699434036924616  0.5925158670727769  1.0000
  O   O9        1.0  0.5734827523389967  0.14052693076009595  0.5634779948555109  1.0000
  O   O10       1.0  0.1221093760718902  0.1262174842334857  0.9407570019259381  1.0000
  O   O11       1.0  0.1680613829840213  0.9675789711671287  0.9468632710252083  1.0000
  O   O12       1.0  0.40054410861847606  0.9765451533523194  0.6930056970891982  1.0000
  O   O13       1.0  0.402260051421763  0.1289657889429916  0.6537491215629319  1.0000
  O   O14       1.0  0.7785488024911942  0.028996049349039755  0.05307793379190432  1.0000
  O   O15       1.0  0.9110611747121525  0.9059891309396731  0.18038462493536406  1.0000
  O   O16       1.0  0.6516557607009191  0.907478293027971  0.4466592403638573  1.0000
  O   O17       1.0  0.5169819325930619  0.02708103968594582  0.321572036535173  1.0000
  O   O18       1.0  0.02480645056660082  0.1446362359412348  0.10593732343950532  1.0000
  O   O19       1.0  0.054201796083816624  0.9764784838506347  0.21661410201840436  1.0000
  O   O20       1.0  0.2886079608966199  0.014490559125221033  0.5060281080227612  1.0000
  O   O21       1.0  0.3069816711806581  0.09301838938125676  0.3585767947687942  1.0000
  O   O22       1.0  0.8912512631533575  0.2960456970893616  0.885897584057631  1.0000
  O   O23       1.0  0.7746010947498548  0.25401937872251773  0.9147011342382643  1.0000
  O   O24       1.0  0.49477132153303677  0.8052218832913027  0.628465052461685  1.0000
  O   O25       1.0  0.6488803243523478  0.7722973366549224  0.6442036040469363  1.0000
  O   O26       1.0  0.47484552457272855  0.038179772756208576  0.5116709145811315  1.0000
