data_image0
_chemical_formula_structural       Cd2H48C76N8O8
_chemical_formula_sum              "Cd2 H48 C76 N8 O8"
_cell_length_a       10.64109124007274
_cell_length_b       10.72380617917559
_cell_length_c       14.83
_cell_angle_alpha    93.26597175946534
_cell_angle_beta     93.29138654524323
_cell_angle_gamma    109.80089911072125

_space_group_name_H-M_alt    "P 1"
_space_group_IT_number       1

loop_
  _space_group_symop_operation_xyz
  'x, y, z'

loop_
  _atom_site_type_symbol
  _atom_site_label
  _atom_site_symmetry_multiplicity
  _atom_site_fract_x
  _atom_site_fract_y
  _atom_site_fract_z
  _atom_site_occupancy
  Cd  Cd1       1.0  0.2729141858329243  0.7250923560578855  0.7491691910147367  1.0000
  Cd  Cd2       1.0  0.7270854819992252  0.2749157036506773  0.2508253282784381  1.0000
  H   H1        1.0  0.3625953199446101  0.0015393306515534  0.8863342530261489  1.0000
  H   H2        1.0  0.9959820697328041  0.6362944564955626  0.6133266653317335  1.0000
  H   H3        1.0  0.6374028819953353  0.9984617682594958  0.11366598789475549  1.0000
  H   H4        1.0  0.003993179462384004  0.363694709619736  0.386672812728996  1.0000
  H   H5        1.0  0.4443185731804036  0.2504087243822397  0.884240159019825  1.0000
  H   H6        1.0  0.745065273148235  0.5551415014094374  0.6152749445917536  1.0000
  H   H7        1.0  0.5556841721047049  0.7495973465270396  0.11575238219578668  1.0000
  H   H8        1.0  0.2549131613664315  0.4448595975016119  0.3847379681532103  1.0000
  H   H9        1.0  0.46489002946191954  0.3488861100958687  0.7340501747224835  1.0000
  H   H10       1.0  0.6457533955038102  0.5339856489470236  0.7654658145644007  1.0000
  H   H11       1.0  0.5350931844168443  0.6511070336180111  0.2659403549971486  1.0000
  H   H12       1.0  0.3542420553525076  0.4660074947668633  0.23455421455810918  1.0000
  H   H13       1.0  0.4535540825558043  0.3143834255887796  0.5661253618872805  1.0000
  H   H14       1.0  0.6805612713395988  0.5439296454040914  0.9334982503109758  1.0000
  H   H15       1.0  0.5464283707177842  0.685615684522972  0.43386942814680646  1.0000
  H   H16       1.0  0.3194505256035782  0.4560644927094372  0.06651642440278488  1.0000
  H   H17       1.0  0.39445064793658696  0.1594460167912075  0.42578904286078506  1.0000
  H   H18       1.0  0.8369952328585555  0.6029472643767875  0.07389673289672768  1.0000
  H   H19       1.0  0.6055447300854552  0.8405550821198418  0.574205687253361  1.0000
  H   H20       1.0  0.16302856504324129  0.3970598009321336  0.9261155972304492  1.0000
  H   H21       1.0  0.2994643022936359  0.9322088974646334  0.35387168215594755  1.0000
  H   H22       1.0  0.0656540318888403  0.6991315645074252  0.145786477799156  1.0000
  H   H23       1.0  0.7005272929884255  0.0677812630503141  0.6461210928783672  1.0000
  H   H24       1.0  0.9343719925103429  0.3008764952011447  0.854213847459327  1.0000
  H   H25       1.0  0.2030150353118216  0.6848032600124299  0.3709952747183748  1.0000
  H   H26       1.0  0.31494613493943296  0.7971714143769475  0.1285559595685868  1.0000
  H   H27       1.0  0.7969787136333508  0.3151958500993217  0.6290060494395675  1.0000
  H   H28       1.0  0.6850814106701009  0.2028247125358718  0.8714317992079755  1.0000
  H   H29       1.0  0.1901693143490419  0.6072261660522642  0.5286423719868338  1.0000
  H   H30       1.0  0.39289860718552205  0.8104874200326009  0.9709632557768586  1.0000
  H   H31       1.0  0.8098241810610743  0.3927749328587851  0.4713556521140916  1.0000
  H   H32       1.0  0.6071151627199782  0.1895097012798601  0.029021953525699494  1.0000
  H   H33       1.0  0.6000559022972922  0.8145386041892166  0.9737742596058254  1.0000
  H   H34       1.0  0.18120954490673571  0.3977528974851907  0.52462949206285  1.0000
  H   H35       1.0  0.3999540120339589  0.185455533924312  0.026220782594371897  1.0000
  H   H36       1.0  0.8187740128574815  0.602241240628338  0.4753732303487084  1.0000
  H   H37       1.0  0.8074000259125995  0.9034637869061869  0.07626683168241748  1.0000
  H   H38       1.0  0.0935841940371702  0.1911385278995326  0.42292990511119644  1.0000
  H   H39       1.0  0.1926045669521841  0.0965204072108818  0.92372960455765  1.0000
  H   H40       1.0  0.9064123788258982  0.8088605822122261  0.5770668152209949  1.0000
  H   H41       1.0  0.8237742159553676  0.9350469140534798  0.7448972685715133  1.0000
  H   H42       1.0  0.0649523735923196  0.1764234019423583  0.7545615513105589  1.0000
  H   H43       1.0  0.1762313707637588  0.0649700952519012  0.2551032577247412  1.0000
  H   H44       1.0  0.9350319622932018  0.8235757081694004  0.24543938506042912  1.0000
  H   H45       1.0  0.0346762352830581  0.0181020511504428  0.8445053766528474  1.0000
  H   H46       1.0  0.9833769473431743  0.9665385564333703  0.6556942027839341  1.0000
  H   H47       1.0  0.965327632008801  0.9819099861567081  0.1554941996699526  1.0000
  H   H48       1.0  0.0166109002311501  0.0334625424776789  0.34430358864481997  1.0000
  C   C1        1.0  0.3730499758328563  0.0480832004685041  0.8223472724653931  1.0000
  C   C2        1.0  0.9488889608482082  0.6259278401890711  0.6772346325113503  1.0000
  C   C3        1.0  0.6269454925395833  0.9519208816414774  0.17764286410699978  1.0000
  C   C4        1.0  0.051092116883559406  0.3740672923241064  0.3227693773147138  1.0000
  C   C5        1.0  0.4198906242335383  0.1873846692369838  0.8209105204801047  1.0000
  C   C6        1.0  0.8085436257033081  0.5793054128001103  0.6786205129148044  1.0000
  C   C7        1.0  0.5801082829934358  0.8126293568694577  0.1790828646568627  1.0000
  C   C8        1.0  0.19143462811056366  0.4206897197130672  0.32139012366350533  1.0000
  C   C9        1.0  0.43222006231698623  0.2415436515407592  0.7381924423257046  1.0000
  C   C10       1.0  0.7539570097633259  0.5666775316992769  0.7613370000811129  1.0000
  C   C11       1.0  0.567770355640171  0.7584594361695807  0.26179946814678345  1.0000
  C   C12       1.0  0.24603570752548617  0.4333185952135423  0.2386762962370526  1.0000
  C   C13       1.0  0.40001259089404323  0.1570554800429278  0.6574881366645116  1.0000
  C   C14       1.0  0.839066921316558  0.5985400851470146  0.8420951913538701  1.0000
  C   C15       1.0  0.5999862988168019  0.8429476076674121  0.3425047971250734  1.0000
  C   C16       1.0  0.1609304121516857  0.4014530585668652  0.1579161493111982  1.0000
  C   C17       1.0  0.4150065189211957  0.20688285749000807  0.5699144604754096  1.0000
  C   C18       1.0  0.7889219642875388  0.5829061339172128  0.9297029171351241  1.0000
  C   C19       1.0  0.5849914294836864  0.7931202302203388  0.43008450331497977  1.0000
  C   C20       1.0  0.2110870087377421  0.41708800419631586  0.07030557246304879  1.0000
  C   C21       1.0  0.3815442672579294  0.1227566474632127  0.49302637430520235  1.0000
  C   C22       1.0  0.873739358215694  0.6162473596381162  0.006625280870707684  1.0000
  C   C23       1.0  0.6184558172939418  0.8772444514478366  0.5069624809229225  1.0000
  C   C24       1.0  0.1262788646845863  0.3837517504736425  0.9933797487686462  1.0000
  C   C25       1.0  0.3281269831268006  0.9817996077960345  0.49850207154042886  1.0000
  C   C26       1.0  0.015696664029931584  0.670359605158545  0.0011715454815827905  1.0000
  C   C27       1.0  0.6718737891959776  0.0182034799143054  0.5014963342772134  1.0000
  C   C28       1.0  0.9843165084550662  0.329638510553572  0.9988285149695385  1.0000
  C   C29       1.0  0.2878599361088803  0.892003330989418  0.42013040616614467  1.0000
  C   C30       1.0  0.10617183729475241  0.7110325394672401  0.07952518964057019  1.0000
  C   C31       1.0  0.7121247261459657  0.10798583512588068  0.5798620422843824  1.0000
  C   C32       1.0  0.8938577716275019  0.2889695538434509  0.9204709916395473  1.0000
  C   C33       1.0  0.23625092084370897  0.7571040694524811  0.4297590863962596  1.0000
  C   C34       1.0  0.24204576675704456  0.7634602719878387  0.06983215764349639  1.0000
  C   C35       1.0  0.7637328904555645  0.242888079861757  0.5702388443663153  1.0000
  C   C36       1.0  0.7579761310166973  0.23653585492498047  0.9301614372404003  1.0000
  C   C37       1.0  0.2268978702692834  0.712817486831284  0.5174407470178365  1.0000
  C   C38       1.0  0.2865322574990188  0.7730969989543865  0.9821218688700242  1.0000
  C   C39       1.0  0.7730895430691902  0.2871796344811841  0.4825528168049118  1.0000
  C   C40       1.0  0.7134829607825707  0.2268961447595004  0.017869305016425602  1.0000
  C   C41       1.0  0.3125772792474919  0.9277112278670998  0.5842798747509192  1.0000
  C   C42       1.0  0.07010573521046132  0.6863664562554845  0.9153536356007805  1.0000
  C   C43       1.0  0.6874251221521561  0.0722938486425306  0.4157193544200979  1.0000
  C   C44       1.0  0.9299012648524965  0.3136246986591047  0.0846431865697568  1.0000
  C   C45       1.0  0.3506339502334015  0.0173423298211262  0.665689413646021  1.0000
  C   C46       1.0  0.9798078232386516  0.6481844930592828  0.8339350655202509  1.0000
  C   C47       1.0  0.6493687950517071  0.9826637410881531  0.3343051504960925  1.0000
  C   C48       1.0  0.020193709689301915  0.3518126282531853  0.1660712175419405  1.0000
  C   C49       1.0  0.5708878326337724  0.8220244447220963  0.7925836532106343  1.0000
  C   C50       1.0  0.174957838329469  0.42758389245675227  0.7061099840053018  1.0000
  C   C51       1.0  0.429117736569232  0.1779816261871829  0.20741574742939406  1.0000
  C   C52       1.0  0.82504454555405  0.5724102456567763  0.2938935139801657  1.0000
  C   C53       1.0  0.698735967290375  0.8718030965865324  0.8533996041441939  1.0000
  C   C54       1.0  0.1261744349209266  0.3002619562200977  0.645602834380206  1.0000
  C   C55       1.0  0.30127354783727606  0.1282089407206186  0.14659750761543927  1.0000
  C   C56       1.0  0.8738219747574759  0.6997421258898839  0.354402175765216  1.0000
  C   C57       1.0  0.6962900042309954  0.862971833333006  0.947024702756181  1.0000
  C   C58       1.0  0.13414777387198026  0.3021632483426941  0.5518498253600158  1.0000
  C   C59       1.0  0.30371187258241156  0.1370262823791037  0.052970846497594  1.0000
  C   C60       1.0  0.865849504278124  0.6978487889644569  0.44815487398258097  1.0000
  C   C61       1.0  0.8132375336769398  0.9129483707269374  0.0038663587146245864  1.0000
  C   C62       1.0  0.08491793892545732  0.1856385034591241  0.4953948514366502  1.0000
  C   C63       1.0  0.18676818119460137  0.0870417897880031  0.9961296952354601  1.0000
  C   C64       1.0  0.9150757371854468  0.8143685618497968  0.5046088203750969  1.0000
  C   C65       1.0  0.8224128289169386  0.9290606281863276  0.8179573468777404  1.0000
  C   C66       1.0  0.07048100179657268  0.1775430959434274  0.6814908684047152  1.0000
  C   C67       1.0  0.1775955817200909  0.0709563811190534  0.18204059851926496  1.0000
  C   C68       1.0  0.9295077870837147  0.8224580029676218  0.3185110076557294  1.0000
  C   C69       1.0  0.9399368305343498  0.976770928787694  0.8746585876894457  1.0000
  C   C70       1.0  0.0235590757883557  0.060536067231694794  0.6251731406164964  1.0000
  C   C71       1.0  0.0600707116309778  0.0232381253205247  0.1253383198927196  1.0000
  C   C72       1.0  0.9764254232818246  0.9394580708818338  0.3748282719560905  1.0000
  C   C73       1.0  0.9381212784471554  0.9725308086984015  0.9694172057104067  1.0000
  C   C74       1.0  0.02701469195177  0.061709458813624  0.5303125929695014  1.0000
  C   C75       1.0  0.0618885630498198  0.027471284612296604  0.0305801841436022  1.0000
  C   C76       1.0  0.9729686851116525  0.9382787129020258  0.4696885275842391  1.0000
  N   N1        1.0  0.33768896393196  0.9659966086264618  0.747478273061219  1.0000
  N   N2        1.0  0.03149605388807695  0.6611663804339827  0.7521706025800229  1.0000
  N   N3        1.0  0.6623065772747481  0.0339995182863575  0.2525169332545332  1.0000
  N   N4        1.0  0.9684998312040846  0.3388307408784854  0.24782735610398987  1.0000
  N   N5        1.0  0.2633918593055355  0.7951030631138778  0.5924210584873464  1.0000
  N   N6        1.0  0.20364226939720004  0.7361998001004366  0.9071310649247053  1.0000
  N   N7        1.0  0.7366061619336151  0.2048920693992997  0.40757555764923126  1.0000
  N   N8        1.0  0.7963637893597877  0.2637913548141597  0.0928603239964687  1.0000
  O   O1        1.0  0.4669282305026883  0.7523568055438759  0.8307382693808163  1.0000
  O   O2        1.0  0.24304127305882867  0.5312371283262891  0.6675686491227919  1.0000
  O   O3        1.0  0.5330783703566695  0.24765224856433576  0.16925185633431988  1.0000
  O   O4        1.0  0.7569549559187863  0.4687609873858207  0.3324367820913068  1.0000
  O   O5        1.0  0.5721691865302319  0.8524182698931213  0.7119937581078518  1.0000
  O   O6        1.0  0.1452719109492904  0.4258446874764061  0.7869367479742664  1.0000
  O   O7        1.0  0.42784393063661946  0.1475987394122598  0.2879956151677945  1.0000
  O   O8        1.0  0.854749389403942  0.5741524338360549  0.21306697789636078  1.0000
