data_image0
_chemical_formula_structural       CdH12C18N14
_chemical_formula_sum              "Cd1 H12 C18 N14"
_cell_length_a       6.927232117550999
_cell_length_b       6.927248542889703
_cell_length_c       11.096238129431036
_cell_angle_alpha    96.70526933981188
_cell_angle_beta     96.70617333108686
_cell_angle_gamma    109.23216016021782

_space_group_name_H-M_alt    "P 1"
_space_group_IT_number       1

loop_
  _space_group_symop_operation_xyz
  'x, y, z'

loop_
  _atom_site_type_symbol
  _atom_site_label
  _atom_site_symmetry_multiplicity
  _atom_site_fract_x
  _atom_site_fract_y
  _atom_site_fract_z
  _atom_site_occupancy
  Cd  Cd1       1.0  0.2858833736000719  0.7141218505394847  0.9999975992132232  1.0000
  H   H1        1.0  0.5849813437889535  0.9418565934584038  0.32572614435348857  1.0000
  H   H2        1.0  0.05815271295089991  0.41503952478758077  0.6742750033276363  1.0000
  H   H3        1.0  0.40148638428875927  0.10366466280271423  0.4847699695726674  1.0000
  H   H4        1.0  0.8963305131281416  0.5985270118356995  0.5152271110545854  1.0000
  H   H5        1.0  0.8026331373195533  0.2935819527847769  0.89773657271769  1.0000
  H   H6        1.0  0.7063988336977045  0.19737000308560937  0.10227031082373367  1.0000
  H   H7        1.0  0.5028745358111025  0.7012044555597826  0.7630519854668589  1.0000
  H   H8        1.0  0.2987742345674107  0.497124560721126  0.23694922988437375  1.0000
  H   H9        1.0  0.6606476853876516  0.059280798545479726  0.6968267126645171  1.0000
  H   H10       1.0  0.9407045209707191  0.3393663842010639  0.3031773688686599  1.0000
  H   H11       1.0  0.36403178022072774  0.443967944953677  0.56870269725335  1.0000
  H   H12       1.0  0.5560148502479478  0.6359757268703491  0.43129830314397566  1.0000
  C   C1        1.0  0.4258889901515417  0.937716488243133  0.31132990038448577  1.0000
  C   C2        1.0  0.062290506443950656  0.5741316683889294  0.688666698218398  1.0000
  C   C3        1.0  0.11579749678325155  0.8916350169148899  0.23069435269167113  1.0000
  C   C4        1.0  0.10836557740883992  0.8842194172979918  0.7693019629648388  1.0000
  C   C5        1.0  0.9339129303926654  0.8184172500487749  0.13538177137684929  1.0000
  C   C6        1.0  0.18157815764318738  0.06609763221029402  0.8646151310190004  1.0000
  C   C7        1.0  0.7447357343380216  0.6578173784398729  0.9653251022377911  1.0000
  C   C8        1.0  0.34216465952860625  0.2552644934338133  0.034676934341895595  1.0000
  C   C9        1.0  0.7045759454790854  0.3323917086837511  0.8278203613044466  1.0000
  C   C10       1.0  0.6675882422844097  0.2954276121810864  0.17218493594434384  1.0000
  C   C11       1.0  0.662231904047587  0.5170759479915221  0.8480631876478594  1.0000
  C   C12       1.0  0.48290268923963703  0.33776935606044134  0.15194163619126747  1.0000
  C   C13       1.0  0.5388072745804776  0.5593464656883642  0.7526689395307711  1.0000
  C   C14       1.0  0.44062799789131185  0.46119187821050645  0.24733187769864165  1.0000
  C   C15       1.0  0.6244454566996394  0.20084036268981012  0.7154660395268875  1.0000
  C   C16       1.0  0.7991451942029002  0.3755637899011077  0.2845377229481513  1.0000
  C   C17       1.0  0.46271792610266954  0.41699903798821225  0.6443030129755554  1.0000
  C   C18       1.0  0.5829809689731034  0.5372873433052733  0.3556972714122109  1.0000
  N   N1        1.0  0.2901336228486143  0.8502898380995491  0.20783159317367247  1.0000
  N   N2        1.0  0.14971610392784385  0.7098877990550393  0.7921647520194167  1.0000
  N   N3        1.0  0.13798853273620193  0.9978634697882928  0.3429850405667239  1.0000
  N   N4        1.0  0.0021332383927658307  0.8620251605437023  0.6570102934304953  1.0000
  N   N5        1.0  0.33625959180385917  0.024213988935130697  0.39230357662953  1.0000
  N   N6        1.0  0.9757867411184333  0.663755181688458  0.6076923364713663  1.0000
  N   N7        1.0  0.7613636130388457  0.8666012300787005  0.13390932192579894  1.0000
  N   N8        1.0  0.13339712908100407  0.23864731700284386  0.8660850002368574  1.0000
  N   N9        1.0  0.9307993232596131  0.6884198625453023  0.03264406261504856  1.0000
  N   N10       1.0  0.31156367626499554  0.06920449720222172  0.9673582286461835  1.0000
  N   N11       1.0  0.6405815942242512  0.7644698032467477  0.023902628167078898  1.0000
  N   N12       1.0  0.2355204571361611  0.35942523917385943  0.9760951137368746  1.0000
  N   N13       1.0  0.5044642441728866  0.2409399179591887  0.624514964695251  1.0000
  N   N14       1.0  0.7590480349212143  0.4955461710548478  0.3754874274517873  1.0000
