data_image0
_chemical_formula_structural       Zn4H8C94N4O24F40
_chemical_formula_sum              "Zn4 H8 C94 N4 O24 F40"
_cell_length_a       16.70285362688223
_cell_length_b       17.898478616221862
_cell_length_c       33.064988633261265
_cell_angle_alpha    90.27143014421706
_cell_angle_beta     89.92923813303733
_cell_angle_gamma    89.94839617933809

_space_group_name_H-M_alt    "P 1"
_space_group_IT_number       1

loop_
  _space_group_symop_operation_xyz
  'x, y, z'

loop_
  _atom_site_type_symbol
  _atom_site_label
  _atom_site_symmetry_multiplicity
  _atom_site_fract_x
  _atom_site_fract_y
  _atom_site_fract_z
  _atom_site_occupancy
  Zn  Zn1       1.0  0.5821328987684996  0.5001873908685752  0.5019836886740592  1.0000
  Zn  Zn2       1.0  0.4147712978406872  0.4977891791307702  0.5016211996156557  1.0000
  Zn  Zn3       1.0  0.4179757117320123  0.5028712242056061  0.9608533246171831  1.0000
  Zn  Zn4       1.0  0.5853751999923205  0.5008706609493033  0.9611718154968402  1.0000
  H   H1        1.0  0.37322721313972823  0.5033217462917677  0.6280280105304143  1.0000
  H   H2        1.0  0.6289073528314404  0.49543754901973364  0.6284212802759158  1.0000
  H   H3        1.0  0.627002334483045  0.5044472887320738  0.8347050988724334  1.0000
  H   H4        1.0  0.3713092380399133  0.49688086420088945  0.8343182784405274  1.0000
  H   H5        1.0  0.27901330503804195  0.6035987511244373  0.7801644606070327  1.0000
  H   H6        1.0  0.27129158283631233  0.3967525643767332  0.6908037326059501  1.0000
  H   H7        1.0  0.7288303805733848  0.39677807194644293  0.7716207422274197  1.0000
  H   H8        1.0  0.7205868009957683  0.6026259192428328  0.6823969821483473  1.0000
  C   C1        1.0  0.49398698267142294  0.6424464268319243  0.5009644314943101  1.0000
  C   C2        1.0  0.501190302582998  0.4975261378365589  0.5794593533613936  1.0000
  C   C3        1.0  0.4977917936236196  0.35540318294215484  0.5009351070898376  1.0000
  C   C4        1.0  0.502390829119534  0.5019227615936972  0.4244212431173367  1.0000
  C   C5        1.0  0.5055378017000081  0.6452793033352365  0.9616357176396806  1.0000
  C   C6        1.0  0.49899462148683693  0.49955977074454716  0.8832818210068896  1.0000
  C   C7        1.0  0.5027072987990805  0.3583269193942726  0.9612091332247703  1.0000
  C   C8        1.0  0.4976910522943712  0.5052304921410098  0.03842037038836572  1.0000
  C   C9        1.0  0.2468770063432261  0.5472626496681628  0.52518730501388  1.0000
  C   C10       1.0  0.16362712223095602  0.5501330474859217  0.5264645557551617  1.0000
  C   C11       1.0  0.11887644497655711  0.5006248170874202  0.5022000335674692  1.0000
  C   C12       1.0  0.1623235403140129  0.45053484967444035  0.4775885963158545  1.0000
  C   C13       1.0  0.2456052179295938  0.4516992884099339  0.4784896105456795  1.0000
  C   C14       1.0  0.034777482168159714  0.5011128788114618  0.50256662734585  1.0000
  C   C15       1.0  0.9619789385237  0.5012034150826495  0.5029452166907973  1.0000
  C   C16       1.0  0.8778749005255835  0.5009498574669635  0.5030079303407504  1.0000
  C   C17       1.0  0.8333136388854787  0.5430841085673849  0.531224438220896  1.0000
  C   C18       1.0  0.7500946385563412  0.540879031843332  0.529872095459794  1.0000
  C   C19       1.0  0.7509328207967628  0.46000112081323163  0.47570379500511006  1.0000
  C   C20       1.0  0.8342016919126465  0.45839976516698044  0.47473014593568064  1.0000
  C   C21       1.0  0.49584189889980484  0.7263715440947396  0.4985422846351428  1.0000
  C   C22       1.0  0.5681386418284405  0.7651425154351447  0.49250227369571326  1.0000
  C   C23       1.0  0.5708188649786975  0.8427415892790294  0.4913773054732716  1.0000
  C   C24       1.0  0.5012178418468026  0.8862828728628432  0.4961268490535249  1.0000
  C   C25       1.0  0.42868089930769326  0.8475785499374668  0.501556013042098  1.0000
  C   C26       1.0  0.42616126354435135  0.7699353845192151  0.5027708580772768  1.0000
  C   C27       1.0  0.5038301224207731  0.9647508652702612  0.4959823716284433  1.0000
  C   C28       1.0  0.5050660185780841  0.03276117870282751  0.4967117818262566  1.0000
  C   C29       1.0  0.5040471611749737  0.11125038569137054  0.49767511514708934  1.0000
  C   C30       1.0  0.5739573666490544  0.15364482098742374  0.5038251650366237  1.0000
  C   C31       1.0  0.5718767419287831  0.2313330821895861  0.5050041049367451  1.0000
  C   C32       1.0  0.4999979347441937  0.27131277417400673  0.4999707770636874  1.0000
  C   C33       1.0  0.4302075059124419  0.2288149322168707  0.49377168301205643  1.0000
  C   C34       1.0  0.4321085848242562  0.1511708912934964  0.492687671313803  1.0000
  C   C35       1.0  0.42834576167222593  0.5013966228332692  0.6455949019137748  1.0000
  C   C36       1.0  0.4265771091525181  0.5012521318354716  0.6879678686395112  1.0000
  C   C37       1.0  0.352381758794607  0.5009464375258617  0.7102749917536215  1.0000
  C   C38       1.0  0.5735154098989312  0.49799571966225664  0.6458345264302068  1.0000
  C   C39       1.0  0.5745569001458508  0.5001405848463919  0.6882318457542668  1.0000
  C   C40       1.0  0.6482749628331207  0.5001582006984294  0.7109164824006697  1.0000
  C   C41       1.0  0.5718728613282736  0.5024066803988988  0.8171475976996305  1.0000
  C   C42       1.0  0.5736279018300294  0.5016711976521151  0.774769842035532  1.0000
  C   C43       1.0  0.6478044132714376  0.500908072637941  0.7524559762936676  1.0000
  C   C44       1.0  0.4266975798083906  0.4991773467655422  0.8169086432255099  1.0000
  C   C45       1.0  0.42565760185996043  0.5008144028381025  0.7745090687096339  1.0000
  C   C46       1.0  0.35196118519662895  0.5006699464742894  0.7518086886938207  1.0000
  C   C47       1.0  0.5010752783264678  0.4990200091664364  0.6248158022297263  1.0000
  C   C48       1.0  0.50033646097733  0.501028413116977  0.7098870403399504  1.0000
  C   C49       1.0  0.4991477687095129  0.500370028297354  0.8379301773480494  1.0000
  C   C50       1.0  0.4998744345183113  0.5013311803053072  0.7528581036008577  1.0000
  C   C51       1.0  0.49768451727736374  0.5060824990564045  0.0839312612788632  1.0000
  C   C52       1.0  0.4268824265050526  0.49651091802272174  0.10640487665077811  1.0000
  C   C53       1.0  0.4272890086288755  0.49579556212545833  0.14846333090802233  1.0000
  C   C54       1.0  0.4986248219475229  0.5047585276587016  0.17054430169944376  1.0000
  C   C55       1.0  0.5694391658570979  0.5147374297557195  0.14810127635828965  1.0000
  C   C56       1.0  0.5689170445783772  0.5154567160534143  0.10605533522495142  1.0000
  C   C57       1.0  0.49926777435831576  0.5040205357495823  0.21302983001184125  1.0000
  C   C58       1.0  0.500104893000426  0.5035814534948531  0.24984554034366377  1.0000
  C   C59       1.0  0.5008646654396504  0.5034541252554449  0.292334221030103  1.0000
  C   C60       1.0  0.4300536752863239  0.5126307876189102  0.3149471089285925  1.0000
  C   C61       1.0  0.4307506211672063  0.5125975830930828  0.3569923967713038  1.0000
  C   C62       1.0  0.5021571997099484  0.5032687648972641  0.37893058138444513  1.0000
  C   C63       1.0  0.5729355237000604  0.49445245957890194  0.3562952868989911  1.0000
  C   C64       1.0  0.5723840681074748  0.49446497052585425  0.31423893153392873  1.0000
  C   C65       1.0  0.7531478146740228  0.5498537098728209  0.937145280865586  1.0000
  C   C66       1.0  0.8364042057137412  0.5522333256830266  0.9355704338225055  1.0000
  C   C67       1.0  0.8812882119861598  0.5027185448194588  0.9595452077098514  1.0000
  C   C68       1.0  0.8379849946356829  0.4530359115782973  0.9841630142160512  1.0000
  C   C69       1.0  0.7547149873351486  0.4547272865042659  0.9836065570844712  1.0000
  C   C70       1.0  0.9653761282337502  0.5029672792558276  0.9589656361568759  1.0000
  C   C71       1.0  0.0381702881281782  0.503085694210057  0.9585760519654087  1.0000
  C   C72       1.0  0.12228269440382182  0.5029197989440419  0.9587182977394164  1.0000
  C   C73       1.0  0.16705696214904014  0.5449859065293623  0.93081305984974  1.0000
  C   C74       1.0  0.2502595178044232  0.5431316330809609  0.9325311471731653  1.0000
  C   C75       1.0  0.24901485997813214  0.4624940595446818  0.9864031547307945  1.0000
  C   C76       1.0  0.16574917340359016  0.4606959828605567  0.9870463729924738  1.0000
  C   C77       1.0  0.5038184177654159  0.7293029725203369  0.9631117762744952  1.0000
  C   C78       1.0  0.4315871057848568  0.7686022261708417  0.968711974140085  1.0000
  C   C79       1.0  0.42890709695544155  0.8462360642816408  0.9686637422995334  1.0000
  C   C80       1.0  0.49849398617243434  0.8892778895968335  0.963151913669421  1.0000
  C   C81       1.0  0.5709796990367977  0.8500745544685914  0.9581378320119853  1.0000
  C   C82       1.0  0.5734980252037829  0.7723892805557427  0.9581141083914276  1.0000
  C   C83       1.0  0.49600373228832956  0.9677326872015616  0.9626236722554466  1.0000
  C   C84       1.0  0.49472427952515835  0.035745699957267604  0.9620594202292098  1.0000
  C   C85       1.0  0.49603407444560343  0.1142281516291987  0.961639421687309  1.0000
  C   C86       1.0  0.4262552701457452  0.15697777097617668  0.9558347007495698  1.0000
  C   C87       1.0  0.4284579885727809  0.23466575871862017  0.9555726140080409  1.0000
  C   C88       1.0  0.5003805247881418  0.27424822173803426  0.9612218441673762  1.0000
  C   C89       1.0  0.5700743810962905  0.23141703641478273  0.9670237269332917  1.0000
  C   C90       1.0  0.5680529183721106  0.15376191817918541  0.9671729200020637  1.0000
  C   C91       1.0  0.2738498520719048  0.49661092515026456  0.7745432525385356  1.0000
  C   C92       1.0  0.2752433186940382  0.5038650686986375  0.6866226006339673  1.0000
  C   C93       1.0  0.7248791057949262  0.5039084766637245  0.77615507377228  1.0000
  C   C94       1.0  0.7263162919089653  0.4957660908173198  0.6880991060677033  1.0000
  N   N1        1.0  0.2867022985456913  0.4989946999939932  0.5017922651959168  1.0000
  N   N2        1.0  0.7100608569205563  0.5004552380943182  0.5026709121224613  1.0000
  N   N3        1.0  0.713460256773047  0.5020432955241249  0.9605917167081728  1.0000
  N   N4        1.0  0.29007393636463524  0.5029640194386573  0.9597538038621138  1.0000
  O   O1        1.0  0.5573571430774322  0.6111674280709637  0.5135935006122951  1.0000
  O   O2        1.0  0.4296407282888597  0.6101041008250975  0.4903416660523945  1.0000
  O   O3        1.0  0.4355010668464773  0.513539191322444  0.5620804348692872  1.0000
  O   O4        1.0  0.5669578870352227  0.48049423613224485  0.5622233443664018  1.0000
  O   O5        1.0  0.43249646841925227  0.3855974159889827  0.5120030890406754  1.0000
  O   O6        1.0  0.5614796042335685  0.388808802110546  0.49041080704711965  1.0000
  O   O7        1.0  0.5660533511180005  0.5235034792674044  0.441904425541111  1.0000
  O   O8        1.0  0.4388715509543104  0.47900020135568183  0.44139145674380853  1.0000
  O   O9        1.0  0.4420304217204176  0.6135917273574736  0.9494120495878278  1.0000
  O   O10       1.0  0.5699393158064155  0.6133212256040254  0.9724237527606834  1.0000
  O   O11       1.0  0.5645815735752396  0.5159872633140808  0.9007036122575302  1.0000
  O   O12       1.0  0.4332959290266984  0.48262920706005746  0.9004889323951488  1.0000
  O   O13       1.0  0.568022476508169  0.388559297569465  0.9504490440953433  1.0000
  O   O14       1.0  0.4390650337247309  0.3917027419234744  0.9720998693181997  1.0000
  O   O15       1.0  0.4339489094569303  0.5266153679130953  0.021022148610597906  1.0000
  O   O16       1.0  0.5615027599926421  0.4828011788901918  0.021364809853629704  1.0000
  O   O17       1.0  0.245107682533785  0.5624909106435043  0.7893251348862196  1.0000
  O   O18       1.0  0.23806207004849264  0.43856520827943524  0.7802559493007453  1.0000
  O   O19       1.0  0.24188439367185313  0.43667826640346163  0.6772178995183895  1.0000
  O   O20       1.0  0.24485618205503107  0.5617595244697284  0.6753586514181649  1.0000
  O   O21       1.0  0.7581913418720562  0.4367243127959243  0.7853771992930234  1.0000
  O   O22       1.0  0.7552027171282347  0.5618246029724787  0.7876382893417928  1.0000
  O   O23       1.0  0.7546558736238822  0.5614281596841054  0.6732173964200003  1.0000
  O   O24       1.0  0.7623219564115615  0.43769294412045673  0.6823740482469703  1.0000
  F   F1        1.0  0.2891728336455445  0.5938771569076168  0.5480814041615645  1.0000
  F   F2        1.0  0.2867544728101096  0.4042801338713177  0.4554371357590199  1.0000
  F   F3        1.0  0.12394192409570347  0.40193130401694793  0.4535678698460899  1.0000
  F   F4        1.0  0.12660816917365036  0.5996253096678148  0.5504956800318299  1.0000
  F   F5        1.0  0.8705024526498023  0.584951214382123  0.5590818278081997  1.0000
  F   F6        1.0  0.8723514734684272  0.41682402202019386  0.4469689378525175  1.0000
  F   F7        1.0  0.7097491028954082  0.41999121594503924  0.44898912534218033  1.0000
  F   F8        1.0  0.7078897742702212  0.5805307805733763  0.5565732812891042  1.0000
  F   F9        1.0  0.637873260116237  0.7285363786732334  0.4867422307847846  1.0000
  F   F10       1.0  0.3542086794012676  0.7381117467833462  0.5093033097274073  1.0000
  F   F11       1.0  0.3602773771079342  0.8867488561987075  0.5062188442145299  1.0000
  F   F12       1.0  0.6416821755689244  0.8771420569040772  0.4855813958371869  1.0000
  F   F13       1.0  0.6443663801276642  0.11808428123664073  0.5090910353980506  1.0000
  F   F14       1.0  0.3634942814854655  0.11321416344857482  0.48650520462729935  1.0000
  F   F15       1.0  0.35863544071202813  0.2616898368037965  0.4876712376690265  1.0000
  F   F16       1.0  0.6416994272409086  0.26676663560507313  0.5121210012633242  1.0000
  F   F17       1.0  0.35579469204594727  0.4857385867748222  0.08805296442287162  1.0000
  F   F18       1.0  0.639541676443507  0.5272657559326535  0.0873576207311473  1.0000
  F   F19       1.0  0.6392721686103755  0.5243314011775413  0.1678569481653938  1.0000
  F   F20       1.0  0.3578497420906643  0.48578305916831976  0.1685396966488213  1.0000
  F   F21       1.0  0.3600390709006405  0.5221516170214503  0.2953686282949235  1.0000
  F   F22       1.0  0.6418302839743291  0.48518223268020944  0.29399659800791517  1.0000
  F   F23       1.0  0.6441924749004573  0.48381703524064096  0.3744685327595435  1.0000
  F   F24       1.0  0.3600872724497394  0.5236075985299423  0.3758759265481971  1.0000
  F   F25       1.0  0.7107744890511541  0.5965197446280613  0.9145118867735891  1.0000
  F   F26       1.0  0.7136931920805981  0.4077557828014805  0.006716281984601802  1.0000
  F   F27       1.0  0.8764848110575159  0.4043857280667425  0.0079054874256528  1.0000
  F   F28       1.0  0.8733390102997163  0.6013308854985767  0.9115630571375918  1.0000
  F   F29       1.0  0.1300898528402925  0.5865451178224035  0.9029402885074234  1.0000
  F   F30       1.0  0.12740234459226946  0.4192847738779336  0.014574814925566702  1.0000
  F   F31       1.0  0.29000559640226  0.4227543701817639  0.013146749303047002  1.0000
  F   F32       1.0  0.2926336988240267  0.5828636119137373  0.9061743474161263  1.0000
  F   F33       1.0  0.36190715956980324  0.7325142004901295  0.9751228222464975  1.0000
  F   F34       1.0  0.6454288616273518  0.7400222323191488  0.9520424313294314  1.0000
  F   F35       1.0  0.6393839724776953  0.8887670704355274  0.9528508755832307  1.0000
  F   F36       1.0  0.35810675693447536  0.8811274092602873  0.9741270285792609  1.0000
  F   F37       1.0  0.3558172887807488  0.12172850040653327  0.950126627615937  1.0000
  F   F38       1.0  0.636492991627243  0.11538556565761843  0.9731246704153805  1.0000
  F   F39       1.0  0.641639430561078  0.26397773995064716  0.973635063757243  1.0000
  F   F40       1.0  0.3587654596876676  0.2705162386507639  0.9487317034699674  1.0000
