data_image0
_chemical_formula_structural       Ag2P4H48C52N2O6
_chemical_formula_sum              "Ag2 P4 H48 C52 N2 O6"
_cell_length_a       10.98212112486831
_cell_length_b       10.982102498330338
_cell_length_c       11.000140255799522
_cell_angle_alpha    76.61733687234637
_cell_angle_beta     76.6170350549314
_cell_angle_gamma    78.89400154282566

_space_group_name_H-M_alt    "P 1"
_space_group_IT_number       1

loop_
  _space_group_symop_operation_xyz
  'x, y, z'

loop_
  _atom_site_type_symbol
  _atom_site_label
  _atom_site_symmetry_multiplicity
  _atom_site_fract_x
  _atom_site_fract_y
  _atom_site_fract_z
  _atom_site_occupancy
  Ag  Ag1       1.0  0.3375184533311568  0.6624790523420501  0.7499998641652253  1.0000
  Ag  Ag2       1.0  0.6624775933311257  0.33751843932050474  0.2500015094101825  1.0000
  P   P1        1.0  0.4847818318680767  0.6857774148083139  0.8678389730768926  1.0000
  P   P2        1.0  0.3142244414704507  0.5152167531026349  0.6321600376707506  1.0000
  P   P3        1.0  0.5152158121323965  0.31422196626323995  0.13216157547672217  1.0000
  P   P4        1.0  0.6857770848497396  0.4847816755641077  0.3678398176097559  1.0000
  H   H1        1.0  0.7637316903988347  0.6665795423932153  0.8668096972966238  1.0000
  H   H2        1.0  0.3334225738705143  0.2362632701428496  0.6331865599635265  1.0000
  H   H3        1.0  0.23626408585921152  0.3334198464146709  0.13319220047296199  1.0000
  H   H4        1.0  0.6665800122168192  0.763734196770649  0.36681054480716563  1.0000
  H   H5        1.0  0.9323667456911124  0.76836567315695  0.7099738374732922  1.0000
  H   H6        1.0  0.2316391425569577  0.06762746164510249  0.7900208658031646  1.0000
  H   H7        1.0  0.06762996676469162  0.23163371411087746  0.2900278391394906  1.0000
  H   H8        1.0  0.7683658567343769  0.9323662078976016  0.20997474826556561  1.0000
  H   H9        1.0  0.8820380530481556  0.9166831524397666  0.5114674205501046  1.0000
  H   H10       1.0  0.08332144968302659  0.11795247320394964  0.9885287521048767  1.0000
  H   H11       1.0  0.11795770925060368  0.0833162223995032  0.48853175651237274  1.0000
  H   H12       1.0  0.9166827509392236  0.8820402516342514  0.011467274474746622  1.0000
  H   H13       1.0  0.6638990674950094  0.9644078291468786  0.474824890781285  1.0000
  H   H14       1.0  0.0355960245246862  0.3360914970862794  0.025172932491862796  1.0000
  H   H15       1.0  0.33609549285484525  0.0355934490339962  0.5251759385345451  1.0000
  H   H16       1.0  0.9644056425616085  0.6638993398829812  0.9748241402663567  1.0000
  H   H17       1.0  0.49178271120689493  0.8605734639988826  0.6325700351873919  1.0000
  H   H18       1.0  0.13942578641302825  0.5082110328570622  0.8674302912379513  1.0000
  H   H19       1.0  0.5082117209204782  0.13942876973897003  0.3674324165790779  1.0000
  H   H20       1.0  0.8605714668512618  0.49178456012008803  0.1325703369864684  1.0000
  H   H21       1.0  0.6101741899555932  0.7789518565115685  0.035028385713879055  1.0000
  H   H22       1.0  0.22104580441922653  0.3898294929898186  0.46496561736229564  1.0000
  H   H23       1.0  0.38982796958644883  0.22104843516700606  0.9649654242874135  1.0000
  H   H24       1.0  0.7789519319946193  0.6101755453842445  0.535029934300475  1.0000
  H   H25       1.0  0.5231186167729192  0.9110283345341724  0.19801779757597873  1.0000
  H   H26       1.0  0.08897722186696914  0.47689061318018117  0.30197181090937153  1.0000
  H   H27       1.0  0.4768896431052596  0.08898139330093362  0.8019696089228603  1.0000
  H   H28       1.0  0.9110246407679199  0.5231181978156202  0.6980209626506451  1.0000
  H   H29       1.0  0.292503160693073  0.9896548191005151  0.24523969215658065  1.0000
  H   H30       1.0  0.010352988763933984  0.7075078438891894  0.2547570893750759  1.0000
  H   H31       1.0  0.7075046034919126  0.0103520994781974  0.7547539509755551  1.0000
  H   H32       1.0  0.9896504991277126  0.29250288445285116  0.7452403005773646  1.0000
  H   H33       1.0  0.14784975309682843  0.935696506095944  0.12980937975383  1.0000
  H   H34       1.0  0.0643138287995058  0.8521550104672714  0.37019489441689046  1.0000
  H   H35       1.0  0.8521539174387771  0.06430667245447098  0.8701933897976416  1.0000
  H   H36       1.0  0.9356931832473309  0.1478510099689956  0.6298082302498358  1.0000
  H   H37       1.0  0.23374894562282128  0.8022569399035504  0.9648744175610415  1.0000
  H   H38       1.0  0.19775031911884614  0.7662493483826366  0.5351307609311959  1.0000
  H   H39       1.0  0.7662485841144573  0.19774341069360452  0.03513047415032125  1.0000
  H   H40       1.0  0.8022556410513815  0.2337509930101618  0.46487304727133244  1.0000
  H   H41       1.0  0.6088473698006285  0.47779321550204656  0.8855832106497558  1.0000
  H   H42       1.0  0.5222052819828917  0.3911491145504798  0.6144198125606694  1.0000
  H   H43       1.0  0.3911485532922754  0.5222052363736865  0.11442069227866358  1.0000
  H   H44       1.0  0.47779359188505316  0.6088483911167161  0.38558452515380987  1.0000
  H   H45       1.0  0.6181093692718492  0.5501269233722894  0.011811240421394552  1.0000
  H   H46       1.0  0.44987407357341164  0.38188527126766303  0.48818982364861796  1.0000
  H   H47       1.0  0.3818845345906752  0.44987246851572144  0.9881910996617904  1.0000
  H   H48       1.0  0.5501260068965409  0.6181103357141283  0.5118137687148799  1.0000
  C   C1        1.0  0.6162628448790314  0.7562847337188429  0.7599732537484911  1.0000
  C   C2        1.0  0.24371714947563558  0.383732856633813  0.740027173848489  1.0000
  C   C3        1.0  0.38373546956805166  0.24371654761419853  0.2400285047448705  1.0000
  C   C4        1.0  0.7562814353756905  0.61626652755389  0.25997406045069477  1.0000
  C   C5        1.0  0.7405993493889867  0.7309717460355571  0.7809485894743132  1.0000
  C   C6        1.0  0.26903300954881365  0.25940065585547956  0.7190479092125698  1.0000
  C   C7        1.0  0.25940177365139044  0.26902953067729385  0.21905250554864608  1.0000
  C   C8        1.0  0.7309695811916158  0.7405968157142269  0.2809501024604869  1.0000
  C   C9        1.0  0.8363238237907497  0.7882226362461181  0.6918639303762646  1.0000
  C   C10       1.0  0.21178192201062265  0.16367055933732638  0.8081329300701654  1.0000
  C   C11       1.0  0.1636716774099582  0.21177864505089866  0.3081375846851273  1.0000
  C   C12       1.0  0.7882200075893736  0.8363250212833152  0.1918656854678885  1.0000
  C   C13       1.0  0.8082254011345001  0.8716432756210539  0.5817642339136953  1.0000
  C   C14       1.0  0.1283587737216294  0.19177027654279044  0.9182341305360352  1.0000
  C   C15       1.0  0.1917735963028306  0.12835326983295664  0.4182375744477653  1.0000
  C   C16       1.0  0.8716435638112825  0.8082224606879509  0.08176415216193074  1.0000
  C   C17       1.0  0.6841742738292569  0.8984411840340983  0.5607663878255521  1.0000
  C   C18       1.0  0.101561092541246  0.31581717930144754  0.9392342475745963  1.0000
  C   C19       1.0  0.3158213742063083  0.10155916033076552  0.43923713239467327  1.0000
  C   C20       1.0  0.8984393772492322  0.684175565665619  0.060765384339340936  1.0000
  C   C21       1.0  0.5887542708875344  0.8406962661559801  0.6490313390099516  1.0000
  C   C22       1.0  0.15930359991880746  0.4112406087451959  0.8509700690032175  1.0000
  C   C23       1.0  0.41124245552755667  0.15930313508046368  0.35097305830993974  1.0000
  C   C24       1.0  0.8406948646005789  0.5887530902027721  0.14903072077259333  1.0000
  C   C25       1.0  0.42701958590982503  0.7820064074333997  0.9892148072592306  1.0000
  C   C26       1.0  0.21799518555231154  0.5729794589732791  0.510783672547376  1.0000
  C   C27       1.0  0.5729779298681664  0.21799392919513844  0.01078736374502396  1.0000
  C   C28       1.0  0.7820049919841099  0.427021809967222  0.4892158298276497  1.0000
  C   C29       1.0  0.5085620575936645  0.8117524760463509  0.05584604121358446  1.0000
  C   C30       1.0  0.18825023760859239  0.4914408028677357  0.444150968021674  1.0000
  C   C31       1.0  0.4914399830320946  0.18824878050160979  0.9441512050430917  1.0000
  C   C32       1.0  0.811751257555585  0.5085642433146945  0.5558464197209999  1.0000
  C   C33       1.0  0.4596292536149918  0.8863225284540872  0.14771245172129707  1.0000
  C   C34       1.0  0.11368065637101672  0.5403779382065393  0.35228285265963416  1.0000
  C   C35       1.0  0.5403769039256191  0.11368249140320331  0.8522802026278952  1.0000
  C   C36       1.0  0.8863185584647295  0.45962995444590865  0.6477153102367267  1.0000
  C   C37       1.0  0.3301693284694807  0.9311122122578014  0.17371353168211798  1.0000
  C   C38       1.0  0.0688900315504171  0.6698391885431576  0.3262885260919148  1.0000
  C   C39       1.0  0.6698372649226059  0.0688899921468291  0.8262842312412033  1.0000
  C   C40       1.0  0.9311082703530431  0.33016872893038135  0.6737143924730873  1.0000
  C   C41       1.0  0.24881694244086813  0.9011683849119267  0.10822578905133884  1.0000
  C   C42       1.0  0.09883598763158118  0.7511852998951413  0.3917792096974467  1.0000
  C   C43       1.0  0.7511849792685938  0.09883383650542749  0.8917748934607203  1.0000
  C   C44       1.0  0.9011666138306822  0.24881883109610212  0.6082244965591102  1.0000
  C   C45       1.0  0.29699739957256105  0.826756826135899  0.01598897824758427  1.0000
  C   C46       1.0  0.17324855968917774  0.7030012271346778  0.484015389056438  1.0000
  C   C47       1.0  0.7030007866520479  0.17324541075411307  0.9840144026964239  1.0000
  C   C48       1.0  0.8267544497060019  0.2970000604666652  0.5159879843600235  1.0000
  C   C49       1.0  0.5533087397875037  0.5342055650962579  0.9559613669767373  1.0000
  C   C50       1.0  0.4657939779331741  0.446686363176191  0.5440411353365064  1.0000
  C   C51       1.0  0.4466873161809701  0.46579193587870543  0.044041820403407365  1.0000
  C   C52       1.0  0.5342051663390139  0.5533092453456588  0.45596267818379477  1.0000
  N   N1        1.0  0.12669804545894442  0.8732979005099251  0.7499999055233033  1.0000
  N   N2        1.0  0.8732981247727237  0.12669863093944397  0.24999893869908618  1.0000
  O   O1        1.0  0.2368129818559623  0.888850693195252  0.6831523092655658  1.0000
  O   O2        1.0  0.1111415118449272  0.7631845153002035  0.8168513955486105  1.0000
  O   O3        1.0  0.7631846933005163  0.11114207036062143  0.31685070682588196  1.0000
  O   O4        1.0  0.8888506571507406  0.23681393342337018  0.18315157820227063  1.0000
  O   O5        1.0  0.0371575244230442  0.962841080813874  0.7499977050301891  1.0000
  O   O6        1.0  0.9628410325097221  0.0371582754365889  0.2499980878547774  1.0000
