data_image0
_chemical_formula_structural       Zn8H56C52N16Cl16
_chemical_formula_sum              "Zn8 H56 C52 N16 Cl16"
_cell_length_a       6.957474402
_cell_length_b       8.816631552587715
_cell_length_c       29.053
_cell_angle_alpha    96.84850371634559
_cell_angle_beta     90.0
_cell_angle_gamma    90.0

_space_group_name_H-M_alt    "P 1"
_space_group_IT_number       1

loop_
  _space_group_symop_operation_xyz
  'x, y, z'

loop_
  _atom_site_type_symbol
  _atom_site_label
  _atom_site_symmetry_multiplicity
  _atom_site_fract_x
  _atom_site_fract_y
  _atom_site_fract_z
  _atom_site_occupancy
  Zn  Zn1       1.0  0.8366556114567487  0.5874368333520152  0.8395471346570813  1.0000
  Zn  Zn2       1.0  0.3366566464587635  0.9125613116089539  0.6604535726617013  1.0000
  Zn  Zn3       1.0  0.1633423185392289  0.4125604067940571  0.1604536259689837  1.0000
  Zn  Zn4       1.0  0.6633455954467209  0.087438213278979  0.3395462380462462  1.0000
  Zn  Zn5       1.0  0.330356946672957  0.7422669348473363  0.8708694870735485  1.0000
  Zn  Zn6       1.0  0.8303559116709494  0.7577289253717723  0.6291307933692138  1.0000
  Zn  Zn7       1.0  0.6696395460198517  0.2577303052987361  0.1291298967583785  1.0000
  Zn  Zn8       1.0  0.1696420183250282  0.2422683147743001  0.37086927885977866  1.0000
  H   H1        1.0  0.8649862942032556  0.8814751138881505  0.9088429986183754  1.0000
  H   H2        1.0  0.3650074514496211  0.6185253158146722  0.5911550377896261  1.0000
  H   H3        1.0  0.1350044492768774  0.1185186991451346  0.091153851807583  1.0000
  H   H4        1.0  0.6350106007907073  0.3814776361860481  0.40884352014042225  1.0000
  H   H5        1.0  0.8301863098971154  0.949084052581007  0.9953504038281834  1.0000
  H   H6        1.0  0.3301844702927852  0.5509152347508888  0.5046486238366725  1.0000
  H   H7        1.0  0.1698231185242065  0.0509177570487793  0.004647080167515599  1.0000
  H   H8        1.0  0.6697990866715102  0.4490820053951836  0.4953504157967215  1.0000
  H   H9        1.0  0.7795745534386498  0.7360444403969026  0.04398235231283109  1.0000
  H   H10       1.0  0.2795554661963067  0.7639548469349933  0.4560170195505576  1.0000
  H   H11       1.0  0.2204506853175161  0.2639642234584585  0.9560171007080027  1.0000
  H   H12       1.0  0.7204079685236309  0.23604239321107906  0.5439830526784348  1.0000
  H   H13       1.0  0.7560545243957932  0.4707276497584658  0.006129916141496498  1.0000
  H   H14       1.0  0.256038311759788  0.0292709703145704  0.49387166886640427  1.0000
  H   H15       1.0  0.2439606532382044  0.5292787293550347  0.9938739287827898  1.0000
  H   H16       1.0  0.743936621385501  0.9707217003477879  0.5061289264046778  1.0000
  H   H17       1.0  0.6363947237415957  0.161948214754112  0.9154118964085782  1.0000
  H   H18       1.0  0.1363943214404344  0.3380526900607848  0.5845877060856066  1.0000
  H   H19       1.0  0.3636161419828952  0.8380501677628871  0.0845878729606255  1.0000
  H   H20       1.0  0.8636064831618739  0.6619502619399356  0.4154129170356454  1.0000
  H   H21       1.0  0.599872850240061  0.3010832820554725  0.9632739955371149  1.0000
  H   H22       1.0  0.099869573332569  0.1989176227594243  0.5367266395526683  1.0000
  H   H23       1.0  0.4001380154844298  0.6989151004615266  0.03672749482475979  1.0000
  H   H24       1.0  0.900125482057071  0.8010864716122228  0.4632747133043863  1.0000
  H   H25       1.0  0.8219304404995214  0.2044044303315573  0.9574690232252292  1.0000
  H   H26       1.0  0.3219300381983672  0.2955919049996183  0.542531446509578  1.0000
  H   H27       1.0  0.17808042522496953  0.7955916674435812  0.042531351863551885  1.0000
  H   H28       1.0  0.6780693291007793  0.7044099046301682  0.4574705120670615  1.0000
  H   H29       1.0  0.9477807058987437  0.1088119733611563  0.8812314678695401  1.0000
  H   H30       1.0  0.44778461550708937  0.3911820772281658  0.6187675423936482  1.0000
  H   H31       1.0  0.0522186614004028  0.8911818396721287  0.11876641515202375  1.0000
  H   H32       1.0  0.5522248129142326  0.608812878176046  0.38123279135638904  1.0000
  H   H33       1.0  0.96098521010412  0.0372127330131917  0.8221747512705234  1.0000
  H   H34       1.0  0.4609891197124654  0.4627824599470571  0.6778243003314086  1.0000
  H   H35       1.0  0.0390084079823509  0.9627867918747413  0.17782230584916187  1.0000
  H   H36       1.0  0.5390231833151944  0.5372136378280885  0.3221757305588397  1.0000
  H   H37       1.0  0.738173035681406  0.024990506443487  0.8515889372557622  1.0000
  H   H38       1.0  0.2381812571992583  0.47501268311326333  0.6484097153203051  1.0000
  H   H39       1.0  0.261817707798734  0.9750124455572334  0.1484096206742791  1.0000
  H   H40       1.0  0.7618296085252325  0.5249902688874499  0.35159056360240726  1.0000
  H   H41       1.0  0.8194022242268275  0.0359858266354109  0.7597491880028144  1.0000
  H   H42       1.0  0.3194104457446798  0.4640150781794786  0.7402511028884361  1.0000
  H   H43       1.0  0.180597143072319  0.9640205524780895  0.2402494939434661  1.0000
  H   H44       1.0  0.6805932334639736  0.5359867314503077  0.2597505114896705  1.0000
  H   H45       1.0  0.8310271322504548  0.1011489491692146  0.6792514174259024  1.0000
  H   H46       1.0  0.3310296045556314  0.3988508132747555  0.8207484879280713  1.0000
  H   H47       1.0  0.16896936044235392  0.8988585723152198  0.3207483384547203  1.0000
  H   H48       1.0  0.6689683254403462  0.6011475692422508  0.17925300243380343  1.0000
  H   H49       1.0  0.8408396009791019  0.377616422445918  0.6649010897839176  1.0000
  H   H50       1.0  0.3408391986779478  0.12238562473990561  0.8350985540490115  1.0000
  H   H51       1.0  0.15915832901687574  0.6223910990385164  0.3350986660967052  1.0000
  H   H52       1.0  0.6591572940148609  0.8776104730352401  0.16490078844417155  1.0000
  H   H53       1.0  0.8376430387332405  0.5779128869166854  0.7340016537007017  1.0000
  H   H54       1.0  0.3376325753099039  0.9220875427861445  0.7659984478984965  1.0000
  H   H55       1.0  0.1623592031722438  0.4220912074549616  0.2659993549578274  1.0000
  H   H56       1.0  0.6623552935638983  0.0779108397308619  0.23400166566923986  1.0000
  C   C1        1.0  0.8397113179921405  0.7943087848902834  0.9316853552597877  1.0000
  C   C2        1.0  0.3397267260258303  0.7056905024416125  0.5683133282065356  1.0000
  C   C3        1.0  0.1602823000943303  0.2056861705139355  0.06831153650491469  1.0000
  C   C4        1.0  0.6602812650923227  0.2943101648172473  0.4316861796416233  1.0000
  C   C5        1.0  0.8229940448439168  0.8309537595517469  0.9795002502598108  1.0000
  C   C6        1.0  0.322999391755431  0.6690478125220096  0.5205009252737369  1.0000
  C   C7        1.0  0.1770096343647296  0.1690469077071128  0.020498569191282498  1.0000
  C   C8        1.0  0.6769971009373776  0.3309517123659234  0.47950095062541453  1.0000
  C   C9        1.0  0.7935077703502529  0.7125047450332858  0.006425194510704601  1.0000
  C   C10       1.0  0.2934958696237544  0.7875013965241848  0.4935761463778191  1.0000
  C   C11       1.0  0.2065074072837376  0.287500491709288  0.9935748228909631  1.0000
  C   C12       1.0  0.7064776262183656  0.2125072673311763  0.5064253718342187  1.0000
  C   C13       1.0  0.7794911898549017  0.5628895668289928  0.9849724814216145  1.0000
  C   C14       1.0  0.2794836010379029  0.9371074357610424  0.5150257751686879  1.0000
  C   C15       1.0  0.22051967586958912  0.4371088156880063  0.015027632146122  1.0000
  C   C16       1.0  0.7205013932295614  0.0628898043850299  0.4849715434720351  1.0000
  C   C17       1.0  0.795098864957346  0.5347255539446536  0.9367389147508476  1.0000
  C   C18       1.0  0.2951027745656916  0.9652748757581691  0.5632601542527524  1.0000
  C   C19       1.0  0.20490337694813127  0.4652751133142062  0.063263002487048  1.0000
  C   C20       1.0  0.7048965927334478  0.0347235067588301  0.4367375499252475  1.0000
  C   C21       1.0  0.7779187801889975  0.3788741728387848  0.9116743082814691  1.0000
  C   C22       1.0  0.2779198151910052  0.12112673197611198  0.5883277036024523  1.0000
  C   C23       1.0  0.2220877736259936  0.621126494420075  0.08832760895642619  1.0000
  C   C24       1.0  0.7220795521081413  0.8788785047664618  0.4116774767772212  1.0000
  C   C25       1.0  0.7070410490602655  0.2536109157286504  0.9378504812614066  1.0000
  C   C26       1.0  0.2070363348496045  0.24638884671531264  0.5621501124896395  1.0000
  C   C27       1.0  0.2929741285737322  0.7463840396755614  0.062150540885703286  1.0000
  C   C28       1.0  0.7929601578432113  0.7536186747691218  0.437851364383654  1.0000
  C   C29       1.0  0.8666262571180638  0.0955833180029728  0.8487281894342259  1.0000
  C   C30       1.0  0.3666287294232404  0.4044164444409901  0.651271027522675  1.0000
  C   C31       1.0  0.1333716728779137  0.9044173492558869  0.15127131841393285  1.0000
  C   C32       1.0  0.633387885513919  0.595581938076009  0.3487294302435942  1.0000
  C   C33       1.0  0.8269135705833364  0.2749207030388021  0.7899484995466679  1.0000
  C   C34       1.0  0.3269117309790133  0.2250790594051679  0.7100534709985098  1.0000
  C   C35       1.0  0.173087234018972  0.7250811065909915  0.21005242643437327  1.0000
  C   C36       1.0  0.6730905109264712  0.7749238925955524  0.28994784051980815  1.0000
  C   C37       1.0  0.8268589530629528  0.1549637588940129  0.7533923802518456  1.0000
  C   C38       1.0  0.3268614253681292  0.34503600354995  0.746607180903595  1.0000
  C   C39       1.0  0.1731404142361939  0.8450380507357735  0.24660648053799145  1.0000
  C   C40       1.0  0.6731422538405172  0.654957809483335  0.2533931115076982  1.0000
  C   C41       1.0  0.8321338556898965  0.1919046076260997  0.7082826568911498  1.0000
  C   C42       1.0  0.3321363279950731  0.3080974395597238  0.7917166427432462  1.0000
  C   C43       1.0  0.1678683862155879  0.8081029138583347  0.29171572219534164  1.0000
  C   C44       1.0  0.6678601646977356  0.691897515844488  0.20828437940386374  1.0000
  C   C45       1.0  0.8373498288869428  0.3450816983871121  0.6999313828993151  1.0000
  C   C46       1.0  0.3373508638889576  0.1549180640568579  0.8000685224546586  1.0000
  C   C47       1.0  0.1626495384122038  0.6549258230973223  0.3000697497754458  1.0000
  C   C48       1.0  0.6626456288038511  0.8450803184601483  0.1999326237086834  1.0000
  C   C49       1.0  0.8349754040532389  0.4564525826292964  0.7378716337713342  1.0000
  C   C50       1.0  0.334969252539409  0.0435494645565271  0.7621283542601276  1.0000
  C   C51       1.0  0.1650268378522455  0.5435560812260718  0.26212919604363794  1.0000
  C   C52       1.0  0.665021490940731  0.9564500603313988  0.23787248904341846  1.0000
  N   N1        1.0  0.8265815535515061  0.6508167148655986  0.9110524348922054  1.0000
  N   N2        1.0  0.3265983988883647  0.8491780029825833  0.5889481484103455  1.0000
  N   N3        1.0  0.1734106272317959  0.3491770981676865  0.08894785751908779  1.0000
  N   N4        1.0  0.6734182160487947  0.1508158100507018  0.41105283239802043  1.0000
  N   N5        1.0  0.8161438579447307  0.3729121389601673  0.8676710007095209  1.0000
  N   N6        1.0  0.3161391437340697  0.1270830540000816  0.6323270182968057  1.0000
  N   N7        1.0  0.1838598212639155  0.6270862435568318  0.1323287686596828  1.0000
  N   N8        1.0  0.6838602235650768  0.8729119014041373  0.36766987346789637  1.0000
  N   N9        1.0  0.8205060730599314  0.24739641787471808  0.8364067914840587  1.0000
  N   N10       1.0  0.3204999215461015  0.2526079140529589  0.6635936234234308  1.0000
  N   N11       1.0  0.1794932942392151  0.7526099612387824  0.1635918904622216  1.0000
  N   N12       1.0  0.6795037576625518  0.7473961803186882  0.3364091062277694  1.0000
  N   N13       1.0  0.8286598939325884  0.4220660752945236  0.7817462168199397  1.0000
  N   N14       1.0  0.3286523051155896  0.0779359718913  0.7182530828144564  1.0000
  N   N15       1.0  0.171340910669727  0.5779391614480502  0.21825380058172775  1.0000
  N   N16       1.0  0.671344187577219  0.9220601258838457  0.2817466038772594  1.0000
  Cl  Cl1       1.0  0.0868289216883582  0.7322243520102205  0.8142464836375111  1.0000
  Cl  Cl2       1.0  0.5868221374736748  0.767766938725174  0.6857539756488009  1.0000
  Cl  Cl3       1.0  0.9131704456107884  0.2677706033939913  0.18575385011252618  1.0000
  Cl  Cl4       1.0  0.4131714806128032  0.232222304824397  0.3142458072089838  1.0000
  Cl  Cl5       1.0  0.5814983665390159  0.7389677676042936  0.8172909055159252  1.0000
  Cl  Cl6       1.0  0.0814979642378546  0.7610315197276023  0.6827088105459964  1.0000
  Cl  Cl7       1.0  0.4184995634569617  0.261028330170852  0.1827091253743234  1.0000
  Cl  Cl8       1.0  0.9185028403644537  0.2389691475312574  0.3172906973021625  1.0000
  Cl  Cl9       1.0  0.3159709792634047  0.5279078842402001  0.9043172145898096  1.0000
  Cl  Cl10      1.0  0.8159670696550521  0.9720902607207691  0.5956841811260389  1.0000
  Cl  Cl11      1.0  0.6840326999452486  0.47208935590587237  0.09568216924211728  1.0000
  Cl  Cl12      1.0  0.1840265484314187  0.0279092641671639  0.40431700637603996  1.0000
  Cl  Cl13      1.0  0.3215390917366392  0.969213770721467  0.9137386280123037  1.0000
  Cl  Cl14      1.0  0.8215466805536381  0.5307832318685684  0.5862603169750642  1.0000
  Cl  Cl15      1.0  0.6784516517434938  0.030784611795532203  0.0862597645627687  1.0000
  Cl  Cl16      1.0  0.178459873261346  0.469214008277504  0.4137383784597972  1.0000
