data_image0
_chemical_formula_structural       Ag8H40C32N32O32
_chemical_formula_sum              "Ag8 H40 C32 N32 O32"
_cell_length_a       8.933516119
_cell_length_b       11.919774501
_cell_length_c       14.1971
_cell_angle_alpha    90.0
_cell_angle_beta     90.0
_cell_angle_gamma    90.0

_space_group_name_H-M_alt    "P 1"
_space_group_IT_number       1

loop_
  _space_group_symop_operation_xyz
  'x, y, z'

loop_
  _atom_site_type_symbol
  _atom_site_label
  _atom_site_symmetry_multiplicity
  _atom_site_fract_x
  _atom_site_fract_y
  _atom_site_fract_z
  _atom_site_occupancy
  Ag  Ag1       1.0  0.8213182695663335  0.8218368559890268  0.4844017440181432  1.0000
  Ag  Ag2       1.0  0.17868216486508  0.6781638360123168  0.9844017440181432  1.0000
  Ag  Ag3       1.0  0.321319171730707  0.1781644442872476  0.0155982559818568  1.0000
  Ag  Ag4       1.0  0.6786812627006995  0.3218341084957714  0.5155975516126503  1.0000
  Ag  Ag5       1.0  0.1786810454849999  0.1781644442872476  0.5155989603510562  1.0000
  Ag  Ag6       1.0  0.8213193889464138  0.3218341084957714  0.015597551612650303  1.0000
  Ag  Ag7       1.0  0.6786812627006995  0.8218351781049338  0.9844031527565493  1.0000
  Ag  Ag8       1.0  0.3213202911107871  0.6781646749543668  0.4844010396489438  1.0000
  H   H1        1.0  0.08407663790996622  0.4869630712823465  0.31230814743856433  1.0000
  H   H2        1.0  0.9159249159015275  0.013039676210901503  0.8123081474385643  1.0000
  H   H3        1.0  0.5840746163655055  0.5130365511098347  0.1876911481922363  1.0000
  H   H4        1.0  0.41592469868582077  0.9869616240653729  0.6876918525614357  1.0000
  H   H5        1.0  0.9159237965214473  0.5130382289939278  0.6876918525614357  1.0000
  H   H6        1.0  0.08407663790996622  0.9869633019494658  0.1876911481922363  1.0000
  H   H7        1.0  0.41592469868582077  0.4869622323403037  0.8123088518077638  1.0000
  H   H8        1.0  0.5840746163655055  0.013037998326808504  0.3123088518077637  1.0000
  H   H9        1.0  0.9200375183203917  0.2862587710626343  0.39029097491741294  1.0000
  H   H10       1.0  0.07996067735085431  0.2137414596044778  0.8902916792866123  1.0000
  H   H11       1.0  0.4200384204847723  0.713741690271597  0.1097076163441812  1.0000
  H   H12       1.0  0.5799620139466415  0.7862581627877037  0.6097090250825872  1.0000
  H   H13       1.0  0.07996291611101472  0.713740851329547  0.6097076163441812  1.0000
  H   H14       1.0  0.920038637700479  0.7862581627877037  0.10970832071338783  1.0000
  H   H15       1.0  0.5799620139466415  0.2862579321205914  0.8902916792866123  1.0000
  H   H16       1.0  0.42003730110469223  0.2137406206624348  0.3902923836558188  1.0000
  H   H17       1.0  0.7468906879575741  0.5740410608796297  0.4716667488430701  1.0000
  H   H18       1.0  0.2531108658539125  0.925958792179671  0.9716667488430704  1.0000
  H   H19       1.0  0.24689047074186735  0.4259585615125587  0.028333251156929907  1.0000
  H   H20       1.0  0.7531088443094591  0.0740408302125175  0.5283332511569299  1.0000
  H   H21       1.0  0.2531097464738323  0.4259585615125587  0.5283332511569299  1.0000
  H   H22       1.0  0.7468906879575741  0.0740408302125175  0.028333251156929907  1.0000
  H   H23       1.0  0.7531110830696193  0.5740427387637226  0.9716674532122769  1.0000
  H   H24       1.0  0.24689047074186735  0.925959631121714  0.47166604447387084  1.0000
  H   H25       1.0  0.07954874548092053  0.8405251289912814  0.3278092004705186  1.0000
  H   H26       1.0  0.9204516889504931  0.6594730461839263  0.8278099048397183  1.0000
  H   H27       1.0  0.57954784331654  0.159476171284993  0.1721900951602819  1.0000
  H   H28       1.0  0.4204525911148664  0.34052573726621205  0.6721907995294814  1.0000
  H   H29       1.0  0.9204539277106535  0.1594744934009071  0.6721900951602822  1.0000
  H   H30       1.0  0.0795476261008332  0.340524059382119  0.17219079952948144  1.0000
  H   H31       1.0  0.4204514717347863  0.8405251289912814  0.8278092004705188  1.0000
  H   H32       1.0  0.5795489626966202  0.6594738851259763  0.3278092004705186  1.0000
  H   H33       1.0  0.2236633340539242  0.6564897682706602  0.24845919237026956  1.0000
  H   H34       1.0  0.7763382197575694  0.8435109237306904  0.748459896739476  1.0000
  H   H35       1.0  0.7236635512696239  0.34351153200561413  0.251540103260524  1.0000
  H   H36       1.0  0.2763368831617825  0.15648869866149792  0.7515393988913246  1.0000
  H   H37       1.0  0.7763382197575694  0.3435106930635712  0.7515393988913246  1.0000
  H   H38       1.0  0.2236633340539242  0.15648869866149792  0.2515408076297305  1.0000
  H   H39       1.0  0.2763357637817023  0.6564906072127031  0.748459896739476  1.0000
  H   H40       1.0  0.7236624318895437  0.8435100847886403  0.248459896739476  1.0000
  C   C1        1.0  0.055459686130333814  0.7520209379169032  0.3352431130301241  1.0000
  C   C2        1.0  0.9445407483010799  0.7479789151423974  0.8352431130301242  1.0000
  C   C3        1.0  0.5554576645858731  0.24798036235937104  0.16475688696987595  1.0000
  C   C4        1.0  0.444540531085373  0.252020707249784  0.6647568869698759  1.0000
  C   C5        1.0  0.9445418676811599  0.2479795234173281  0.6647575913390753  1.0000
  C   C6        1.0  0.055459686130333814  0.252019868307741  0.1647561826006694  1.0000
  C   C7        1.0  0.444540531085373  0.7520209379169032  0.8352431130301242  1.0000
  C   C8        1.0  0.5554587839659533  0.7479789151423974  0.3352431130301241  1.0000
  C   C9        1.0  0.12738881139752325  0.6612616706246187  0.2945066245923443  1.0000
  C   C10       1.0  0.8726105036538101  0.8387381824346818  0.7945080333307503  1.0000
  C   C11       1.0  0.6273901479933102  0.3387379517675626  0.20549267103844934  1.0000
  C   C12       1.0  0.37261140581818364  0.1612614399575065  0.7054933754076558  1.0000
  C   C13       1.0  0.8726116230338904  0.33873879070961277  0.7054926710384493  1.0000
  C   C14       1.0  0.12738881139752325  0.1612614399575065  0.20549337540765586  1.0000
  C   C15       1.0  0.3726102864381033  0.6612616706246187  0.7945066245923442  1.0000
  C   C16       1.0  0.627389028613223  0.8387381824346818  0.2945066245923443  1.0000
  C   C17       1.0  0.9402938202724442  0.6006976054286355  0.3840840735079709  1.0000
  C   C18       1.0  0.05970437539880181  0.8993022476306651  0.8840854822463768  1.0000
  C   C19       1.0  0.4402936030567447  0.3993020169635528  0.1159152221228297  1.0000
  C   C20       1.0  0.5597045926145015  0.10069821370356641  0.6159152221228297  1.0000
  C   C21       1.0  0.059705494778882005  0.39930117802150283  0.6159159264920291  1.0000
  C   C22       1.0  0.9402949396525316  0.1006973747615163  0.11591451775362323  1.0000
  C   C23       1.0  0.5597057119945887  0.6006984443706785  0.8840854822463768  1.0000
  C   C24       1.0  0.4402947224368248  0.8993022476306651  0.3840840735079709  1.0000
  C   C25       1.0  0.8332206379712943  0.5311258194917059  0.4311155095054602  1.0000
  C   C26       1.0  0.1667809158401994  0.9688740335675945  0.9311162138746667  1.0000
  C   C27       1.0  0.3332204207555876  0.4688738029004753  0.0688851948637392  1.0000
  C   C28       1.0  0.6667800136758189  0.031126427766636808  0.5688858992329386  1.0000
  C   C29       1.0  0.1667797964601192  0.46887296395843253  0.5688858992329386  1.0000
  C   C30       1.0  0.833219518591207  0.031126427766636808  0.0688844904945398  1.0000
  C   C31       1.0  0.6667822524359863  0.5311266584337561  0.9311155095054602  1.0000
  C   C32       1.0  0.3332204207555876  0.9688740335675945  0.4311148051362609  1.0000
  N   N1        1.0  0.9409844777826423  0.7140101517261074  0.3907410668375918  1.0000
  N   N2        1.0  0.05901483726869121  0.7859897013331932  0.8907417712067982  1.0000
  N   N3        1.0  0.4409842605669354  0.285990309608124  0.1092575244240024  1.0000
  N   N4        1.0  0.5590139351043106  0.21401076000103814  0.6092582287932018  1.0000
  N   N5        1.0  0.05901483726869121  0.285989470666081  0.6092582287932018  1.0000
  N   N6        1.0  0.9409844777826423  0.2140099210589952  0.10925822879320181  1.0000
  N   N7        1.0  0.5590150544843909  0.7140109906681503  0.8907424755759978  1.0000
  N   N8        1.0  0.4409842605669354  0.7859897013331932  0.3907417712067982  1.0000
  N   N9        1.0  0.05388024083555361  0.5681869232871648  0.3256805967415915  1.0000
  N   N10       1.0  0.9461201935958599  0.9318137687141785  0.8256805967415914  1.0000
  N   N11       1.0  0.5538793386711733  0.4318126991050164  0.17431940325840864  1.0000
  N   N12       1.0  0.4461199763801531  0.0681866926200527  0.6743194032584086  1.0000
  N   N13       1.0  0.9461213129759402  0.4318135380470665  0.6743201076276151  1.0000
  N   N14       1.0  0.05388024083555361  0.0681875315620957  0.17431940325840864  1.0000
  N   N15       1.0  0.4461188570000729  0.5681869232871648  0.825681301110791  1.0000
  N   N16       1.0  0.5538804580512533  0.9318129297721356  0.3256805967415915  1.0000
  N   N17       1.0  0.8256771356030939  0.4221455699164309  0.4312275042086071  1.0000
  N   N18       1.0  0.17432217944823242  0.0778538218086382  0.9312282085778067  1.0000
  N   N19       1.0  0.32567915714755463  0.5778548914178003  0.0687717914221935  1.0000
  N   N20       1.0  0.674321277283859  0.9221458005835503  0.5687717914221937  1.0000
  N   N21       1.0  0.174319940688072  0.5778532135337073  0.5687724957913929  1.0000
  N   N22       1.0  0.825678254983174  0.9221458005835503  0.0687717914221935  1.0000
  N   N23       1.0  0.674321277283859  0.422146408858481  0.9312282085778067  1.0000
  N   N24       1.0  0.32567915714755463  0.07785466075068112  0.43122820857780664  1.0000
  N   N25       1.0  0.1367333963166075  0.9090138407476545  0.6363743299687956  1.0000
  N   N26       1.0  0.863267038114806  0.5909868512536889  0.1363743299687954  1.0000
  N   N27       1.0  0.6367324941522272  0.0909857816445268  0.8636256700312048  1.0000
  N   N28       1.0  0.363265701519019  0.4090136100805425  0.36362567003120466  1.0000
  N   N29       1.0  0.863267038114806  0.0909849427024838  0.36362567003120466  1.0000
  N   N30       1.0  0.1367333963166075  0.4090136100805425  0.863626374400404  1.0000
  N   N31       1.0  0.363265701519019  0.9090130018056115  0.136373625599596  1.0000
  N   N32       1.0  0.6367324941522272  0.5909868512536889  0.6363743299687956  1.0000
  O   O1        1.0  0.9330536699062933  0.3701932448159795  0.3768241401412951  1.0000
  O   O2        1.0  0.066945645145033  0.1298069858511326  0.8768227314028891  1.0000
  O   O3        1.0  0.433055691450754  0.6298080554602948  0.1231772685971109  1.0000
  O   O4        1.0  0.5669458623607397  0.8701926365410559  0.6231765642279044  1.0000
  O   O5        1.0  0.0669445257649528  0.6298080554602948  0.6231779729663103  1.0000
  O   O6        1.0  0.9330547892863806  0.8701926365410559  0.1231772685971109  1.0000
  O   O7        1.0  0.5669458623607397  0.3701924058739365  0.8768227314028891  1.0000
  O   O8        1.0  0.433055691450754  0.1298078247931755  0.3768227314028892  1.0000
  O   O9        1.0  0.2349780279161777  0.8771751511845168  0.6939882088595581  1.0000
  O   O10       1.0  0.7650224065152358  0.6228247018747837  0.1939875044903516  1.0000
  O   O11       1.0  0.7349771257517974  0.12282363226562863  0.8060117911404421  1.0000
  O   O12       1.0  0.265022189299529  0.3771757594594477  0.3060117911404419  1.0000
  O   O13       1.0  0.7650224065152358  0.1228227933235786  0.3060117911404419  1.0000
  O   O14       1.0  0.23497690853609754  0.3771757594594477  0.8060124955096486  1.0000
  O   O15       1.0  0.265022189299529  0.8771751511845168  0.1939875044903516  1.0000
  O   O16       1.0  0.7349771257517974  0.6228247018747837  0.6939882088595581  1.0000
  O   O17       1.0  0.0893119785504268  0.007834879761539102  0.6338625493938892  1.0000
  O   O18       1.0  0.9106884558809867  0.492165350905573  0.1338618450246898  1.0000
  O   O19       1.0  0.5893121957661265  0.9921639036885992  0.8661374506061108  1.0000
  O   O20       1.0  0.41068711928519974  0.5078351104286583  0.3661381549753103  1.0000
  O   O21       1.0  0.9106884558809867  0.9921639036885992  0.3661374506061108  1.0000
  O   O22       1.0  0.0893119785504268  0.5078351104286583  0.8661381549753102  1.0000
  O   O23       1.0  0.4106882386652799  0.007834879761539102  0.1338618450246898  1.0000
  O   O24       1.0  0.5893110763860463  0.492165350905573  0.6338618450246898  1.0000
  O   O25       1.0  0.0841270100136242  0.8369923440383077  0.5758492931655042  1.0000
  O   O26       1.0  0.9158745437978624  0.6630083479630429  0.0758485887963047  1.0000
  O   O27       1.0  0.5841249884691706  0.16300811729592374  0.9241507068344958  1.0000
  O   O28       1.0  0.4158732072020826  0.3369921133711884  0.4241507068344958  1.0000
  O   O29       1.0  0.9158756631779497  0.16300811729592374  0.4241500024652893  1.0000
  O   O30       1.0  0.08412477125346383  0.3369921133711884  0.9241514112036953  1.0000
  O   O31       1.0  0.4158732072020826  0.8369915050962577  0.0758485887963047  1.0000
  O   O32       1.0  0.5841261078492508  0.6630083479630429  0.5758492931655042  1.0000
