data_image0
_chemical_formula_structural       Zn2H38C38N4O8
_chemical_formula_sum              "Zn2 H38 C38 N4 O8"
_cell_length_a       11.030792713805225
_cell_length_b       13.861805658762915
_cell_length_c       15.391000229386314
_cell_angle_alpha    90.03213223070694
_cell_angle_beta     87.83518483285751
_cell_angle_gamma    72.69928513485226

_space_group_name_H-M_alt    "P 1"
_space_group_IT_number       1

loop_
  _space_group_symop_operation_xyz
  'x, y, z'

loop_
  _atom_site_type_symbol
  _atom_site_label
  _atom_site_symmetry_multiplicity
  _atom_site_fract_x
  _atom_site_fract_y
  _atom_site_fract_z
  _atom_site_occupancy
  Zn  Zn1       1.0  0.481552960373122  0.6080505661406335  0.4948829345748678  1.0000
  Zn  Zn2       1.0  0.5001637475975116  0.4033590749736859  0.4944007706109161  1.0000
  H   H1        1.0  0.12940475394296413  0.4252459579677961  0.4899279903351541  1.0000
  H   H2        1.0  0.5670513578121685  0.6310621082243347  0.7702328413012368  1.0000
  H   H3        1.0  0.5763477046000033  0.3372823012344597  0.05499798800774871  1.0000
  H   H4        1.0  0.5787357411653888  0.6282412184365993  0.9316982076338577  1.0000
  H   H5        1.0  0.6665400226859575  0.22463526172510487  0.4128912518721464  1.0000
  H   H6        1.0  0.4889132157191368  0.7535748591860668  0.6297256042660706  1.0000
  H   H7        1.0  0.34035451211027373  0.2767306411488448  0.5693493375443668  1.0000
  H   H8        1.0  0.5313472117416752  0.7508134900143091  0.3619973065133593  1.0000
  H   H9        1.0  0.9460084265560269  0.8642568139688367  0.6344620701441173  1.0000
  H   H10       1.0  0.8170336988889704  0.81215234152598  0.6310471772507853  1.0000
  H   H11       1.0  0.8957450499536962  0.812353048849495  0.7297196181698453  1.0000
  H   H12       1.0  0.8557915074293163  0.5772642727895629  0.5040570777466513  1.0000
  H   H13       1.0  0.9654124073186169  0.6393312893291351  0.6606802097039549  1.0000
  H   H14       1.0  0.09486034501470186  0.6895710250061882  0.6627121756917733  1.0000
  H   H15       1.0  0.06738450276374414  0.7387846882762189  0.5082450320808576  1.0000
  H   H16       1.0  0.9288792066637654  0.6982704414480027  0.5058429499336299  1.0000
  H   H17       1.0  0.993573359313004  0.11307758112035772  0.5554411219842808  1.0000
  H   H18       1.0  0.1342000976587912  0.1453629277636566  0.5747000166172924  1.0000
  H   H19       1.0  0.03647976769916988  0.12683442436554063  0.6638210803984493  1.0000
  H   H20       1.0  0.0005485340286313085  0.3132996253410383  0.640710689437249  1.0000
  H   H21       1.0  0.8610587803753943  0.28070606989837193  0.6198441860604194  1.0000
  H   H22       1.0  0.9192923369535322  0.268820813906764  0.4606041975888005  1.0000
  H   H23       1.0  0.36862902961630795  0.08994746506243699  0.580240741118665  1.0000
  H   H24       1.0  0.05676494648357526  0.3051121836202811  0.4815302742538209  1.0000
  H   H25       1.0  0.7800428990681709  0.0702553214805945  0.3718613996187656  1.0000
  H   H26       1.0  0.9103056069577845  0.915451698704729  0.399358937787298  1.0000
  H   H27       1.0  0.7852648219213733  0.872868424262748  0.4440612111790045  1.0000
  H   H28       1.0  0.8499229316233678  0.9521160722458077  0.5073248253617991  1.0000
  H   H29       1.0  0.5153610931142083  0.8800070544522283  0.7107666802547996  1.0000
  H   H30       1.0  0.6310919994687507  0.9771086419305064  0.7555527674406478  1.0000
  H   H31       1.0  0.5381757855941771  0.07584304767770787  0.6900905251412865  1.0000
  H   H32       1.0  0.6813495198830424  0.9901913405877849  0.6464033072584102  1.0000
  H   H33       1.0  0.5654117238121045  0.9232361533710859  0.3631601566446392  1.0000
  H   H34       1.0  0.4432239514758224  0.6626548290380254  0.05360925657578262  1.0000
  H   H35       1.0  0.44150008913454997  0.36793143095789577  0.9384049514377397  1.0000
  H   H36       1.0  0.4404293175853624  0.6654333300929451  0.21543443187105285  1.0000
  H   H37       1.0  0.43539178207352347  0.3697140407883736  0.7765678022325845  1.0000
  H   H38       1.0  0.5703238518389854  0.3416866970414532  0.21705410195146166  1.0000
  C   C1        1.0  0.5015654497908599  0.50548299952505  0.32388222404394185  1.0000
  C   C2        1.0  0.5298831130198067  0.7932325821500541  0.4218468059838402  1.0000
  C   C3        1.0  0.4373313172808508  0.11740219598878099  0.5428504776721114  1.0000
  C   C4        1.0  0.5498462205927551  0.8872374507583344  0.42377324317053683  1.0000
  C   C5        1.0  0.5413888883168312  0.04699225669737222  0.5002340228736415  1.0000
  C   C6        1.0  0.5454431223516991  0.939457893709239  0.5026794935091985  1.0000
  C   C7        1.0  0.7389295313147599  0.44551297928930467  0.49675358611847303  1.0000
  C   C8        1.0  0.2449258953051938  0.5583074084644438  0.5029061121291747  1.0000
  C   C9        1.0  0.8800840238396146  0.42271428997861454  0.5005103756519134  1.0000
  C   C10       1.0  0.10392589204178648  0.5785802181582013  0.5114609232247602  1.0000
  C   C11       1.0  0.9268807860499564  0.50306923897098  0.503096250955835  1.0000
  C   C12       1.0  0.49101355261902313  0.5044696247614909  0.666551384845171  1.0000
  C   C13       1.0  0.05821319039514354  0.49829664057307343  0.5018024537064534  1.0000
  C   C14       1.0  0.47348885427417997  0.5919828567763191  0.0891461439904404  1.0000
  C   C15       1.0  0.4710841335939903  0.42496708175859504  0.9016769704907548  1.0000
  C   C16       1.0  0.4710997983219869  0.593963601557995  0.17954316820167554  1.0000
  C   C17       1.0  0.4663147207867196  0.4261264498816573  0.811441138531656  1.0000
  C   C18       1.0  0.5057097932950612  0.5037489764796774  0.2262438739614794  1.0000
  C   C19       1.0  0.4989030396904539  0.5014451726270579  0.7636592317184068  1.0000
  C   C20       1.0  0.543032721238788  0.41153649601196923  0.18036422585421263  1.0000
  C   C21       1.0  0.5390592245869712  0.5741313736924951  0.8079773966771102  1.0000
  C   C22       1.0  0.5452527034628574  0.4095380090181067  0.08994345955224502  1.0000
  C   C23       1.0  0.5102243246502526  0.49977569327169397  0.0426141125762385  1.0000
  C   C24       1.0  0.544749584331143  0.5725687720553622  0.8980602316560536  1.0000
  C   C25       1.0  0.022403187328144718  0.6835633816099431  0.534767242645728  1.0000
  C   C26       1.0  0.0021343815998448616  0.6993428279091418  0.6339509127740683  1.0000
  C   C27       1.0  0.9103399874883564  0.802696337667399  0.6587903612815468  1.0000
  C   C28       1.0  0.9583249074711446  0.31387826624767723  0.5044912578327185  1.0000
  C   C29       1.0  0.9597411562599376  0.2697920147919746  0.5964152083443254  1.0000
  C   C30       1.0  0.03501422756351503  0.15782257402954505  0.5979691861989451  1.0000
  C   C31       1.0  0.8236816418929819  0.9372465733389324  0.4412695571586483  1.0000
  C   C32       1.0  0.5978245694895107  0.9965007233247647  0.6897481628355706  1.0000
  C   C33       1.0  0.5094702532361736  0.49860633199560317  0.9467441264056546  1.0000
  C   C34       1.0  0.6278061773425493  0.0850481990902239  0.4506891336453052  1.0000
  C   C35       1.0  0.5282824031319392  0.8896253693877797  0.5807104951603749  1.0000
  C   C36       1.0  0.6020283546481195  0.19072857140093905  0.4483874861608826  1.0000
  C   C37       1.0  0.5058201307372344  0.7949364046588698  0.5722671144440312  1.0000
  C   C38       1.0  0.41969959116973843  0.2203387819534157  0.5367881178348386  1.0000
  N   N1        1.0  0.5026125740378616  0.255494557871053  0.48985178638525184  1.0000
  N   N2        1.0  0.5050621270275927  0.7495559382508932  0.49610194287325277  1.0000
  N   N3        1.0  0.7344913136836413  0.0262412333446562  0.4039770446751875  1.0000
  N   N4        1.0  0.5296849873549971  0.9267608339904783  0.6635371132461929  1.0000
  O   O1        1.0  0.46975661742798985  0.5918966761908564  0.3617068115184523  1.0000
  O   O2        1.0  0.47532299890256996  0.427534585119801  0.6288266600953847  1.0000
  O   O3        1.0  0.5296770511908021  0.42043103689388767  0.3616309027758149  1.0000
  O   O4        1.0  0.5007925681993228  0.5840900998811805  0.6291691544657142  1.0000
  O   O5        1.0  0.674127003552279  0.5364024207142747  0.4827363607093745  1.0000
  O   O6        1.0  0.3113721959595707  0.467855275896163  0.4841389702873685  1.0000
  O   O7        1.0  0.6929835580353085  0.3715501012736908  0.5072666193638113  1.0000
  O   O8        1.0  0.28942478464816185  0.6324449904352817  0.5141906778651446  1.0000
