data_image0
_chemical_formula_structural       Cu6H72C102N12O18
_chemical_formula_sum              "Cu6 H72 C102 N12 O18"
_cell_length_a       10.542781082270102
_cell_length_b       19.13820347220013
_cell_length_c       19.139450344997478
_cell_angle_alpha    116.70751005137903
_cell_angle_beta     100.56523027234546
_cell_angle_gamma    100.5761458307633

_space_group_name_H-M_alt    "P 1"
_space_group_IT_number       1

loop_
  _space_group_symop_operation_xyz
  'x, y, z'

loop_
  _atom_site_type_symbol
  _atom_site_label
  _atom_site_symmetry_multiplicity
  _atom_site_fract_x
  _atom_site_fract_y
  _atom_site_fract_z
  _atom_site_occupancy
  Cu  Cu1       1.0  0.9510665630045663  0.7689024228356228  0.4021323899335411  1.0000
  Cu  Cu2       1.0  0.5487545202518262  0.5976078585422613  0.36657086156940716  1.0000
  Cu  Cu3       1.0  0.18233312647589628  0.633318173988563  0.23112617075100414  1.0000
  Cu  Cu4       1.0  0.4512472770164706  0.4023932337401631  0.6334320095270625  1.0000
  Cu  Cu5       1.0  0.8176648101886101  0.36668291858001106  0.7688768303206782  1.0000
  Cu  Cu6       1.0  0.048935899985309554  0.23109805581646  0.5978671383991309  1.0000
  H   H1        1.0  0.5902857655133076  0.2819088066306534  0.6155265542493564  1.0000
  H   H2        1.0  0.9745233038242702  0.3843166438974777  0.6663670866075078  1.0000
  H   H3        1.0  0.3086568293650132  0.33379904920136727  0.7180139860617059  1.0000
  H   H4        1.0  0.0254840292471101  0.6156819930901491  0.3336315874557769  1.0000
  H   H5        1.0  0.6913372593920569  0.6662020439681695  0.28198392160298597  1.0000
  H   H6        1.0  0.4097086682695448  0.7180910588224022  0.38447344954674617  1.0000
  H   H7        1.0  0.4096972396761274  0.14803176771120968  0.5314800662609328  1.0000
  H   H8        1.0  0.877836823948094  0.46833410016810717  0.616512854180847  1.0000
  H   H9        1.0  0.261083025068359  0.38351704899964983  0.8516948908417772  1.0000
  H   H10       1.0  0.12216918656760359  0.531665764300584  0.3834888490424858  1.0000
  H   H11       1.0  0.7389108003334569  0.6164815890996775  0.14830240995098612  1.0000
  H   H12       1.0  0.5903004463294932  0.8519668701019751  0.4685171045566106  1.0000
  H   H13       1.0  0.5808282432503518  0.07574420059606977  0.7023103548713434  1.0000
  H   H14       1.0  0.8790140831283607  0.2976762552760803  0.3734995139771724  1.0000
  H   H15       1.0  0.5057139795315421  0.6265632458886542  0.9245422168751244  1.0000
  H   H16       1.0  0.12098355569380462  0.70232422377304  0.6264995239017422  1.0000
  H   H17       1.0  0.4942843135854743  0.3734366192467817  0.0754581792839772  1.0000
  H   H18       1.0  0.4191717276052172  0.9242532095936794  0.29768492955334847  1.0000
  H   H19       1.0  0.7574144081603078  0.21261546083689342  0.7780371655870791  1.0000
  H   H20       1.0  0.9798059867762489  0.22192912505930448  0.43466802766057805  1.0000
  H   H21       1.0  0.5460802188272992  0.5655161823140487  0.7878100854462101  1.0000
  H   H22       1.0  0.020192359872396495  0.7780688989976028  0.5653278897460579  1.0000
  H   H23       1.0  0.453915487788521  0.43448429683091655  0.21218980092764633  1.0000
  H   H24       1.0  0.24258327657567233  0.7873831769448072  0.22196052756869014  1.0000
  H   H25       1.0  0.2720690055557781  0.8213504371559067  0.5102762936658322  1.0000
  H   H26       1.0  0.7621628845715873  0.48948897726441476  0.3109553961482303  1.0000
  H   H27       1.0  0.45121094987688065  0.6887732398891372  0.17859089612893075  1.0000
  H   H28       1.0  0.23783804349969984  0.5105084326570336  0.6890431203965333  1.0000
  H   H29       1.0  0.5487905074441812  0.3112290802356981  0.8214077894832454  1.0000
  H   H30       1.0  0.7279277105377489  0.17864820061075193  0.4897228684138496  1.0000
  H   H31       1.0  0.47163122851659983  0.9457581743509494  0.5886935464225971  1.0000
  H   H32       1.0  0.8832902304987583  0.411118516845761  0.3571080455420414  1.0000
  H   H33       1.0  0.5258542388738762  0.642681924775161  0.05392932355159281  1.0000
  H   H34       1.0  0.1167122720567448  0.5888801203814963  0.6428927497585873  1.0000
  H   H35       1.0  0.4741483095954351  0.3573148711846699  0.9460701270258977  1.0000
  H   H36       1.0  0.5283661456806854  0.05423984959647039  0.4113054069226079  1.0000
  H   H37       1.0  0.2189064013779571  0.07766174454782522  0.5272711181936528  1.0000
  H   H38       1.0  0.6913708938351206  0.4725297086867072  0.550188038160037  1.0000
  H   H39       1.0  0.1405838639548378  0.45002888909452565  0.9223347235344118  1.0000
  H   H40       1.0  0.3086305584073941  0.5274726113121985  0.44981273680502176  1.0000
  H   H41       1.0  0.8594147333526934  0.5499715897177777  0.07766702412636303  1.0000
  H   H42       1.0  0.7810922494611957  0.9223368931859495  0.4727261507146421  1.0000
  H   H43       1.0  0.03233582788506329  0.9448746152769018  0.4469480128862741  1.0000
  H   H44       1.0  0.5854525980804296  0.5529850224620176  0.497729315818276  1.0000
  H   H45       1.0  0.08750764169413121  0.5023666572793033  0.055408594505678456  1.0000
  H   H46       1.0  0.41454890261517346  0.44701545633243694  0.5022690697471999  1.0000
  H   H47       1.0  0.9124944623039609  0.49763504874295716  0.9445945834160125  1.0000
  H   H48       1.0  0.9676634326047591  0.05512524984209219  0.5530514366871342  1.0000
  H   H49       1.0  0.3916022135696266  0.7149117732894792  0.5781545971532364  1.0000
  H   H50       1.0  0.813775930570479  0.4214560423293248  0.13656882187175506  1.0000
  H   H51       1.0  0.6768488907375881  0.8632569891716456  0.28482692724732306  1.0000
  H   H52       1.0  0.18622165852897146  0.5785462778927695  0.8634331277449616  1.0000
  H   H53       1.0  0.3231522994193128  0.13674287578852784  0.7151727185075882  1.0000
  H   H54       1.0  0.6084015133657559  0.28508931883413174  0.4218484701247362  1.0000
  H   H55       1.0  0.4811910501789569  0.8560441896870046  0.6978672046757451  1.0000
  H   H56       1.0  0.783778752441087  0.3018413946925804  0.15815941609567113  1.0000
  H   H57       1.0  0.6252082765035637  0.8416809136203297  0.14361964392941215  1.0000
  H   H58       1.0  0.21622076505580162  0.6981609253392093  0.8418432520407745  1.0000
  H   H59       1.0  0.3747932650272999  0.1583177237807831  0.856379486265801  1.0000
  H   H60       1.0  0.5188120224615815  0.1439575163502909  0.3021345043220406  1.0000
  H   H61       1.0  0.7007710659064087  0.9508727533656793  0.7173682748541804  1.0000
  H   H62       1.0  0.9838296523226829  0.28244757624775463  0.23363588405391764  1.0000
  H   H63       1.0  0.7500233778441582  0.7663550740629715  0.0487878948696121  1.0000
  H   H64       1.0  0.01617052835650404  0.7175541300907327  0.7663644859951686  1.0000
  H   H65       1.0  0.2499810569176972  0.23364356306843348  0.9512120519360818  1.0000
  H   H66       1.0  0.2992326648378807  0.049128338852383976  0.2826332254091283  1.0000
  H   H67       1.0  0.822558039730545  0.9009638136901259  0.6129226880694246  1.0000
  H   H68       1.0  0.2100050908606831  0.3868350693424956  0.2879694980736429  1.0000
  H   H69       1.0  0.9217846721471117  0.7119247677957502  0.09873315511642733  1.0000
  H   H70       1.0  0.7899944317147529  0.6131672508152234  0.7120310807099128  1.0000
  H   H71       1.0  0.07821909943244522  0.2880744830289643  0.9012690897766259  1.0000
  H   H72       1.0  0.17744472491056476  0.09903727857586378  0.38707923644135167  1.0000
  C   C1        1.0  0.5844259044175573  0.23424932032781948  0.632200321938498  1.0000
  C   C2        1.0  0.9520594048840962  0.36766420657188087  0.6020505132253146  1.0000
  C   C3        1.0  0.35036015545133375  0.3980964461715501  0.765731974445053  1.0000
  C   C4        1.0  0.047945997250572164  0.6323344305430821  0.39794848699468577  1.0000
  C   C5        1.0  0.6496352482436052  0.6019034193280318  0.23426603808891128  1.0000
  C   C6        1.0  0.4155694980077484  0.7657505451402782  0.3677982129336853  1.0000
  C   C7        1.0  0.4829062268803668  0.1596877902978164  0.5864646241116345  1.0000
  C   C8        1.0  0.8962192658480886  0.4133723912020173  0.5732063891480478  1.0000
  C   C9        1.0  0.32294713564076705  0.4268607562236965  0.8401679867819635  1.0000
  C   C10       1.0  0.1037864404770942  0.5866268595898131  0.42679396257361885  1.0000
  C   C11       1.0  0.6770489261579157  0.5731384954566464  0.15982981701752416  1.0000
  C   C12       1.0  0.517090802291129  0.8403114613660845  0.4135322331021667  1.0000
  C   C13       1.0  0.4764225208542783  0.10026662564356309  0.6104190753650584  1.0000
  C   C14       1.0  0.8660316703240339  0.38946433744933256  0.48985685463216544  1.0000
  C   C15       1.0  0.3759565614103053  0.5102034561203651  0.8996465960559231  1.0000
  C   C16       1.0  0.13397048339677298  0.6105355273999606  0.5101434115517235  1.0000
  C   C17       1.0  0.6240414262465563  0.489795795306719  0.10035297093973129  1.0000
  C   C18       1.0  0.5235751651513353  0.8997320121696218  0.38957809545248495  1.0000
  C   C19       1.0  0.578905750956892  0.11905842758940818  0.680070157665227  1.0000
  C   C20       1.0  0.8990909828407253  0.3198706361759847  0.43903239242631986  1.0000
  C   C21       1.0  0.46025164506833244  0.5610554991153407  0.8810996626602045  1.0000
  C   C22       1.0  0.10090955302133854  0.6801298426978731  0.5609658950483974  1.0000
  C   C23       1.0  0.5397447171119651  0.4389443661474175  0.11890105965562013  1.0000
  C   C24       1.0  0.4210935592556523  0.8809395963566118  0.31992638017037917  1.0000
  C   C25       1.0  0.6773390726868129  0.19525608573785289  0.7230808863758394  1.0000
  C   C26       1.0  0.9545074206483761  0.2768591771952841  0.4722363608416058  1.0000
  C   C27       1.0  0.4828678338128824  0.5279288945011658  0.8049972839966839  1.0000
  C   C28       1.0  0.04549250302374473  0.7231400742303934  0.5277607906444429  1.0000
  C   C29       1.0  0.5171285309066888  0.4720709708245606  0.19500239364269586  1.0000
  C   C30       1.0  0.3226586120491673  0.8047425520438478  0.2769168067799298  1.0000
  C   C31       1.0  0.2643423836749718  0.8794224614636047  0.5151697453246766  1.0000
  C   C32       1.0  0.7494767470197204  0.48466424361478727  0.3641609905507578  1.0000
  C   C33       1.0  0.3851767322439272  0.635693339691663  0.1205528017257294  1.0000
  C   C34       1.0  0.2505260673441113  0.515335007478228  0.6358380222222164  1.0000
  C   C35       1.0  0.6148257294763084  0.36430713892893607  0.8794472489451548  1.0000
  C   C36       1.0  0.7356559107116778  0.12057740370330809  0.484830128496206  1.0000
  C   C37       1.0  0.37601134130052555  0.9496186933425147  0.5596365461731235  1.0000
  C   C38       1.0  0.8166489472091953  0.44021056323621366  0.38996852354419065  1.0000
  C   C39       1.0  0.4263567006757825  0.6099456971044644  0.05023434245727998  1.0000
  C   C40       1.0  0.1833522416780724  0.5597893016924828  0.6100316445489466  1.0000
  C   C41       1.0  0.5736448383158148  0.3900529402336729  0.9497658324143853  1.0000
  C   C42       1.0  0.6239866476259692  0.05038055811605349  0.44036249848431186  1.0000
  C   C43       1.0  0.36336809284563276  0.023162488339707486  0.5642561028449788  1.0000
  C   C44       1.0  0.7992092632818383  0.435610500987053  0.45886309847425355  1.0000
  C   C45       1.0  0.33989377604091686  0.5411699003442648  0.9767233006583209  1.0000
  C   C46       1.0  0.20079253779537248  0.5643905913898237  0.5411382056075523  1.0000
  C   C47       1.0  0.6601067981171411  0.4588287370732828  0.023276776122592883  1.0000
  C   C48       1.0  0.636629899889769  0.9768367632133063  0.43574137479779296  1.0000
  C   C49       1.0  0.23708050414214907  0.021923693440108093  0.5233190774125017  1.0000
  C   C50       1.0  0.7137414277861183  0.4765477187238715  0.4984823230991821  1.0000
  C   C51       1.0  0.21475939093618715  0.5016444398075561  0.9780577308621612  1.0000
  C   C52       1.0  0.28626037456072584  0.5234533736844824  0.5015184586443978  1.0000
  C   C53       1.0  0.7852401712048828  0.49835603892533675  0.02194411488936499  1.0000
  C   C54       1.0  0.7629210411976288  0.9780749440554499  0.47667848576805477  1.0000
  C   C55       1.0  0.13175823649850557  0.9487048588999724  0.48008704046715406  1.0000
  C   C56       1.0  0.6517834022159619  0.5198092926879737  0.4684600799745126  1.0000
  C   C57       1.0  0.1830266341183772  0.5315860699827863  0.05140882529685342  1.0000
  C   C58       1.0  0.3482190620435474  0.48019118599558647  0.5315389260199338  1.0000
  C   C59       1.0  0.816974200855661  0.46841502244200933  0.9485929030324197  1.0000
  C   C60       1.0  0.8682404130710139  0.051293778802317995  0.5199107507793668  1.0000
  C   C61       1.0  0.7526395463584165  0.7597523202689302  0.4769169834551476  1.0000
  C   C62       1.0  0.2758216040842426  0.5228579045788774  0.2828292450064607  1.0000
  C   C63       1.0  0.9929980318447704  0.7171420674196652  0.23997373206373132  1.0000
  C   C64       1.0  0.7241782252209886  0.4771450293186703  0.7171716406023234  1.0000
  C   C65       1.0  0.0069990368923668785  0.2828553428194027  0.7600243921180335  1.0000
  C   C66       1.0  0.24736418438587285  0.2402487719491333  0.5230845168081613  1.0000
  C   C67       1.0  0.6778799786712353  0.7813422673144926  0.5377471059958479  1.0000
  C   C68       1.0  0.14034447520657517  0.46199142909929236  0.24351622417987062  1.0000
  C   C69       1.0  0.8966388689542482  0.7563504969967736  0.2183581177814275  1.0000
  C   C70       1.0  0.8596540799960478  0.5380108910748688  0.7564853011893785  1.0000
  C   C71       1.0  0.10336135256021348  0.24364936794836467  0.7816429968973961  1.0000
  C   C72       1.0  0.3221221712406716  0.21865759744034818  0.4622547272027047  1.0000
  C   C73       1.0  0.5541084488697975  0.7260524755568765  0.5265676107892501  1.0000
  C   C74       1.0  0.027782377019427353  0.47318392832756456  0.1994323112485076  1.0000
  C   C75       1.0  0.8281498843596039  0.8004716141022782  0.273668358199373  1.0000
  C   C76       1.0  0.972215212080023  0.5268183918945225  0.8005696383682088  1.0000
  C   C77       1.0  0.1718513045276637  0.1995282508264111  0.7263318098937642  1.0000
  C   C78       1.0  0.4458936985028359  0.27394738913499583  0.4734352670857474  1.0000
  C   C79       1.0  0.48628062389376225  0.7565699928697001  0.586918608261328  1.0000
  C   C80       1.0  0.8996949294565582  0.41275635800793953  0.16951422448134676  1.0000
  C   C81       1.0  0.7298009536336493  0.8302868045430428  0.24313958920824047  1.0000
  C   C82       1.0  0.10030265710361866  0.5872459621511794  0.830488769811822  1.0000
  C   C83       1.0  0.2702002352536183  0.16971306038565354  0.7568605788848968  1.0000
  C   C84       1.0  0.5137240678751596  0.2434310991745078  0.4130845571073961  1.0000
  C   C85       1.0  0.5372972482220819  0.8354336453471235  0.6535730456233749  1.0000
  C   C86       1.0  0.8841309304941447  0.346128952458777  0.18178147735657282  1.0000
  C   C87       1.0  0.7019431277097327  0.8180321774319239  0.16425319625007273  1.0000
  C   C88       1.0  0.11586762216921191  0.6538733676524233  0.8182210926891214  1.0000
  C   C89       1.0  0.2980587205509194  0.18196707370901777  0.835746240770369  1.0000
  C   C90       1.0  0.4627042448557077  0.16456683325843352  0.3464284739714357  1.0000
  C   C91       1.0  0.6597533283762967  0.888955858361086  0.6645459624550863  1.0000
  C   C92       1.0  0.9956083250679695  0.33518766209272843  0.22438456542805324  1.0000
  C   C93       1.0  0.7709125920136018  0.7754797422789109  0.11072246905818164  1.0000
  C   C94       1.0  0.004391193698566618  0.6648146579705454  0.7756175803701734  1.0000
  C   C95       1.0  0.229090524001478  0.22452012242800376  0.8892789398929037  1.0000
  C   C96       1.0  0.3402481647014852  0.11104462024447767  0.335455557139717  1.0000
  C   C97       1.0  0.7279733182901893  0.8611240556049111  0.6069154435986872  1.0000
  C   C98       1.0  0.12139017312500033  0.3928018429565227  0.25412968878966774  1.0000
  C   C99       1.0  0.8669912993380109  0.7457262649707417  0.1385704577379984  1.0000
  C   C100      1.0  0.878609041451014  0.6071998634298835  0.7458711055068928  1.0000
  C   C101      1.0  0.1330105425744676  0.25427298601278636  0.8614315909735519  1.0000
  C   C102      1.0  0.2720301057243191  0.1388764228733166  0.39308574983940037  1.0000
  N   N1        1.0  0.6797190629673723  0.2526661239737535  0.7003864164815565  1.0000
  N   N2        1.0  0.9793649519555245  0.2995132651402487  0.5523081794068431  1.0000
  N   N3        1.0  0.42763829223398625  0.44788532142295867  0.7474887489204884  1.0000
  N   N4        1.0  0.020637863677940425  0.7004859859842439  0.4476903110279052  1.0000
  N   N5        1.0  0.5723586846755281  0.5521157713509481  0.25251206470755955  1.0000
  N   N6        1.0  0.32027730429147266  0.747333741414934  0.2996122164813854  1.0000
  N   N7        1.0  0.14401609020852377  0.8784384379681496  0.4760161460832817  1.0000
  N   N8        1.0  0.6682491223647488  0.5238556339631018  0.40227847110767084  1.0000
  N   N9        1.0  0.2658803316459597  0.5976233379477166  0.12167062401108811  1.0000
  N   N10       1.0  0.3317530326256985  0.47614423091766855  0.5977212727379919  1.0000
  N   N11       1.0  0.7341208125971405  0.40237836827988355  0.8783303664669685  1.0000
  N   N12       1.0  0.8559818999876113  0.12156081352189568  0.5239823762359349  1.0000
  O   O1        1.0  0.8646826990373595  0.8121247937230577  0.4929442956630438  1.0000
  O   O2        1.0  0.37183013076314336  0.5068004593204946  0.31915959657435866  1.0000
  O   O3        1.0  0.05280735836466012  0.6808103666298349  0.18765009107631403  1.0000
  O   O4        1.0  0.628170968835775  0.4932030882059946  0.6808422162886242  1.0000
  O   O5        1.0  0.9471887455389306  0.3191870436886433  0.812347935014699  1.0000
  O   O6        1.0  0.13532072624678188  0.18787568478665406  0.507056375436825  1.0000
  O   O7        1.0  0.7088192646874631  0.6917233163712594  0.40848334831742494  1.0000
  O   O8        1.0  0.3003888388479723  0.5913491353720842  0.2833285993769151  1.0000
  O   O9        1.0  0.017093172067809793  0.7167507096893003  0.30801343093290967  1.0000
  O   O10       1.0  0.6996087553300185  0.40865318497593256  0.7166712608869187  1.0000
  O   O11       1.0  0.9829084128376022  0.28324608638142473  0.6919853992156104  1.0000
  O   O12       1.0  0.29118222965995955  0.3082771622657816  0.5915176489391597  1.0000
  O   O13       1.0  0.4975685473672085  0.6503799445731598  0.46570895712363813  1.0000
  O   O14       1.0  0.032037146183256454  0.5341416107396596  0.1847648863672758  1.0000
  O   O15       1.0  0.8472882588412887  0.8153276916650538  0.34935915158840186  1.0000
  O   O16       1.0  0.9679585132491082  0.4658607096412409  0.8152368670679376  1.0000
  O   O17       1.0  0.152713235506134  0.18467278697199419  0.6506418456681755  1.0000
  O   O18       1.0  0.5024358351326513  0.34962053366825063  0.5342949460963096  1.0000
