data_image0
_chemical_formula_structural       Zn4H28C52N4O16
_chemical_formula_sum              "Zn4 H28 C52 N4 O16"
_cell_length_a       8.002273040791515
_cell_length_b       11.748351179336913
_cell_length_c       14.574830940760869
_cell_angle_alpha    78.89160366901933
_cell_angle_beta     74.08214552690177
_cell_angle_gamma    70.11062115697968

_space_group_name_H-M_alt    "P 1"
_space_group_IT_number       1

loop_
  _space_group_symop_operation_xyz
  'x, y, z'

loop_
  _atom_site_type_symbol
  _atom_site_label
  _atom_site_symmetry_multiplicity
  _atom_site_fract_x
  _atom_site_fract_y
  _atom_site_fract_z
  _atom_site_occupancy
  Zn  Zn1       1.0  0.8413109298706228  0.8108434840499187  0.6686724995998006  1.0000
  Zn  Zn2       1.0  0.32073654960388587  0.6892218430742929  0.8313797888766246  1.0000
  Zn  Zn3       1.0  0.1586895384588374  0.18915969915215672  0.3313270577575195  1.0000
  Zn  Zn4       1.0  0.6792661704530688  0.31077405744284897  0.1686201425392824  1.0000
  H   H1        1.0  0.7056616417192385  0.7091476309243205  0.4284219643505551  1.0000
  H   H2        1.0  0.8437336450218355  0.7910283669912133  0.07172750166463973  1.0000
  H   H3        1.0  0.294336354401473  0.2908555365533161  0.5715787676414337  1.0000
  H   H4        1.0  0.15626329278608622  0.20896842425010934  0.9282738233230958  1.0000
  H   H5        1.0  0.6871958305396147  0.5770870265141  0.3177691242099172  1.0000
  H   H6        1.0  0.582570764511736  0.922977880049892  0.18231130329181153  1.0000
  H   H7        1.0  0.31279691292094475  0.42291977025100636  0.6822322985048145  1.0000
  H   H8        1.0  0.4174272763546295  0.0770189087451385  0.8176902196176812  1.0000
  H   H9        1.0  0.8058480476105739  0.4017409058980236  0.6397530771109531  1.0000
  H   H10       1.0  0.8469606416710178  0.09828172069482122  0.8601239245157828  1.0000
  H   H11       1.0  0.1941501043613697  0.5982586329919428  0.360246858749484  1.0000
  H   H12       1.0  0.15303671462019242  0.9017150590148473  0.13987828467193  1.0000
  H   H13       1.0  0.6011151766977604  0.21481329248761935  0.4694622570052402  1.0000
  H   H14       1.0  0.2854279145376069  0.2850441014002172  0.030629297394085597  1.0000
  H   H15       1.0  0.39888555685861615  0.785190810441229  0.5305365425763214  1.0000
  H   H16       1.0  0.714573281382755  0.7149545104241212  0.9693719900073816  1.0000
  H   H17       1.0  0.6487129249335271  0.9958121278762418  0.5296892475243453  1.0000
  H   H18       1.0  0.17406202551891403  0.5039655836751535  0.9704513190212722  1.0000
  H   H19       1.0  0.3512873901395679  0.004191986584260099  0.4703086678572461  1.0000
  H   H20       1.0  0.8259362805743677  0.4960321248466498  0.029549446112461908  1.0000
  H   H21       1.0  0.013774610932195118  0.9932983631451505  0.6848266383846066  1.0000
  H   H22       1.0  0.6911919906479087  0.5067950001612475  0.8148780375003  1.0000
  H   H23       1.0  0.9862258591271739  0.006703021837424199  0.3151712935678574  1.0000
  H   H24       1.0  0.308811567240582  0.4931999781828365  0.18512284961312991  1.0000
  H   H25       1.0  0.9948169896278786  0.21019475498644627  0.6240272661749842  1.0000
  H   H26       1.0  0.8285402510058973  0.28991007485243603  0.8754827404117194  1.0000
  H   H27       1.0  0.005185001973224183  0.7898066160181898  0.3759717478992073  1.0000
  H   H28       1.0  0.1714608346738372  0.7100848877672092  0.12451932133638619  1.0000
  C   C1        1.0  0.7882993780782073  0.6352954646197729  0.6046608098350035  1.0000
  C   C2        1.0  0.02829187229331569  0.8648974414241624  0.8953210078017264  1.0000
  C   C3        1.0  0.21169835281559563  0.3647067831310976  0.395340679932751  1.0000
  C   C4        1.0  0.9717108486285896  0.13509755998322956  0.10467811091175605  1.0000
  C   C5        1.0  0.7613534041188641  0.5616378485348933  0.5398770766778327  1.0000
  C   C6        1.0  0.8628672696493287  0.9384304085758258  0.9600862326496227  1.0000
  C   C7        1.0  0.2386439082916496  0.4383644107476385  0.46012352888994457  1.0000
  C   C8        1.0  0.13713560366399946  0.061564560682896306  0.03991534074202008  1.0000
  C   C9        1.0  0.7236260218067443  0.6124685792368539  0.44996473954930843  1.0000
  C   C10       1.0  0.7863289591403345  0.8876444481470145  0.05007496887991185  1.0000
  C   C11       1.0  0.2763697673321346  0.3875354922431171  0.5500364093015975  1.0000
  C   C12       1.0  0.21367170719115355  0.11235142511403502  0.9499270213706481  1.0000
  C   C13       1.0  0.713305685649985  0.5390368029102248  0.38866609318973394  1.0000
  C   C14       1.0  0.6412622241455636  0.9610103073726253  0.11134680162880528  1.0000
  C   C15       1.0  0.2866907880640425  0.4609672776551079  0.611334369382959  1.0000
  C   C16       1.0  0.35873691977923994  0.038986478976113396  0.8886549192024447  1.0000
  C   C17       1.0  0.7452913869573197  0.41373536563057206  0.4146873156129018  1.0000
  C   C18       1.0  0.5737466184164431  0.0862655985322718  0.08524909399449847  1.0000
  C   C19       1.0  0.25470755983041443  0.5862678315494421  0.5853111596226839  1.0000
  C   C20       1.0  0.4262529448566069  0.9137302771750626  0.9147526983342971  1.0000
  C   C21       1.0  0.7761617122634732  0.36206755536598934  0.5068281565308084  1.0000
  C   C22       1.0  0.6449644806857007  0.1379264382331371  0.993077729708382  1.0000
  C   C23       1.0  0.22384122913970084  0.6379347444507746  0.4931694134894116  1.0000
  C   C24       1.0  0.35503728783928057  0.8620703316913847  0.006925271166359377  1.0000
  C   C25       1.0  0.7833909336629862  0.43788005618008435  0.5679654791461529  1.0000
  C   C26       1.0  0.7890487652835176  0.062146850260376106  0.9319449478101092  1.0000
  C   C27       1.0  0.2166125812097519  0.5621195026271053  0.43203299164490966  1.0000
  C   C28       1.0  0.21095505696693098  0.937849946920231  0.06805599422998652  1.0000
  C   C29       1.0  0.7633488340514845  0.3396134112665834  0.3376170815988501  1.0000
  C   C30       1.0  0.4406790042420639  0.1603018789778545  0.1623377661484184  1.0000
  C   C31       1.0  0.23665079644644732  0.6603906941085498  0.6623815200609542  1.0000
  C   C32       1.0  0.559321507103142  0.8396967237611223  0.8376642075312617  1.0000
  C   C33       1.0  0.7958426239240809  0.2325437073181149  0.5411398117193684  1.0000
  C   C34       1.0  0.5693590298568979  0.2674003999601736  0.9587392597466504  1.0000
  C   C35       1.0  0.2041621059776375  0.7674577000279683  0.45885645724196417  1.0000
  C   C36       1.0  0.43064053168625066  0.7325972739666684  0.0412641579870012  1.0000
  C   C37       1.0  0.6972369241884453  0.1697026826896533  0.5152292775201275  1.0000
  C   C38       1.0  0.3820959670360719  0.3301743522735022  0.9847680095276843  1.0000
  C   C39       1.0  0.3027673863650332  0.8302996352978411  0.4847669199436595  1.0000
  C   C40       1.0  0.6179031768887384  0.6698224340752362  0.015233711303572803  1.0000
  C   C41       1.0  0.7209470728617119  0.04791850140770749  0.5493482859189954  1.0000
  C   C42       1.0  0.31803226135701795  0.4519616685351122  0.9507616097936945  1.0000
  C   C43       1.0  0.2790562870247439  0.9520837868774026  0.45065016830119475  1.0000
  C   C44       1.0  0.6819663099631725  0.5480369597134498  0.04923839756428803  1.0000
  C   C45       1.0  0.9266446104538062  0.04579178396637928  0.6354916607328107  1.0000
  C   C46       1.0  0.6073842336990296  0.4542317676681548  0.8642827884026403  1.0000
  C   C47       1.0  0.07335654331576769  0.9542105092113077  0.36450639764386483  1.0000
  C   C48       1.0  0.3926182211310092  0.5457632131222211  0.1357179007890323  1.0000
  C   C49       1.0  0.9120161581463577  0.16720508722283972  0.6030387669548247  1.0000
  C   C50       1.0  0.6818585572607107  0.3328350207782692  0.8967078216558022  1.0000
  C   C51       1.0  0.08798746783196514  0.8327972216792858  0.39695811678718235  1.0000
  C   C52       1.0  0.31814252841902413  0.6671599418413834  0.10329424009229632  1.0000
  N   N1        1.0  0.8335547115199803  0.986533597849558  0.6082060190177144  1.0000
  N   N2        1.0  0.4278702922740436  0.5134287679773024  0.8917617464071766  1.0000
  N   N3        1.0  0.16644575680948748  0.013469585352517303  0.3917935383396056  1.0000
  N   N4        1.0  0.5721299555741622  0.486567116815408  0.10823935964340592  1.0000
  O   O1        1.0  0.8459920972380885  0.5850253228923847  0.678588599582788  1.0000
  O   O2        1.0  0.10961635816563116  0.9152877768117664  0.8214848266136556  1.0000
  O   O3        1.0  0.15400563365571449  0.4149769248584929  0.3214128901849662  1.0000
  O   O4        1.0  0.8903837338313353  0.08471173656860738  0.178517075568486  1.0000
  O   O5        1.0  0.756381982650779  0.7518214128381688  0.5771778387637596  1.0000
  O   O6        1.0  0.08537740329032338  0.748337708013615  0.9227231771216252  1.0000
  O   O7        1.0  0.2436171173933275  0.2481808530834329  0.4228222784475619  1.0000
  O   O8        1.0  0.9146196499479443  0.25165733777387805  0.07727249730490368  1.0000
  O   O9        1.0  0.6327943018762029  0.37292636707760346  0.294613414324381  1.0000
  O   O10       1.0  0.3007178377243989  0.126756255030628  0.2054789627677707  1.0000
  O   O11       1.0  0.36720164311390857  0.627074075814697  0.705386938394966  1.0000
  O   O12       1.0  0.6992809979577503  0.8732441920544574  0.7945210995168779  1.0000
  O   O13       1.0  0.9058452518873639  0.2512747025999289  0.3141536762229507  1.0000
  O   O14       1.0  0.47116475965864185  0.2488406545492268  0.18569818958766862  1.0000
  O   O15       1.0  0.0941595873900311  0.7487312530606046  0.6858426310941823  1.0000
  O   O16       1.0  0.528834495371754  0.7511588818944545  0.8143019441945256  1.0000
