data_image0
_chemical_formula_structural       Mn2H28C32N4O12
_chemical_formula_sum              "Mn2 H28 C32 N4 O12"
_cell_length_a       8.588118698257281
_cell_length_b       8.58812443409646
_cell_length_c       10.741936301248632
_cell_angle_alpha    105.27429100193832
_cell_angle_beta     105.27498113420202
_cell_angle_gamma    93.00931991874397

_space_group_name_H-M_alt    "P 1"
_space_group_IT_number       1

loop_
  _space_group_symop_operation_xyz
  'x, y, z'

loop_
  _atom_site_type_symbol
  _atom_site_label
  _atom_site_symmetry_multiplicity
  _atom_site_fract_x
  _atom_site_fract_y
  _atom_site_fract_z
  _atom_site_occupancy
  Mn  Mn1       1.0  0.9427557097658905  0.0572346380914723  0.2500062414202874  1.0000
  Mn  Mn2       1.0  0.07003582965300834  0.9299405589094077  0.7499742145819184  1.0000
  H   H1        1.0  0.7388996405070571  0.9811462493658284  0.9333356806113999  1.0000
  H   H2        1.0  0.0188584020694336  0.26109023960759714  0.5666806727312377  1.0000
  H   H3        1.0  0.2575081008017861  0.0383066433215475  0.056779484422726484  1.0000
  H   H4        1.0  0.9617202874147139  0.7424025544842933  0.4431169896171028  1.0000
  H   H5        1.0  0.5134389316437691  0.08752493127984448  0.7944075965591465  1.0000
  H   H6        1.0  0.9124824854999218  0.4865422932323824  0.705601480283768  1.0000
  H   H7        1.0  0.4761849628990262  0.934052821607956  0.19976192807719426  1.0000
  H   H8        1.0  0.06603352730471097  0.5237531562311802  0.3001835678696168  1.0000
  H   H9        1.0  0.3828169262874752  0.31495887752489443  0.9101096023357301  1.0000
  H   H10       1.0  0.6850737301468827  0.6171906180616701  0.589904666756432  1.0000
  H   H11       1.0  0.6109980997583192  0.7024790499747126  0.092789072220782  1.0000
  H   H12       1.0  0.2976198051565149  0.388974563035319  0.4072192471049476  1.0000
  H   H13       1.0  0.3724125550990536  0.5118295277216446  0.1262486718577307  1.0000
  H   H14       1.0  0.48821792375795064  0.6276362184591164  0.3737395729430872  1.0000
  H   H15       1.0  0.6216057006340421  0.4969359965786496  0.8731864153744482  1.0000
  H   H16       1.0  0.5031277634635386  0.3784074933056445  0.626866002237847  1.0000
  H   H17       1.0  0.3875805668123107  0.9184530624247601  0.5554885036374984  1.0000
  H   H18       1.0  0.08156639728239407  0.6124365303809965  0.9445491115011322  1.0000
  H   H19       1.0  0.6432227920153365  0.08426206593519939  0.46100089422576923  1.0000
  H   H20       1.0  0.915755561751979  0.3567640983685648  0.039014689824988104  1.0000
  H   H21       1.0  0.08377507259465489  0.1648042672145991  0.08408658015162729  1.0000
  H   H22       1.0  0.8351934454070218  0.9162099926679518  0.41592487060289335  1.0000
  H   H23       1.0  0.9456841271974953  0.82689430499277  0.9170520146281191  1.0000
  H   H24       1.0  0.17308657666178823  0.0542966890409886  0.5829278444974548  1.0000
  H   H25       1.0  0.21425954908334435  0.17340179945326642  0.2312244512868347  1.0000
  H   H26       1.0  0.8265874915254939  0.7857250594181265  0.2687802587689631  1.0000
  H   H27       1.0  0.8109657290683358  0.8285055060788409  0.7741103638199931  1.0000
  H   H28       1.0  0.17149457569319534  0.1890047507859833  0.7258826582154684  1.0000
  C   C1        1.0  0.6822339585655471  0.0811993214901179  0.9807285318555188  1.0000
  C   C2        1.0  0.9188072494339323  0.31776411458411497  0.519286995854678  1.0000
  C   C3        1.0  0.3124496718095529  0.9357260333927684  0.01200266175084149  1.0000
  C   C4        1.0  0.06429195205726754  0.6875134567577631  0.48796122583893015  1.0000
  C   C5        1.0  0.5554971219010342  0.14191913788444308  0.9029159490825265  1.0000
  C   C6        1.0  0.858095153795901  0.44449822729814054  0.5970976114757107  1.0000
  C   C7        1.0  0.43688248095957494  0.8757203667564966  0.091680981459497  1.0000
  C   C8        1.0  0.12432333288262498  0.563083598494508  0.4083052014240209  1.0000
  C   C9        1.0  0.48351411533414523  0.2666659594786367  0.9670473966859348  1.0000
  C   C10       1.0  0.7333535474665994  0.5164947386921241  0.5329680501615641  1.0000
  C   C11       1.0  0.5113721107216236  0.7482232924028762  0.03257155708666908  1.0000
  C   C12       1.0  0.2518388350591394  0.4885944652289211  0.4674460884745244  1.0000
  C   C13       1.0  0.540408395760295  0.33217261758922234  0.10829980634386517  1.0000
  C   C14       1.0  0.6678430548984552  0.4596026035841803  0.39170812163009583  1.0000
  C   C15       1.0  0.45561914392455805  0.6786499319635055  0.8922961303605491  1.0000
  C   C16       1.0  0.321369237016313  0.544369354254144  0.6077176127524169  1.0000
  C   C17       1.0  0.4738264104011378  0.4629066712038465  0.1818600027819812  1.0000
  C   C18       1.0  0.5371154074024602  0.5262044767787585  0.31813469498913344  1.0000
  C   C19       1.0  0.5196160762926779  0.5457145580860183  0.8180936308501999  1.0000
  C   C20       1.0  0.4542993138098482  0.48039595326584106  0.6819271865195944  1.0000
  C   C21       1.0  0.6711714056690781  0.2646863723761327  0.17812115781833876  1.0000
  C   C22       1.0  0.7353272718762797  0.3288414313595496  0.3218870570156014  1.0000
  C   C23       1.0  0.3249979237595113  0.7430181774966229  0.8196933996314257  1.0000
  C   C24       1.0  0.2569571335076617  0.6749601024745643  0.68024988906879  1.0000
  C   C25       1.0  0.3145371883553879  0.0597623725501393  0.4093673983671949  1.0000
  C   C26       1.0  0.940205542260614  0.6854522028921507  0.09064530658341848  1.0000
  C   C27       1.0  0.7148390038320469  0.9480178022905295  0.6110544695225215  1.0000
  C   C28       1.0  0.05200186279451199  0.28514470928153907  0.888954553327558  1.0000
  C   C29       1.0  0.43452882432667644  0.9897578415268601  0.49988878251330254  1.0000
  C   C30       1.0  0.010246156199755755  0.5654644768678095  0.00013584496220887395  1.0000
  C   C31       1.0  0.5961598101305088  0.013559948709996692  0.5168602344946365  1.0000
  C   C32       1.0  0.986473343606633  0.40382596550376343  0.9831629648894092  1.0000
  N   N1        1.0  0.7390042943557517  0.1402071828773899  0.11429229654631705  1.0000
  N   N2        1.0  0.8598031460035854  0.26099418936919244  0.3857142323666167  1.0000
  N   N3        1.0  0.25497430905870994  0.873060111646019  0.8770562408700114  1.0000
  N   N4        1.0  0.12693333491695563  0.7449614151916747  0.6228895270328109  1.0000
  O   O1        1.0  0.1660748049033032  0.0480422297864393  0.4168862499659269  1.0000
  O   O2        1.0  0.9518731646108022  0.8338969951923615  0.08307870015949698  1.0000
  O   O3        1.0  0.8658678982457175  0.966431598387999  0.6095144157011633  1.0000
  O   O4        1.0  0.033582746839044796  0.13412366356718045  0.890502515940689  1.0000
  O   O5        1.0  0.36131864125075447  0.12686504879474816  0.3311790774403036  1.0000
  O   O6        1.0  0.8731339537096475  0.6386551687085955  0.16884990149534937  1.0000
  O   O7        1.0  0.6653505014111616  0.8777669652888064  0.6864531969012475  1.0000
  O   O8        1.0  0.12226524616650639  0.33465928512404725  0.8135662099862842  1.0000
  O   O9        1.0  0.10224195627233712  0.1959288714149068  0.18240412367651973  1.0000
  O   O10       1.0  0.8040531103685992  0.8977499835585689  0.31760066752347166  1.0000
  O   O11       1.0  0.9245388884929966  0.80015466682773  0.8170029906975033  1.0000
  O   O12       1.0  0.19981968334933956  0.07543709028266932  0.6829744340476936  1.0000
