data_image0
_chemical_formula_structural       NiH25C12N4Cl3
_chemical_formula_sum              "Ni1 H25 C12 N4 Cl3"
_cell_length_a       7.3123107275459125
_cell_length_b       7.322401181755891
_cell_length_c       7.2155665005533045
_cell_angle_alpha    91.74824468747677
_cell_angle_beta     91.68093993913145
_cell_angle_gamma    92.4552592577351

_space_group_name_H-M_alt    "P 1"
_space_group_IT_number       1

loop_
  _space_group_symop_operation_xyz
  'x, y, z'

loop_
  _atom_site_type_symbol
  _atom_site_label
  _atom_site_symmetry_multiplicity
  _atom_site_fract_x
  _atom_site_fract_y
  _atom_site_fract_z
  _atom_site_occupancy
  Ni  Ni1       1.0  0.5029213821394692  0.49744667937932247  0.499628130742515  1.0000
  H   H1        1.0  0.45397887845275153  0.8152361329275165  0.7785794890440414  1.0000
  H   H2        1.0  0.7786933073380948  0.4538846739504691  0.819390390822214  1.0000
  H   H3        1.0  0.22142826856998712  0.18249628458765696  0.5495984416789881  1.0000
  H   H4        1.0  0.8179763296067931  0.7786054945223666  0.4503577730376448  1.0000
  H   H5        1.0  0.5464679124491738  0.22131858675855648  0.18033205826230161  1.0000
  H   H6        1.0  0.1845748299019974  0.5457089278452472  0.2213732639448907  1.0000
  H   H7        1.0  0.5802103950371061  0.9323786829514373  0.6069668097259111  1.0000
  H   H8        1.0  0.6081725871242439  0.576331380162422  0.9374988451948383  1.0000
  H   H9        1.0  0.39021895345138796  0.0655398926512802  0.4233127335700927  1.0000
  H   H10       1.0  0.9349973912697322  0.6099427973224604  0.5763442871076805  1.0000
  H   H11       1.0  0.4239675283141224  0.3915195882918496  0.06222127206707739  1.0000
  H   H12       1.0  0.06737435432073369  0.41985212939565736  0.3931735114491275  1.0000
  H   H13       1.0  0.7149277052699787  0.10866568883307791  0.8542220943371177  1.0000
  H   H14       1.0  0.8523259697740925  0.7142467231757549  0.11548243838771548  1.0000
  H   H15       1.0  0.14518522968805309  0.8902029419227729  0.2868871366869925  1.0000
  H   H16       1.0  0.11047522256613719  0.8546512622858344  0.7130820353126879  1.0000
  H   H17       1.0  0.28586513101359395  0.14761261423130628  0.884387994342326  1.0000
  H   H18       1.0  0.8907795610726053  0.2850029768996265  0.1460011440328159  1.0000
  H   H19       1.0  0.6479888861553461  0.9460108048901646  0.023936156065474296  1.0000
  H   H20       1.0  0.019917238963394392  0.6498039853964668  0.9511049736989108  1.0000
  H   H21       1.0  0.9788752871072429  0.052185295983584006  0.35343954901235713  1.0000
  H   H22       1.0  0.9483128566445487  0.02074040138666079  0.6467651818088456  1.0000
  H   H23       1.0  0.3502793656488307  0.9803743431823548  0.04871928759541078  1.0000
  H   H24       1.0  0.053662975404883184  0.35172507192995534  0.976177430823249  1.0000
  H   H25       1.0  0.9997850404888523  0.00011243739852060049  0.9999985345343347  1.0000
  C   C1        1.0  0.5916594327694042  0.853533571764231  0.7330957271870275  1.0000
  C   C2        1.0  0.732859023908695  0.5902581021469048  0.8575109249305797  1.0000
  C   C3        1.0  0.26685863520931724  0.14478737332444067  0.41070673423787696  1.0000
  C   C4        1.0  0.8556454774813885  0.7331444896257934  0.5891735765112287  1.0000
  C   C5        1.0  0.4099665860241046  0.2671378807924043  0.1422548020128644  1.0000
  C   C6        1.0  0.14627104842805488  0.40825874148493563  0.2668927292800163  1.0000
  C   C7        1.0  0.704995269258454  0.9628884282183918  0.8859952437930616  1.0000
  C   C8        1.0  0.8837659928504564  0.7050203346432796  0.9677246119966298  1.0000
  C   C9        1.0  0.1149782869037423  0.0357617673337671  0.29617576903363835  1.0000
  C   C10       1.0  0.9647278359206337  0.8848191730225279  0.703840483739647  1.0000
  C   C11       1.0  0.29505522697451175  0.1163144378058973  0.0321496098764555  1.0000
  C   C12       1.0  0.036785892307506195  0.2948835812356733  0.11413017114118419  1.0000
  N   N1        1.0  0.6839374978082589  0.6824480495477445  0.6835405011241918  1.0000
  N   N2        1.0  0.31759909364910743  0.3161934283619345  0.3162828978993559  1.0000
  N   N3        1.0  0.8931167550160806  0.8929865611364106  0.8947885503791682  1.0000
  N   N4        1.0  0.10680432934527317  0.1070624147281407  0.1052347517428913  1.0000
  Cl  Cl1       1.0  0.7229844735726657  0.27597389435857167  0.5012318081651586  1.0000
  Cl  Cl2       1.0  0.48781697953078407  0.7259574530156028  0.2854477898285452  1.0000
  Cl  Cl3       1.0  0.2748083577125584  0.5109748407196547  0.7148492860771327  1.0000
