data_image0
_chemical_formula_structural       Al4H56C88Br8O24
_chemical_formula_sum              "Al4 H56 C88 Br8 O24"
_cell_length_a       6.637425017614467
_cell_length_b       21.61370478032969
_cell_length_c       28.04862950803479
_cell_angle_alpha    101.17051732259395
_cell_angle_beta     89.01390206829838
_cell_angle_gamma    89.68353887692332

_space_group_name_H-M_alt    "P 1"
_space_group_IT_number       1

loop_
  _space_group_symop_operation_xyz
  'x, y, z'

loop_
  _atom_site_type_symbol
  _atom_site_label
  _atom_site_symmetry_multiplicity
  _atom_site_fract_x
  _atom_site_fract_y
  _atom_site_fract_z
  _atom_site_occupancy
  Al  Al1       1.0  0.19538708812742564  0.7501677259525363  0.25119167537171455  1.0000
  Al  Al2       1.0  0.7963907624164933  0.2521804394280239  0.7495755457228628  1.0000
  Al  Al3       1.0  0.6950897789629951  0.7534946269211815  0.24926470180137275  1.0000
  Al  Al4       1.0  0.2966872152417467  0.24701608066103375  0.7500972394724102  1.0000
  H   H1        1.0  0.22547048611563983  0.6136951125001602  0.9350009424853457  1.0000
  H   H2        1.0  0.0150137192651485  0.3769460060259675  0.07041557192703611  1.0000
  H   H3        1.0  0.827127828966596  0.9014409758267946  0.5550892341334049  1.0000
  H   H4        1.0  0.17310239645245673  0.09911299577759537  0.44518481557353345  1.0000
  H   H5        1.0  0.976303650039128  0.5392967403356363  0.20956972184092856  1.0000
  H   H6        1.0  0.21945166991517343  0.4505215035023866  0.7959096553747219  1.0000
  H   H7        1.0  0.2924779355985692  0.9569438159767568  0.29734449446449673  1.0000
  H   H8        1.0  0.7064219284831381  0.043977457150774134  0.7028385020599189  1.0000
  H   H9        1.0  0.2558518973194595  0.5527094859173046  0.8546113375307345  1.0000
  H   H10       1.0  0.9908024092226813  0.4362515262537271  0.15117322812623263  1.0000
  H   H11       1.0  0.7915854606892909  0.9492622847011914  0.6389430711136156  1.0000
  H   H12       1.0  0.20740042948789045  0.0514532370341101  0.3614258274346868  1.0000
  H   H13       1.0  0.1283127709309468  0.6263614435143906  0.0204987169058342  1.0000
  H   H14       1.0  0.0199085753254167  0.36879069195406794  0.9824782540361171  1.0000
  H   H15       1.0  0.744094332890299  0.894107928591957  0.4698430943862634  1.0000
  H   H16       1.0  0.2583254798853218  0.1066807399100966  0.5303627795107034  1.0000
  H   H17       1.0  0.2506870979568987  0.9642410510691658  0.10557066602624592  1.0000
  H   H18       1.0  0.7428569262749536  0.036050783677580994  0.892633953722694  1.0000
  H   H19       1.0  0.7410104777592253  0.537011073160066  0.3922020427749688  1.0000
  H   H20       1.0  0.2535471816291306  0.46517096974140765  0.6078171929817772  1.0000
  H   H21       1.0  0.683145556933461  0.8238761477086599  0.12554400486885703  1.0000
  H   H22       1.0  0.3153919423342161  0.17585097854234277  0.8753157370520271  1.0000
  H   H23       1.0  0.16876789867538386  0.6789993717434726  0.3778192089401885  1.0000
  H   H24       1.0  0.8180166524460477  0.3203342146146611  0.6217738118848788  1.0000
  H   H25       1.0  0.6657413742243534  0.9883577948346342  0.039151047544422106  1.0000
  H   H26       1.0  0.3280980894486021  0.008725354853197585  0.9586453618720017  1.0000
  H   H27       1.0  0.3544632099897882  0.608659872240544  0.5207473385226394  1.0000
  H   H28       1.0  0.6383208676877318  0.39159124178149785  0.4785758817975039  1.0000
  H   H29       1.0  0.6939533637347209  0.05236358618476087  0.975324505988411  1.0000
  H   H30       1.0  0.2999642585504461  0.944830102457288  0.022527409009505603  1.0000
  H   H31       1.0  0.403576217978575  0.5473670806317655  0.5849260533618336  1.0000
  H   H32       1.0  0.589696289262669  0.45301776074651906  0.414426441597911  1.0000
  H   H33       1.0  0.7076212078373771  0.7835392874362269  0.018760489632107604  1.0000
  H   H34       1.0  0.8296819186793343  0.8403045169682172  0.9897889745180138  1.0000
  H   H35       1.0  0.49923078875350063  0.8730727089316018  0.9609677255704911  1.0000
  H   H36       1.0  0.532193518541547  0.790147270951877  0.9421750057107021  1.0000
  H   H37       1.0  0.36983691198289403  0.8206742851907335  0.992602320283851  1.0000
  H   H38       1.0  0.16765197437201348  0.15778296294183747  0.009925169175041004  1.0000
  H   H39       1.0  0.29120334213497767  0.2140252983935866  0.9806924069756422  1.0000
  H   H40       1.0  0.6281171797272763  0.17622864321050705  0.006767808552751802  1.0000
  H   H41       1.0  0.4667828763631547  0.20702078741353347  0.057314850646342605  1.0000
  H   H42       1.0  0.4978136129328803  0.12402921321252337  0.03840927719990361  1.0000
  H   H43       1.0  0.9016627722885745  0.6577946578297968  0.42275753009862177  1.0000
  H   H44       1.0  0.06471985711802121  0.7130685386686294  0.4586699791069508  1.0000
  H   H45       1.0  0.9487901791750633  0.674632968247394  0.5337960129593072  1.0000
  H   H46       1.0  0.7384907427884502  0.7001426833992708  0.5036386534611667  1.0000
  H   H47       1.0  0.7910814057559323  0.6182551401163251  0.49791423118326616  1.0000
  H   H48       1.0  0.9303569816729509  0.2865399485456662  0.5425616808048163  1.0000
  H   H49       1.0  0.08749357146643183  0.343779350731097  0.5784683409555456  1.0000
  H   H50       1.0  0.20094207165758607  0.38155922569045225  0.502724005257086  1.0000
  H   H51       1.0  0.25926415463116115  0.3003702674146709  0.49894264853116266  1.0000
  H   H52       1.0  0.049870983868196106  0.32299416941421544  0.46697337823961516  1.0000
  H   H53       1.0  0.4492473295745967  0.7104280126780862  0.19057943955190385  1.0000
  H   H54       1.0  0.539162392887704  0.2906725438907998  0.8096395135462375  1.0000
  H   H55       1.0  0.9312287144008168  0.7403296065545603  0.3095872699538661  1.0000
  H   H56       1.0  0.055056087108596316  0.2431348748058325  0.686267246756252  1.0000
  C   C1        1.0  0.4437516724347221  0.6840031971626814  0.3105947659399392  1.0000
  C   C2        1.0  0.5433673143817901  0.31644725193741857  0.6889559595753242  1.0000
  C   C3        1.0  0.9570716611712342  0.8200968558893464  0.19193046140360084  1.0000
  C   C4        1.0  0.041425290302569806  0.18240529769312266  0.8092106024012937  1.0000
  C   C5        1.0  0.4426626275711812  0.8476163013595011  0.31003822767210215  1.0000
  C   C6        1.0  0.5572372939752556  0.15308741185321398  0.6902162637486173  1.0000
  C   C7        1.0  0.946832293712035  0.6543097320734856  0.18941725444837948  1.0000
  C   C8        1.0  0.04006578814088611  0.34730638143642517  0.8098318990203028  1.0000
  C   C9        1.0  0.05805410844218532  0.40639784179033706  0.8477087573174702  1.0000
  C   C10       1.0  0.9585202774910971  0.5936327136277056  0.15266883303664974  1.0000
  C   C11       1.0  0.5752577748244792  0.09458815188492045  0.6515316568226767  1.0000
  C   C12       1.0  0.42602085869420137  0.9064923201588967  0.3484885190962218  1.0000
  C   C13       1.0  0.18571826344480516  0.5121975652752369  0.8658589636185287  1.0000
  C   C14       1.0  0.9860805980194133  0.48061325507382685  0.13815200516145154  1.0000
  C   C15       1.0  0.7098013007483887  0.9892245616621267  0.6298863371294628  1.0000
  C   C16       1.0  0.2902060263050856  0.011581584757131206  0.3703237160545428  1.0000
  C   C17       1.0  0.16307046583240487  0.45651881193458616  0.8332752189361515  1.0000
  C   C18       1.0  0.9764600365680423  0.5372292730011167  0.1704302005323797  1.0000
  C   C19       1.0  0.6647540121625115  0.04132726807510781  0.6650549004409856  1.0000
  C   C20       1.0  0.33531053741823064  0.9595969924081654  0.3350568813385735  1.0000
  C   C21       1.0  0.990123202269551  0.41153294275384406  0.8955214919098824  1.0000
  C   C22       1.0  0.9582326144255264  0.5924712440245301  0.10297053238358701  1.0000
  C   C23       1.0  0.5239557226685889  0.09333831527279558  0.6035254424278663  1.0000
  C   C24       1.0  0.4792107289031052  0.9077494740027986  0.39635553797592854  1.0000
  C   C25       1.0  0.037620867358050696  0.46487363002389503  0.9321971518867617  1.0000
  C   C26       1.0  0.9899298921184255  0.5355549803380626  0.06810281633822514  1.0000
  C   C27       1.0  0.5450481936246874  0.03751571580550462  0.5668258194082798  1.0000
  C   C28       1.0  0.4577550843228479  0.963461334582767  0.4331555390030531  1.0000
  C   C29       1.0  0.1245826739782601  0.5173976958610423  0.9149916639378903  1.0000
  C   C30       1.0  0.992512540743718  0.47866098309091126  0.08750868359721413  1.0000
  C   C31       1.0  0.656014233887291  0.9869486316101684  0.5810558330058627  1.0000
  C   C32       1.0  0.345301058542681  0.013874130723593196  0.4190731835781564  1.0000
  C   C33       1.0  0.013424491936412201  0.46991808729854506  0.9844885496176446  1.0000
  C   C34       1.0  0.025386273814000004  0.5300577760485936  0.016089053914427602  1.0000
  C   C35       1.0  0.46997574829747185  0.027576115585766618  0.5175289300806584  1.0000
  C   C36       1.0  0.5331665932386046  0.9734587051128681  0.48243677170335536  1.0000
  C   C37       1.0  0.10043291453300182  0.5817357387549009  0.9964135804235003  1.0000
  C   C38       1.0  0.008193740450821002  0.4150527612983553  0.005756566746313801  1.0000
  C   C39       1.0  0.6752254680010097  0.9311635373662951  0.4968764056884824  1.0000
  C   C40       1.0  0.3271866031121391  0.0697347292890456  0.5032415213289739  1.0000
  C   C41       1.0  0.15523483177842223  0.5747809806310471  0.9485243057017885  1.0000
  C   C42       1.0  0.005992804621563203  0.41946731442997265  0.054953918227425916  1.0000
  C   C43       1.0  0.7251937851269333  0.9359401677979873  0.5444287962247999  1.0000
  C   C44       1.0  0.276037568154095  0.06480426862654548  0.4557697546002687  1.0000
  C   C45       1.0  0.1279640899088577  0.8997493318055944  0.1473117346183628  1.0000
  C   C46       1.0  0.8675821770792072  0.1021066703134892  0.8525588786400747  1.0000
  C   C47       1.0  0.6152896336116882  0.6026840755280103  0.35233684084332156  1.0000
  C   C48       1.0  0.3762958393447633  0.3992186481092687  0.6477894920309241  1.0000
  C   C49       1.0  0.12715853501002533  0.9323700468330214  0.10909194419602393  1.0000
  C   C50       1.0  0.8673191205480395  0.06778893236189988  0.8897481093259076  1.0000
  C   C51       1.0  0.6129886436761467  0.5676846020599768  0.3891467833772567  1.0000
  C   C52       1.0  0.3797256800764544  0.433707817053559  0.6106520207831637  1.0000
  C   C53       1.0  0.9705541115541862  0.9263227916501506  0.07553328174739701  1.0000
  C   C54       1.0  0.024270356947980107  0.072273549655435  0.9231554222190684  1.0000
  C   C55       1.0  0.45619645117219687  0.5728613823457137  0.42378806799928287  1.0000
  C   C56       1.0  0.5352823028835587  0.4274262328675888  0.5756215448107797  1.0000
  C   C57       1.0  0.8097308651526378  0.8860047475339171  0.0820954170633641  1.0000
  C   C58       1.0  0.1860659859427471  0.11261336024317359  0.9174293983325585  1.0000
  C   C59       1.0  0.29450344911079185  0.614737636326538  0.41997003102596164  1.0000
  C   C60       1.0  0.6952564866693722  0.38492625147382853  0.5794228800878899  1.0000
  C   C61       1.0  0.8093520222678097  0.8542160075524519  0.12070197287584965  1.0000
  C   C62       1.0  0.18785344233881324  0.1457685452106503  0.8795950459799828  1.0000
  C   C63       1.0  0.29441732092288225  0.6482007595288833  0.3820964941579065  1.0000
  C   C64       1.0  0.6939966138513756  0.35168561860153597  0.6174111514486855  1.0000
  C   C65       1.0  0.967576258911656  0.8596663783730629  0.15386398746395002  1.0000
  C   C66       1.0  0.029382801602864106  0.1418756814894735  0.8466838395251203  1.0000
  C   C67       1.0  0.45425974738865454  0.6434579415658347  0.34804842567364613  1.0000
  C   C68       1.0  0.5348687508720573  0.35734996995888924  0.6517311464230817  1.0000
  C   C69       1.0  0.810753272572491  0.9923288597356006  0.021305009891847203  1.0000
  C   C70       1.0  0.1831312377301657  0.004760330556742078  0.9764974575627721  1.0000
  C   C71       1.0  0.41538321532996053  0.5609480463596981  0.5111945883685679  1.0000
  C   C72       1.0  0.577253367687895  0.43926769617915074  0.4881289150362279  1.0000
  C   C73       1.0  0.8269475011799942  0.028150713173104767  0.9852392726364915  1.0000
  C   C74       1.0  0.1669814749008012  0.9689894339820668  0.012586552167754004  1.0000
  C   C75       1.0  0.4426787966873179  0.5260830739942434  0.5473516750681428  1.0000
  C   C76       1.0  0.5501398312076661  0.47417134455208987  0.4519758075948489  1.0000
  C   C77       1.0  0.013094362815309096  0.03522847375711548  0.9621887572175044  1.0000
  C   C78       1.0  0.9810693402376104  0.9622006901284551  0.03580154168502501  1.0000
  C   C79       1.0  0.5229788871555173  0.464449590985751  0.536721616594278  1.0000
  C   C80       1.0  0.46938691440711733  0.5357196710110514  0.46259197983373923  1.0000
  C   C81       1.0  0.6879677038078001  0.8294280286464256  0.0075357981284654004  1.0000
  C   C82       1.0  0.5116632246638703  0.8284513338459902  0.973950564620232  1.0000
  C   C83       1.0  0.3096142286300889  0.16817277419615095  0.9920312348881809  1.0000
  C   C84       1.0  0.4861902562081823  0.16871619667185908  0.02548553645028311  1.0000
  C   C85       1.0  0.9906766013448164  0.6669870666720142  0.45615757661032325  1.0000
  C   C86       1.0  0.8599694416719716  0.6647925784741773  0.5005370674001172  1.0000
  C   C87       1.0  0.0015961663674914986  0.33299188545601766  0.5446262770782085  1.0000
  C   C88       1.0  0.1353514045657533  0.334665596505566  0.5006617982019109  1.0000
  Br  Br1       1.0  0.8894670868781419  0.6721703801189419  0.08602437157249912  1.0000
  Br  Br2       1.0  0.816844841830495  0.3450829467882386  0.9079376909048807  1.0000
  Br  Br3       1.0  0.5421219747214892  0.8255469658566525  0.40972708359923626  1.0000
  Br  Br4       1.0  0.46751050389710264  0.17562176429154158  0.589314505516221  1.0000
  Br  Br5       1.0  0.3515437467026957  0.9161697452049465  0.18952689567563405  1.0000
  Br  Br6       1.0  0.6440437754406221  0.08903484059846531  0.8101807007729253  1.0000
  Br  Br7       1.0  0.8475796864679097  0.5915335026588762  0.31041071220132477  1.0000
  Br  Br8       1.0  0.14760509707569014  0.4136857965928867  0.6908305612625798  1.0000
  O   O1        1.0  0.614791904300006  0.830957464008435  0.29159985545558703  1.0000
  O   O2        1.0  0.38256103828949517  0.17301682800378873  0.7047376619232966  1.0000
  O   O3        1.0  0.11662094595319422  0.6777342509934883  0.20293689034932078  1.0000
  O   O4        1.0  0.868877591065669  0.33019081718160237  0.7929442394367927  1.0000
  O   O5        1.0  0.2697293668142039  0.6944051004076781  0.29507505613521806  1.0000
  O   O6        1.0  0.7175832302105292  0.30127993565465516  0.7016586698908399  1.0000
  O   O7        1.0  0.783211636259715  0.8016385758864286  0.20284057806754424  1.0000
  O   O8        1.0  0.21684445148006404  0.1934701078209358  0.7939142845448617  1.0000
  O   O9        1.0  0.2768353479995085  0.8203833535228213  0.2985179930016459  1.0000
  O   O10       1.0  0.7233400600927667  0.17664319761707498  0.7060766696754969  1.0000
  O   O11       1.0  0.7740025138197026  0.6753977979900724  0.2045718841880416  1.0000
  O   O12       1.0  0.2082955073331263  0.3200070508026087  0.7973587303572105  1.0000
  O   O13       1.0  0.12168747440181703  0.8056520245111399  0.20935751406824474  1.0000
  O   O14       1.0  0.8774591483459276  0.20479596802969977  0.7969833244543169  1.0000
  O   O15       1.0  0.6086914832927306  0.7064774262243104  0.29824837483511873  1.0000
  O   O16       1.0  0.37608277428742554  0.2984613893278549  0.7038703350758198  1.0000
  O   O17       1.0  0.44652048109760056  0.7417783825612075  0.22046517840567503  1.0000
  O   O18       1.0  0.5445943503481061  0.2598136142700582  0.7794708248462431  1.0000
  O   O19       1.0  0.9412251060077212  0.7565947028947803  0.279751091712214  1.0000
  O   O20       1.0  0.0491282550917589  0.2426479773527745  0.7206905491553429  1.0000
  O   O21       1.0  0.6495480111856652  0.8774808371128768  0.050512930676816815  1.0000
  O   O22       1.0  0.3459901802811843  0.11989593460332765  0.9491345713075036  1.0000
  O   O23       1.0  0.14319916319524853  0.6186833963054567  0.4538743962387103  1.0000
  O   O24       1.0  0.8463238562793409  0.3801335118097385  0.5453732114087019  1.0000
