data_image0
_chemical_formula_structural       Cd2H24C32S2N8O10
_chemical_formula_sum              "Cd2 H24 C32 S2 N8 O10"
_cell_length_a       7.0248151267632775
_cell_length_b       7.78152205737086
_cell_length_c       16.556224804738342
_cell_angle_alpha    73.34668630072532
_cell_angle_beta     83.57779490112077
_cell_angle_gamma    83.7166163174259

_space_group_name_H-M_alt    "P 1"
_space_group_IT_number       1

loop_
  _space_group_symop_operation_xyz
  'x, y, z'

loop_
  _atom_site_type_symbol
  _atom_site_label
  _atom_site_symmetry_multiplicity
  _atom_site_fract_x
  _atom_site_fract_y
  _atom_site_fract_z
  _atom_site_occupancy
  Cd  Cd1       1.0  0.6635293378160866  0.9903522744915134  0.597552931371652  1.0000
  Cd  Cd2       1.0  0.33646997292987635  0.00964897226205611  0.40244613909314336  1.0000
  H   H1        1.0  0.8460878478683325  0.6662410274031815  0.6588692045926479  1.0000
  H   H2        1.0  0.15390915700961463  0.3337693005038106  0.3411314087869285  1.0000
  H   H3        1.0  0.009541426009029378  0.7685822580582099  0.5953440230776507  1.0000
  H   H4        1.0  0.9904607340829371  0.23141706731092168  0.4046593753983102  1.0000
  H   H5        1.0  0.7202218827594606  0.0180781168274322  0.7809001993308441  1.0000
  H   H6        1.0  0.27978491942813843  0.9819367035518736  0.21909591209716686  1.0000
  H   H7        1.0  0.5407958392989657  0.09904869041860563  0.9056003238123436  1.0000
  H   H8        1.0  0.4592008530723319  0.9009499587345361  0.09439852334212157  1.0000
  H   H9        1.0  0.021671533629735493  0.16091600650774757  0.7769716318249776  1.0000
  H   H10       1.0  0.9783221793809459  0.8390839935562369  0.22302718990719228  1.0000
  H   H11       1.0  0.22066183623402216  0.07023255990517194  0.6613251058243106  1.0000
  H   H12       1.0  0.779339254080817  0.9297823571203949  0.3386706179485656  1.0000
  H   H13       1.0  0.9718410738206557  0.3502786965261322  0.1815849415670242  1.0000
  H   H14       1.0  0.02816407426782769  0.6497053199877812  0.8184139206733717  1.0000
  H   H15       1.0  0.6965928193213671  0.45606252515000284  0.268445273076388  1.0000
  H   H16       1.0  0.3034207758484015  0.5439208166690436  0.7315581659077919  1.0000
  H   H17       1.0  0.3054168117290601  0.40604028452396085  0.10896635728943238  1.0000
  H   H18       1.0  0.6945764501244511  0.5939614242569605  0.8910395624643569  1.0000
  H   H19       1.0  0.5571236747624154  0.2930381574171149  0.0175062531345844  1.0000
  H   H20       1.0  0.44285789068233333  0.706950396581725  0.9824997226285528  1.0000
  H   H21       1.0  0.4645918952624085  0.42213566163508887  0.5966627934109638  1.0000
  H   H22       1.0  0.5354002596669362  0.5778814758098108  0.4033366809508506  1.0000
  H   H23       1.0  0.09428319355460957  0.4501008731943801  0.5843531182832178  1.0000
  H   H24       1.0  0.9057328633125433  0.5498899111948674  0.41564398068825165  1.0000
  C   C1        1.0  0.5653018974818806  0.05061463725407837  0.7831754025971447  1.0000
  C   C2        1.0  0.43470593648790856  0.9494057971697316  0.21681825242407626  1.0000
  C   C3        1.0  0.46588051885001375  0.0975112185104692  0.8518702031534245  1.0000
  C   C4        1.0  0.5341133268716688  0.9024875197139081  0.1481281428456995  1.0000
  C   C5        1.0  0.26630714022004304  0.13870490976054844  0.8519313989800492  1.0000
  C   C6        1.0  0.7336869894971514  0.8612913862808469  0.14806538089742824  1.0000
  C   C7        1.0  0.1758376763974923  0.13012358498670554  0.7820145705347699  1.0000
  C   C8        1.0  0.8241560366131819  0.8698764150772861  0.21798425119740017  1.0000
  C   C9        1.0  0.28653811750432107  0.07954991123641972  0.7162298679542116  1.0000
  C   C10       1.0  0.7134697703375393  0.9204512312958782  0.2837694766655047  1.0000
  C   C11       1.0  0.16179772293475028  0.1852301744234737  0.925030273630888  1.0000
  C   C12       1.0  0.8381978022469737  0.8147659548379665  0.07496767880758878  1.0000
  C   C13       1.0  0.9459874249937384  0.26544788861085084  0.03379317888114738  1.0000
  C   C14       1.0  0.05399971422001216  0.7345454952077262  0.9662060065585223  1.0000
  C   C15       1.0  0.7894735065630555  0.32166056010849087  0.08875724595267087  1.0000
  C   C16       1.0  0.21051372821466427  0.6783313988780292  0.9112426930650553  1.0000
  C   C17       1.0  0.8265202089649362  0.3649176378120417  0.162127492058012  1.0000
  C   C18       1.0  0.17348436843614218  0.6350730953810312  0.837870675569853  1.0000
  C   C19       1.0  0.6723779851175138  0.4245203726392504  0.2105161849692365  1.0000
  C   C20       1.0  0.3276295186200073  0.5754669328410956  0.7894876789033985  1.0000
  C   C21       1.0  0.4550898957642388  0.39726469816074683  0.12274654317560159  1.0000
  C   C22       1.0  0.5449041863215385  0.6027258564523803  0.8772635612359919  1.0000
  C   C23       1.0  0.5980181271848579  0.33391339907729645  0.07047286115499668  1.0000
  C   C24       1.0  0.40197218521382877  0.6660739518531287  0.9295316837189062  1.0000
  C   C25       1.0  0.5483321140772544  0.6982232058311908  0.541806956189582  1.0000
  C   C26       1.0  0.45167182288720636  0.30179162212312605  0.4581892687386356  1.0000
  C   C27       1.0  0.49902823800464796  0.521094404582179  0.5365381769130692  1.0000
  C   C28       1.0  0.5009731018550453  0.4789160749547535  0.46346103690508755  1.0000
  C   C29       1.0  0.9087583957188697  0.2667710707438147  0.5583813573118022  1.0000
  C   C30       1.0  0.09124885577741536  0.733222504538361  0.4416151896597355  1.0000
  C   C31       1.0  0.009936622766630904  0.43399136008919476  0.5359611581571568  1.0000
  C   C32       1.0  0.9900736107866518  0.5659990319689358  0.46403924109249306  1.0000
  S   S1        1.0  0.9176153115627128  0.24678606384107132  0.93374188419196  1.0000
  S   S2        1.0  0.08237553167997191  0.7531962397309256  0.0662607577497525  1.0000
  N   N1        1.0  0.4779269555518794  0.04123596701992233  0.716475704159805  1.0000
  N   N2        1.0  0.5220785838821769  0.958777758299739  0.28351875897415363  1.0000
  N   N3        1.0  0.24733207718590214  0.18318717412176982  0.9927043579960749  1.0000
  N   N4        1.0  0.752661635824779  0.8168128259422146  0.0072944637360948346  1.0000
  N   N5        1.0  0.12595548792427275  0.22746588072619292  0.05384948424607219  1.0000
  N   N6        1.0  0.8740411672999925  0.772532605434499  0.9461505922194957  1.0000
  N   N7        1.0  0.4889221515381975  0.445285035090791  0.1908988414176277  1.0000
  N   N8        1.0  0.5110872300285434  0.5547126835162929  0.8091062561969691  1.0000
  O   O1        1.0  0.8619004647507039  0.1971329525857968  0.6361723094224984  1.0000
  O   O2        1.0  0.13812250832582149  0.8028604180413552  0.3638248426089844  1.0000
  O   O3        1.0  0.8638985281225969  0.2017765462950578  0.5002407478555284  1.0000
  O   O4        1.0  0.13610803854879797  0.7982250890021091  0.4997549655809764  1.0000
  O   O5        1.0  0.5501790326282857  0.7142561285498487  0.6162888581379633  1.0000
  O   O6        1.0  0.449828612909961  0.2857653232248937  0.3837071165829612  1.0000
  O   O7        1.0  0.5907645727775658  0.8240406030153976  0.4750933892920344  1.0000
  O   O8        1.0  0.4092333683186098  0.175976763768162  0.524904014102695  1.0000
  O   O9        1.0  0.9241500447191836  0.768360808958775  0.6483635617219432  1.0000
  O   O10       1.0  0.07585309143442492  0.23164388596618576  0.35163922431388517  1.0000
