data_image0
_chemical_formula_structural       Zn2H17C26N7O20
_chemical_formula_sum              "Zn2 H17 C26 N7 O20"
_cell_length_a       9.985447784262595
_cell_length_b       11.165114528478204
_cell_length_c       16.98988773094343
_cell_angle_alpha    92.42749448548358
_cell_angle_beta     94.23781472779243
_cell_angle_gamma    92.91065386414985

_space_group_name_H-M_alt    "P 1"
_space_group_IT_number       1

loop_
  _space_group_symop_operation_xyz
  'x, y, z'

loop_
  _atom_site_type_symbol
  _atom_site_label
  _atom_site_symmetry_multiplicity
  _atom_site_fract_x
  _atom_site_fract_y
  _atom_site_fract_z
  _atom_site_occupancy
  Zn  Zn1       1.0  0.3554874289248318  0.5005923621444595  0.4966642979219457  1.0000
  Zn  Zn2       1.0  0.6307756991505755  0.5164503433503072  0.5006011402990183  1.0000
  H   H1        1.0  0.676742193270691  0.4500742495267431  0.25439555520385676  1.0000
  H   H2        1.0  0.3252206708605669  0.3707829213022009  0.7141795977878046  1.0000
  H   H3        1.0  0.6096158797303559  0.3065508300773701  0.0016493301393794154  1.0000
  H   H4        1.0  0.2280268542769761  0.444935816873688  0.10646297201817127  1.0000
  H   H5        1.0  0.2534150354966087  0.5039653589147264  0.2503414247178241  1.0000
  H   H6        1.0  0.3311911969112984  0.4145160764910329  0.9834478948546989  1.0000
  H   H7        1.0  0.6537839128377243  0.3918666903527992  0.11195150973778568  1.0000
  H   H8        1.0  0.6666978872081444  0.8910575934254865  0.4678061654127318  1.0000
  H   H9        1.0  0.3888489262223587  0.9139420934385143  0.5343266117413137  1.0000
  H   H10       1.0  0.1518434868799474  0.6637820843196778  0.5534541290586217  1.0000
  H   H11       1.0  0.09321248883756539  0.4145225029597484  0.49235788586679513  1.0000
  H   H12       1.0  0.8946511973061816  0.4770858447364433  0.9792474095647704  1.0000
  H   H13       1.0  0.7278563999038286  0.5311453989007902  0.9729819015458504  1.0000
  H   H14       1.0  0.833368362208823  0.5491710276902495  0.8920515044454473  1.0000
  H   H15       1.0  0.8232999675220894  0.29323563819037446  0.6858540988687452  1.0000
  H   H16       1.0  0.8732325175906651  0.2845015991939235  0.7898915390755545  1.0000
  H   H17       1.0  0.9638632681931938  0.38512232009164654  0.7315704549473805  1.0000
  C   C1        1.0  0.4903061888204904  0.27456542668563333  0.47213396956073694  1.0000
  C   C2        1.0  0.48212308784121655  0.5109920557751195  0.34749363022071816  1.0000
  C   C3        1.0  0.4787855712240443  0.7398927396643914  0.515486526687887  1.0000
  C   C4        1.0  0.5365977327603986  0.4573565061921627  0.6453158139943581  1.0000
  C   C5        1.0  0.4664811404731849  0.4803682818839903  0.2611663544298252  1.0000
  C   C6        1.0  0.578676064803986  0.44767490679924293  0.2215824243955637  1.0000
  C   C7        1.0  0.5648005054360112  0.41391343038790046  0.14192312514676075  1.0000
  C   C8        1.0  0.4382216016274682  0.41177817659964694  0.0988422575034491  1.0000
  C   C9        1.0  0.32648478163691413  0.445661352314886  0.13906273842101768  1.0000
  C   C10       1.0  0.3400458284440262  0.47890403870982823  0.21916638474033323  1.0000
  C   C11       1.0  0.4074011601627775  0.3344071963179331  0.8301776440368798  1.0000
  C   C12       1.0  0.415404042517018  0.37319081703909524  0.7543045528401535  1.0000
  C   C13       1.0  0.656119281641395  0.40707111952060876  0.7783690668866539  1.0000
  C   C14       1.0  0.6449883871629111  0.3718553791927235  0.8568004037036941  1.0000
  C   C15       1.0  0.5200452139987847  0.3401638003172849  0.8859814514629745  1.0000
  C   C16       1.0  0.4231017298262855  0.38459766455804356  0.013909210754924602  1.0000
  C   C17       1.0  0.5176052000984653  0.33580582147460797  0.971453954484211  1.0000
  C   C18       1.0  0.538642584128091  0.4128518679602847  0.7272246967638338  1.0000
  C   C19       1.0  0.5789516715486798  0.937342547844601  0.4854029679495539  1.0000
  C   C20       1.0  0.4767125281098004  0.8725943194546204  0.5131635253514375  1.0000
  C   C21       1.0  0.5843823039250751  0.0669054614994522  0.48192386735073  1.0000
  C   C22       1.0  0.4849179498436413  0.1404465675910345  0.464124869081587  1.0000
  C   C23       1.0  0.09146727951065262  0.5812755613724859  0.5343526809664494  1.0000
  C   C24       1.0  0.9443579487756539  0.5822115144435572  0.5410392379022821  1.0000
  C   C25       1.0  0.8058990216209807  0.4907743269935594  0.9394395026655218  1.0000
  C   C26       1.0  0.8646857056402694  0.3436946885013299  0.7399817817762153  1.0000
  N   N1        1.0  0.1516210316192002  0.4915117523848664  0.5078657699703369  1.0000
  N   N2        1.0  0.8468701090032624  0.5443834977157067  0.4925175189523542  1.0000
  N   N3        1.0  0.7246867625113182  0.11937000974777591  0.5017142030787838  1.0000
  N   N4        1.0  0.35107253885525574  0.08698476222980392  0.4339732012310762  1.0000
  N   N5        1.0  0.9132527739176483  0.6384312575509412  0.6199448368187745  1.0000
  N   N6        1.0  0.8888257965187875  0.4953786174483241  0.41214221456473865  1.0000
  N   N7        1.0  0.2768281515141097  0.280801818283706  0.8494207312950052  1.0000
  O   O1        1.0  0.37783746761042636  0.32199967660911  0.4620064672631727  1.0000
  O   O2        1.0  0.6050329423297356  0.32592634622983496  0.48982865450210505  1.0000
  O   O3        1.0  0.37751330313420073  0.5369944845252093  0.38232553057201096  1.0000
  O   O4        1.0  0.6001125360635199  0.5061299411305455  0.382003326421156  1.0000
  O   O5        1.0  0.36805294983973613  0.6836673659425614  0.5275269476351454  1.0000
  O   O6        1.0  0.5894517372668843  0.6925704065865617  0.5045199979286394  1.0000
  O   O7        1.0  0.4207359672931543  0.4574833700728576  0.6079939968631789  1.0000
  O   O8        1.0  0.6464980116232583  0.49212472208655816  0.617324151116257  1.0000
  O   O9        1.0  0.7589247289707188  0.37288375063086937  0.9074418199241521  1.0000
  O   O10       1.0  0.7955622183051076  0.1276974023665645  0.4456401682134724  1.0000
  O   O11       1.0  0.7601390777654871  0.1392761877800979  0.5722721112621869  1.0000
  O   O12       1.0  0.26630502008460155  0.0706674122739557  0.4824719398830125  1.0000
  O   O13       1.0  0.3344687971967488  0.0666915384164284  0.3619278336774413  1.0000
  O   O14       1.0  0.9851978202774558  0.601147792684074  0.6749997740383689  1.0000
  O   O15       1.0  0.8299269653228407  0.7144802370303296  0.621692944129215  1.0000
  O   O16       1.0  0.8969735448810922  0.3872716677542485  0.4073307875217508  1.0000
  O   O17       1.0  0.9004748668429414  0.5718596178367008  0.3644019508998397  1.0000
  O   O18       1.0  0.7799494226670659  0.4420904609992747  0.7566714863930669  1.0000
  O   O19       1.0  0.17349596486970847  0.32329067476748463  0.8189150202596734  1.0000
  O   O20       1.0  0.27767792974815114  0.1943849181724246  0.8928249058773615  1.0000
