data_image0
_chemical_formula_structural       Mo4H22C18N6O12
_chemical_formula_sum              "Mo4 H22 C18 N6 O12"
_cell_length_a       7.3002464152682585
_cell_length_b       7.489163650909701
_cell_length_c       11.594370982906284
_cell_angle_alpha    85.91370631861524
_cell_angle_beta     85.95752166412464
_cell_angle_gamma    89.1801932762492

_space_group_name_H-M_alt    "P 1"
_space_group_IT_number       1

loop_
  _space_group_symop_operation_xyz
  'x, y, z'

loop_
  _atom_site_type_symbol
  _atom_site_label
  _atom_site_symmetry_multiplicity
  _atom_site_fract_x
  _atom_site_fract_y
  _atom_site_fract_z
  _atom_site_occupancy
  Mo  Mo1       1.0  0.3668721501684545  0.674434009550495  0.5541724329940081  1.0000
  Mo  Mo2       1.0  0.6331259974452906  0.32555739352571317  0.44582561832654494  1.0000
  Mo  Mo3       1.0  0.13660148296509791  0.3591038534823526  0.41115851595251474  1.0000
  Mo  Mo4       1.0  0.863411666270217  0.6409115678012893  0.5888584652885173  1.0000
  H   H1        1.0  0.3249411437734012  0.3967349088278097  0.8490286785239507  1.0000
  H   H2        1.0  0.6750624498112572  0.603268513034635  0.15097375279779612  1.0000
  H   H3        1.0  0.03619647518198121  0.039735415125654996  0.6608465353042876  1.0000
  H   H4        1.0  0.9638030168146513  0.960264012588695  0.3391519485916064  1.0000
  H   H5        1.0  0.9939678227132165  0.8577520464589341  0.8138061489855136  1.0000
  H   H6        1.0  0.0060316599320558  0.1422500586561881  0.18619221161917926  1.0000
  H   H7        1.0  0.7996046831623718  0.13820118882715346  0.7821452572447785  1.0000
  H   H8        1.0  0.20039205121735656  0.8618009328951786  0.21785494849371645  1.0000
  H   H9        1.0  0.6727309485905553  0.9601747023844923  0.8523391448976909  1.0000
  H   H10       1.0  0.32726992434648855  0.039822040734634405  0.14766112724625916  1.0000
  H   H11       1.0  0.6117797294743712  0.248036323880882  0.9503875780621415  1.0000
  H   H12       1.0  0.3882156418197553  0.7519631280048455  0.049611948518609915  1.0000
  H   H13       1.0  0.8630656330232827  0.37239310159071687  0.05695703866624061  1.0000
  H   H14       1.0  0.13693110772793912  0.6276076806917885  0.9430415037020199  1.0000
  H   H15       1.0  0.9166077639310616  0.38762418483211286  0.9046475282395223  1.0000
  H   H16       1.0  0.0833889853236158  0.612373920419344  0.09535199992784983  1.0000
  H   H17       1.0  0.18421213773534365  0.27140744002169  0.01603383637280591  1.0000
  H   H18       1.0  0.8157859699292518  0.7285946737667571  0.983966309306702  1.0000
  H   H19       1.0  0.33493891442845586  0.8787801716074242  0.8482070004262499  1.0000
  H   H20       1.0  0.6650633424044657  0.12121522228939341  0.15178723574889125  1.0000
  H   H21       1.0  0.40897558045323734  0.04847499078463358  0.9331003522929822  1.0000
  H   H22       1.0  0.5910239089996737  0.9515244380388738  0.0669007191266715  1.0000
  C   C1        1.0  0.26566934318843494  0.3339190433442596  0.7793231060920081  1.0000
  C   C2        1.0  0.7343274205294322  0.6660737089542578  0.22068098119735427  1.0000
  C   C3        1.0  0.1188553402429164  0.14973577164892757  0.6834587809626671  1.0000
  C   C4        1.0  0.8811468944956646  0.8502649785283085  0.31653865866174874  1.0000
  C   C5        1.0  0.12346822396091992  0.06572671116564519  0.9006029448994681  1.0000
  C   C6        1.0  0.8765326451483448  0.9342713702841506  0.0993964030909638  1.0000
  C   C7        1.0  0.9591392437153134  0.943480329189441  0.8855025490457324  1.0000
  C   C8        1.0  0.04086025593686321  0.0565164218635772  0.11449778315719783  1.0000
  C   C9        1.0  0.7843856056176223  0.0531671555066708  0.8633257017557484  1.0000
  C   C10       1.0  0.21561251692191516  0.9468309418109014  0.13667376635264367  1.0000
  C   C11       1.0  0.7364279426627717  0.16757738384821858  0.965883924411827  1.0000
  C   C12       1.0  0.2635715361547213  0.8324260595975588  0.03411351203935451  1.0000
  C   C13       1.0  0.8954629511281171  0.2934389389051261  0.9814331910282025  1.0000
  C   C14       1.0  0.10453380280223001  0.7065578276459519  0.018566398784770413  1.0000
  C   C15       1.0  0.06950692165197132  0.18249269632096338  0.0027936802662509026  1.0000
  C   C16       1.0  0.9304912000396613  0.8175054013663259  0.9972066503500586  1.0000
  C   C17       1.0  0.29708556744117226  0.9551419375904117  0.9238907378688241  1.0000
  C   C18       1.0  0.7029139045930819  0.0448615088131277  0.07611359864570492  1.0000
  N   N1        1.0  0.2785904941612927  0.3944265864458457  0.6696064700537365  1.0000
  N   N2        1.0  0.721411719767012  0.6055781827903032  0.33039768469723196  1.0000
  N   N3        1.0  0.18570204269395427  0.2782350833734882  0.6097998965820822  1.0000
  N   N4        1.0  0.8142974484303592  0.7217670180444243  0.39018983894342807  1.0000
  N   N5        1.0  0.1649496025987176  0.1804777482497215  0.7921638297055155  1.0000
  N   N6        1.0  0.8350471347608774  0.819523035511665  0.20783816269440797  1.0000
  O   O1        1.0  0.3883724418614563  0.43581813327626395  0.4306008291010529  1.0000
  O   O2        1.0  0.6116229081862415  0.5641866745201584  0.5694010384210557  1.0000
  O   O3        1.0  0.11374865771271202  0.6241836937755777  0.5176203955192165  1.0000
  O   O4        1.0  0.8862645905109616  0.3758089610979737  0.48237779601488046  1.0000
  O   O5        1.0  0.4171690651639396  0.8363546775689484  0.44679542004554673  1.0000
  O   O6        1.0  0.5828358761952188  0.16365676745274274  0.5532039938198708  1.0000
  O   O7        1.0  0.3322992986939611  0.7834992279199896  0.6785373509601202  1.0000
  O   O8        1.0  0.6677042868234012  0.21650553412171547  0.3214684687477033  1.0000
  O   O9        1.0  0.10976615661635951  0.4683421970379271  0.27793543662903636  1.0000
  O   O10       1.0  0.8902360738827043  0.5316585549879135  0.7220663155349671  1.0000
  O   O11       1.0  0.1518343563635867  0.13829343673280192  0.3844407610413044  1.0000
  O   O12       1.0  0.848165146680209  0.8617033128413425  0.6155561211299486  1.0000
