data_image0
_chemical_formula_structural       Cd2H24C32S4N12
_chemical_formula_sum              "Cd2 H24 C32 S4 N12"
_cell_length_a       5.728687697186474
_cell_length_b       7.374819641539766
_cell_length_c       20.424381508656058
_cell_angle_alpha    94.91391186854369
_cell_angle_beta     90.00099481915713
_cell_angle_gamma    90.00119952547335

_space_group_name_H-M_alt    "P 1"
_space_group_IT_number       1

loop_
  _space_group_symop_operation_xyz
  'x, y, z'

loop_
  _atom_site_type_symbol
  _atom_site_label
  _atom_site_symmetry_multiplicity
  _atom_site_fract_x
  _atom_site_fract_y
  _atom_site_fract_z
  _atom_site_occupancy
  Cd  Cd1       1.0  8.72795412479998e-06  0.9999999768970225  0.9999995097208013  1.0000
  Cd  Cd2       1.0  0.49999996223244375  0.50000005560927  0.4999993115457713  1.0000
  H   H1        1.0  0.400151365771002  0.883827343577664  0.6248101814192992  1.0000
  H   H2        1.0  0.09983937105854317  0.38383943913904517  0.12480767876901672  1.0000
  H   H3        1.0  0.5998590320353685  0.1161647174141223  0.3751906898479191  1.0000
  H   H4        1.0  0.900155317435484  0.6161650296252288  0.8751969288674957  1.0000
  H   H5        1.0  0.1546345859649065  0.8477130118195714  0.7220290354835797  1.0000
  H   H6        1.0  0.34534429899525076  0.34775640776361166  0.2220347602590635  1.0000
  H   H7        1.0  0.8453601013151227  0.15228163348077567  0.2779689620128636  1.0000
  H   H8        1.0  0.6546399167720267  0.6522577241919194  0.7779730257981256  1.0000
  H   H9        1.0  0.6895052149156271  0.10370567835617088  0.8480656230384227  1.0000
  H   H10       1.0  0.8105146875531446  0.6037131203907578  0.3480653554601503  1.0000
  H   H11       1.0  0.31047725482950744  0.8963069323756511  0.1519386974302961  1.0000
  H   H12       1.0  0.18950269460046343  0.39629835812389297  0.6519438335588816  1.0000
  H   H13       1.0  0.9331893885592561  0.144498476189959  0.7508196442096775  1.0000
  H   H14       1.0  0.5668254599206007  0.644488449807916  0.2508178488875927  1.0000
  H   H15       1.0  0.066808790884366  0.8555019101803365  0.249184861894058  1.0000
  H   H16       1.0  0.4331797028265497  0.35551896955701784  0.749191728900783  1.0000
  H   H17       1.0  0.9797283950736714  0.09452051752059278  0.6311126666972626  1.0000
  H   H18       1.0  0.5202593774155132  0.5945524565343234  0.131125395228139  1.0000
  H   H19       1.0  0.0202715288757389  0.9054727439729786  0.368884806691014  1.0000
  H   H20       1.0  0.47971960187817336  0.4054578683202691  0.8688881723314026  1.0000
  H   H21       1.0  0.7681520782342942  0.9864614015822893  0.5816645403142288  1.0000
  H   H22       1.0  0.7318237550395706  0.48649433127841485  0.08166867733474699  1.0000
  H   H23       1.0  0.23185482816802513  0.013526600083174902  0.4183367196936842  1.0000
  H   H24       1.0  0.2681639517638103  0.5135117964443978  0.9183423374221321  1.0000
  C   C1        1.0  0.49714706351444693  0.2317621878380151  0.0030527971772400966  1.0000
  C   C2        1.0  0.002854735244199  0.7317544132138565  0.5030390087109851  1.0000
  C   C3        1.0  0.5028790444695161  0.7682482588133935  0.9969343305388918  1.0000
  C   C4        1.0  0.9971120200503167  0.2682404241812293  0.4969340199401415  1.0000
  C   C5        1.0  0.6836556474107169  0.0196603757632019  0.6805130421382941  1.0000
  C   C6        1.0  0.8163327136731623  0.5196702344809124  0.1805113331780888  1.0000
  C   C7        1.0  0.3163460223577417  0.9803303475571211  0.3194882855676866  1.0000
  C   C8        1.0  0.18367419333114293  0.480320695070766  0.8194944067655427  1.0000
  C   C9        1.0  0.46120270196896485  0.934953425724977  0.6735211882142451  1.0000
  C   C10       1.0  0.0387981732761915  0.43496418454758157  0.17352486794672467  1.0000
  C   C11       1.0  0.5388059501759201  0.0650399272974695  0.3264782461475306  1.0000
  C   C12       1.0  0.9611982606279595  0.5650349098626961  0.8264810750739143  1.0000
  C   C13       1.0  0.3241124408045692  0.914034875567772  0.7278876727702226  1.0000
  C   C14       1.0  0.17587367055828204  0.4140699092190942  0.22788874550113997  1.0000
  C   C15       1.0  0.6758787549521016  0.08595301178372948  0.2721111360365853  1.0000
  C   C16       1.0  0.8241297461640115  0.5859412715353187  0.772114070306742  1.0000
  C   C17       1.0  0.40266034276139356  0.9776291264280061  0.7914355543049894  1.0000
  C   C18       1.0  0.09734720430659391  0.47766323313386033  0.2914365510264645  1.0000
  C   C19       1.0  0.5973325993753419  0.0223683780147752  0.2085654523813005  1.0000
  C   C20       1.0  0.9026701776056711  0.5223481307489449  0.7085701867398697  1.0000
  C   C21       1.0  0.6256158642231354  0.05874509384709369  0.7990089665725293  1.0000
  C   C22       1.0  0.8743963106419913  0.5587650107381917  0.2990106126981331  1.0000
  C   C23       1.0  0.3743753326000032  0.9412578308024206  0.20099168523069716  1.0000
  C   C24       1.0  0.125624561859226  0.441239457496266  0.7009939948523964  1.0000
  C   C25       1.0  0.7624530480174485  0.0802758911129899  0.7446263688503265  1.0000
  C   C26       1.0  0.737549522112772  0.5802862397555584  0.24462559988441507  1.0000
  C   C27       1.0  0.23754163974525966  0.9197189834510622  0.255376531151505  1.0000
  C   C28       1.0  0.2624573856811452  0.41971827461420463  0.7553799882130504  1.0000
  C   C29       1.0  0.25738930986467073  0.9700135132836677  0.8465363825166462  1.0000
  C   C30       1.0  0.2425859851136991  0.47002568752333207  0.3465419022542378  1.0000
  C   C31       1.0  0.7425896676330908  0.029991995603758398  0.153461395504344  1.0000
  C   C32       1.0  0.7573964834684261  0.5299718400577403  0.6534595947169777  1.0000
  S   S1        1.0  0.7449485401849428  0.3039595135446049  0.9750145868925699  1.0000
  S   S2        1.0  0.7550739762724915  0.8039400727539101  0.4750022067460762  1.0000
  S   S3        1.0  0.2550758224881449  0.696051070700342  0.024975482332528994  1.0000
  S   S4        1.0  0.24492769090498712  0.19604281500754436  0.5249768904834866  1.0000
  N   N1        1.0  0.3182728171421374  0.18316612469602933  0.024552241899499398  1.0000
  N   N2        1.0  0.18173956122986107  0.683149681481211  0.524535774119407  1.0000
  N   N3        1.0  0.6817271058774493  0.8168280161182293  0.9754349700679014  1.0000
  N   N4        1.0  0.8182621051398231  0.3168315016102524  0.47543593551163355  1.0000
  N   N5        1.0  0.8169528373726109  0.04101579554534139  0.6271162266378596  1.0000
  N   N6        1.0  0.6830278341236067  0.5410339079007898  0.1271184022644647  1.0000
  N   N7        1.0  0.1830558140919365  0.9589627035900602  0.372885286731794  1.0000
  N   N8        1.0  0.3169633636876553  0.4589721280458932  0.8728906514787907  1.0000
  N   N9        1.0  0.1344963780887696  0.9693606888361826  0.8921351974882725  1.0000
  N   N10       1.0  0.3655189851348765  0.4693487922427266  0.3921384557755587  1.0000
  N   N11       1.0  0.8654756174260143  0.030651624064759596  0.1078627497578282  1.0000
  N   N12       1.0  0.6345263254961891  0.5306542230173078  0.6078641568521376  1.0000
