data_image0
_chemical_formula_structural       Gd4P4H36C32N4O36
_chemical_formula_sum              "Gd4 P4 H36 C32 N4 O36"
_cell_length_a       9.55085073647636
_cell_length_b       10.536206995023528
_cell_length_c       15.514603744135263
_cell_angle_alpha    89.9998117061718
_cell_angle_beta     102.97163207890596
_cell_angle_gamma    90.00018552978959

_space_group_name_H-M_alt    "P 1"
_space_group_IT_number       1

loop_
  _space_group_symop_operation_xyz
  'x, y, z'

loop_
  _atom_site_type_symbol
  _atom_site_label
  _atom_site_symmetry_multiplicity
  _atom_site_fract_x
  _atom_site_fract_y
  _atom_site_fract_z
  _atom_site_occupancy
  Gd  Gd1       1.0  0.21740426795265225  0.12025516015694392  0.39761617119005893  1.0000
  Gd  Gd2       1.0  0.28259453004152846  0.6202537315217285  0.10238847118792899  1.0000
  Gd  Gd3       1.0  0.782606636078171  0.8797384745697985  0.602383915584987  1.0000
  Gd  Gd4       1.0  0.7173948554657272  0.37973990316577044  0.897615051965687  1.0000
  P   P1        1.0  0.1668373999145558  0.8673241390837705  0.2325180637155881  1.0000
  P   P2        1.0  0.33315889547123595  0.36732652509334685  0.2674882490944698  1.0000
  P   P3        1.0  0.8331648848292161  0.13266949562108013  0.76748597417577  1.0000
  P   P4        1.0  0.666835891936053  0.6326661605074124  0.7325095839062216  1.0000
  H   H1        1.0  0.334893597776194  0.8877399311401039  0.9271031326432961  1.0000
  H   H2        1.0  0.16510200365953412  0.387736121838657  0.5729001690828213  1.0000
  H   H3        1.0  0.6651033296184891  0.11226129643179662  0.072896933276553  1.0000
  H   H4        1.0  0.8348917212078248  0.6122726986057715  0.4270949370864372  1.0000
  H   H5        1.0  0.39649253297751136  0.12323245738333102  0.9242488554069085  1.0000
  H   H6        1.0  0.10349695946491273  0.6232277929948469  0.5757438763172829  1.0000
  H   H7        1.0  0.6034904771607117  0.8767706684157592  0.0757383068385522  1.0000
  H   H8        1.0  0.8965010780139694  0.3767800783539173  0.4242486101534696  1.0000
  H   H9        1.0  0.2947224978403185  0.2711320980866746  0.022415044113138508  1.0000
  H   H10       1.0  0.20527463426549283  0.7711267498801818  0.4775812899882936  1.0000
  H   H11       1.0  0.7052776766396676  0.7288729259338071  0.9775803194284906  1.0000
  H   H12       1.0  0.7947298468942422  0.2288820705823228  0.5224127421329001  1.0000
  H   H13       1.0  0.14652779862371554  0.18005428070732427  0.12088531404968711  1.0000
  H   H14       1.0  0.3534722748711872  0.6800479333829588  0.3791142152386371  1.0000
  H   H15       1.0  0.8534841768932468  0.8199488451006262  0.8791155671095154  1.0000
  H   H16       1.0  0.6465268281282874  0.3199513959889445  0.6208803539153324  1.0000
  H   H17       1.0  0.0024943242248056997  0.8506740342891349  0.0921604070911712  1.0000
  H   H18       1.0  0.49750516885119106  0.3506629336023935  0.4078412340444899  1.0000
  H   H19       1.0  0.9975036746560236  0.14933668436397343  0.9078404532128275  1.0000
  H   H20       1.0  0.5024885530270636  0.6493325993262931  0.5921545162782281  1.0000
  H   H21       1.0  0.9887461496242765  0.0011466528797897005  0.14410371850353704  1.0000
  H   H22       1.0  0.5112603311733964  0.5011384815089813  0.3559028922664567  1.0000
  H   H23       1.0  0.011267945090011697  0.9988621675639991  0.8559039045659986  1.0000
  H   H24       1.0  0.4887376884651289  0.49885325499182914  0.6440934590664895  1.0000
  H   H25       1.0  0.03055743932864631  0.8487790969579478  0.3249255520262153  1.0000
  H   H26       1.0  0.46943558961495313  0.34877662402382015  0.1750777676488582  1.0000
  H   H27       1.0  0.9694352170079058  0.15121074132525797  0.6750681156264023  1.0000
  H   H28       1.0  0.5305634747625448  0.6512094178137603  0.8249251753532293  1.0000
  H   H29       1.0  0.0170674884104827  0.2624486559534347  0.2730144401719627  1.0000
  H   H30       1.0  0.4829285167833532  0.7624443600544456  0.2269875569523023  1.0000
  H   H31       1.0  0.9829369333569107  0.7375573171536376  0.7269924747762746  1.0000
  H   H32       1.0  0.5170630680980182  0.23755686752699756  0.773005316296917  1.0000
  H   H33       1.0  0.8892899155925136  0.17698457541435186  0.29223108988207264  1.0000
  H   H34       1.0  0.6107085059184598  0.676988790019607  0.20777077406905423  1.0000
  H   H35       1.0  0.1107145002290295  0.8230166521488443  0.7077771133529823  1.0000
  H   H36       1.0  0.3892916685671537  0.32302003043349714  0.7922245894690718  1.0000
  C   C1        1.0  0.29662485332310956  0.9599346428631748  0.9663992682626771  1.0000
  C   C2        1.0  0.2033784951466515  0.4599311322310911  0.5336023755975674  1.0000
  C   C3        1.0  0.7033774581579807  0.040067533829017114  0.03359897234982162  1.0000
  C   C4        1.0  0.7966119974894711  0.5400786373132861  0.4663942122394289  1.0000
  C   C5        1.0  0.3290195698453858  0.08792448495157862  0.9670849597877194  1.0000
  C   C6        1.0  0.17097623486724703  0.5879249658813421  0.5329151799303702  1.0000
  C   C7        1.0  0.6709720090929494  0.9120738953022995  0.032909201746569736  1.0000
  C   C8        1.0  0.8290217729189848  0.4120838545600947  0.4670837479517189  1.0000
  C   C9        1.0  0.2742543027474298  0.16964773001254943  0.0223373361835613  1.0000
  C   C10       1.0  0.22574464763309984  0.6696414912981297  0.4776659268806895  1.0000
  C   C11       1.0  0.725743699092952  0.8303563448850187  0.9776628799853456  1.0000
  C   C12       1.0  0.7742576668230257  0.3303644818282408  0.5223316695870892  1.0000
  C   C13       1.0  0.18930329124589215  0.11953741553411851  0.0760419672168666  1.0000
  C   C14       1.0  0.3107030375718054  0.619525035328195  0.4239611516909889  1.0000
  C   C15       1.0  0.8107065205551578  0.8804752013452843  0.9239618341363353  1.0000
  C   C16       1.0  0.6892982054024017  0.3804742940414345  0.5760356503900113  1.0000
  C   C17       1.0  0.1556784236109152  0.9907484258569359  0.0739995554290971  1.0000
  C   C18       1.0  0.3443268451392143  0.49074249130789854  0.42600515535318817  1.0000
  C   C19       1.0  0.8443335400298295  0.009255649052981601  0.92600390229412  1.0000
  C   C20       1.0  0.6556690375024274  0.5092549398456755  0.5739883189062596  1.0000
  C   C21       1.0  0.0632120775394185  0.9305851468844963  0.1277328730126968  1.0000
  C   C22       1.0  0.43679086097088066  0.4305816345976865  0.37227229229250014  1.0000
  C   C23       1.0  0.9367955913006085  0.06941608069774223  0.872269339565193  1.0000
  C   C24       1.0  0.5632071527400913  0.569417694765285  0.6277253473158952  1.0000
  C   C25       1.0  0.5424688559741925  0.03833887604521641  0.4713021866422409  1.0000
  C   C26       1.0  0.9575291633360196  0.5383373556716223  0.028698000429194785  1.0000
  C   C27       1.0  0.45753553015750736  0.9616651988269643  0.5287124580024027  1.0000
  C   C28       1.0  0.04246351973504401  0.4616591263826137  0.9712898699463111  1.0000
  C   C29       1.0  0.015708446338884102  0.05640898898159461  0.5327761792156238  1.0000
  C   C30       1.0  0.48429799449123584  0.556407341841968  0.9672287418137416  1.0000
  C   C31       1.0  0.9842960526344698  0.9435979332738856  0.46721398805998865  1.0000
  C   C32       1.0  0.5157063708518094  0.44359483480305795  0.032790411821203194  1.0000
  N   N1        1.0  0.21092534500092344  0.9133128023127598  0.0184500002974275  1.0000
  N   N2        1.0  0.28907538153008266  0.4133064422555608  0.4815574729066654  1.0000
  N   N3        1.0  0.7890780052915787  0.08669127257836354  0.9815561202596542  1.0000
  N   N4        1.0  0.7109151259432167  0.5866966835394649  0.5184358942303433  1.0000
  O   O1        1.0  0.2324283234226243  0.97829002536502  0.28987990201167696  1.0000
  O   O2        1.0  0.2675768965330079  0.4783000901934147  0.2101274082829008  1.0000
  O   O3        1.0  0.7675804109267406  0.021695067375098607  0.710124393256429  1.0000
  O   O4        1.0  0.7324307871540582  0.5217011373965619  0.7898715835888837  1.0000
  O   O5        1.0  0.05236629987672361  0.7957260007390731  0.27481624910745955  1.0000
  O   O6        1.0  0.44762443178034067  0.29572132653786554  0.22518493542507656  1.0000
  O   O7        1.0  0.9476274160627158  0.20426953218651545  0.7251807894976993  1.0000
  O   O8        1.0  0.5523682156367399  0.7042609188754414  0.7748106646582045  1.0000
  O   O9        1.0  0.2747648527700052  0.7725036946431985  0.2114725777299782  1.0000
  O   O10       1.0  0.22522578926270134  0.272511363378932  0.28853315858090417  1.0000
  O   O11       1.0  0.7252342027049039  0.22748614362236458  0.788532297692278  1.0000
  O   O12       1.0  0.7747636407940919  0.7274879659807285  0.7114607024491448  1.0000
  O   O13       1.0  0.17608592746508833  0.7918876651971941  0.012514617124196502  1.0000
  O   O14       1.0  0.3239122871769595  0.29188327530242475  0.4874934235153106  1.0000
  O   O15       1.0  0.823914193558558  0.2081126132546346  0.987492340963783  1.0000
  O   O16       1.0  0.6760739225262212  0.7081170031633732  0.5124993426175948  1.0000
  O   O17       1.0  0.6780744084680705  0.023636392819433603  0.4897305273014324  1.0000
  O   O18       1.0  0.8219310972499017  0.5236374173227533  0.010268806204003089  1.0000
  O   O19       1.0  0.3219396595074997  0.9763629365288511  0.5102828930478367  1.0000
  O   O20       1.0  0.17806587467742932  0.47635811562342684  0.9897215976027739  1.0000
  O   O21       1.0  0.4708781280322897  0.10867637192030342  0.41178687041131223  1.0000
  O   O22       1.0  0.029127085239693408  0.608669535201834  0.08821805068146202  1.0000
  O   O23       1.0  0.5291402139595576  0.8913267538529726  0.5882323040709565  1.0000
  O   O24       1.0  0.9708634281569458  0.39132315040655646  0.9117740281827267  1.0000
  O   O25       1.0  0.08198431417851282  0.15058249183238107  0.5124506793516659  1.0000
  O   O26       1.0  0.418011652566321  0.6505824544631766  0.9875544980113348  1.0000
  O   O27       1.0  0.9180180180701286  0.8494073464646165  0.48754305228365524  1.0000
  O   O28       1.0  0.581981965381317  0.3494121293031753  0.01246379725500188  1.0000
  O   O29       1.0  0.9691063757582231  0.042880657279454205  0.6031677417310846  1.0000
  O   O30       1.0  0.5309026798398121  0.5428875320098572  0.896840134246041  1.0000
  O   O31       1.0  0.03090348055859239  0.9571148756763396  0.39682639751954696  1.0000
  O   O32       1.0  0.4690995336550969  0.45711749195571383  0.10317936302413239  1.0000
  O   O33       1.0  0.9797043787811361  0.21808956709155328  0.31883520087997397  1.0000
  O   O34       1.0  0.5202909323667839  0.7180860557893498  0.18116806898604662  1.0000
  O   O35       1.0  0.020304340742306706  0.7819097622631762  0.6811723150811204  1.0000
  O   O36       1.0  0.4797027954545002  0.2819123244669086  0.8188263930516015  1.0000
