data_image0
_chemical_formula_structural       Cd4H28C32N4O20
_chemical_formula_sum              "Cd4 H28 C32 N4 O20"
_cell_length_a       8.352329325434813
_cell_length_b       8.417011256463075
_cell_length_c       12.547487493021672
_cell_angle_alpha    89.99993913339574
_cell_angle_beta     90.00020958582022
_cell_angle_gamma    107.3342043743016

_space_group_name_H-M_alt    "P 1"
_space_group_IT_number       1

loop_
  _space_group_symop_operation_xyz
  'x, y, z'

loop_
  _atom_site_type_symbol
  _atom_site_label
  _atom_site_symmetry_multiplicity
  _atom_site_fract_x
  _atom_site_fract_y
  _atom_site_fract_z
  _atom_site_occupancy
  Cd  Cd1       1.0  0.5150247575129256  0.7960322136942394  0.4293659737020477  1.0000
  Cd  Cd2       1.0  0.4849738958550631  0.7039658917473802  0.9293664688685723  1.0000
  Cd  Cd3       1.0  0.4849734968817501  0.2039662377199534  0.5706326770223029  1.0000
  Cd  Cd4       1.0  0.5150247361060281  0.2960338042562185  0.0706337758003883  1.0000
  H   H1        1.0  0.033136684732625134  0.620038876019855  0.4334531300680595  1.0000
  H   H2        1.0  0.9668632509644796  0.8799554879005316  0.9334506695246888  1.0000
  H   H3        1.0  0.9668647169095408  0.3799620565244339  0.5665495055206904  1.0000
  H   H4        1.0  0.03314249395236151  0.12004792174911223  0.0665455902899623  1.0000
  H   H5        1.0  0.07990603488337913  0.6137518634158069  0.04007562945479751  1.0000
  H   H6        1.0  0.9200903729154107  0.8862499516584778  0.5400738493551245  1.0000
  H   H7        1.0  0.9200925970821742  0.3862478325878484  0.9599262091587804  1.0000
  H   H8        1.0  0.0799038523738318  0.1137510050318298  0.45992320741890313  1.0000
  H   H9        1.0  0.8484224483133928  0.6989555463108557  0.12333621614831712  1.0000
  H   H10       1.0  0.15157562226151106  0.8010462707617523  0.6233334525554426  1.0000
  H   H11       1.0  0.1515785123964548  0.3010478794364957  0.8766664194390188  1.0000
  H   H12       1.0  0.8484229463135761  0.19895716303405211  0.37666121330600083  1.0000
  H   H13       1.0  0.2514269553164254  0.4781447500924828  0.4341444170487136  1.0000
  H   H14       1.0  0.7485749523424232  0.021852820951117697  0.9341432824702168  1.0000
  H   H15       1.0  0.7485728727053456  0.5218549418868009  0.5658574215662924  1.0000
  H   H16       1.0  0.25142846384352413  0.9781468589550002  0.0658569622044851  1.0000
  H   H17       1.0  0.3688907654010123  0.48051033982489605  0.32403566054613014  1.0000
  H   H18       1.0  0.6311085104869748  0.0194884758919969  0.8240350432127671  1.0000
  H   H19       1.0  0.6311078665623101  0.519489356178731  0.6759653810951393  1.0000
  H   H20       1.0  0.36889213602459137  0.980509967473516  0.1759652014590571  1.0000
  H   H21       1.0  0.38471721832147676  0.7146313900615199  0.6571325609721725  1.0000
  H   H22       1.0  0.6152846298789715  0.7853704173827865  0.15713311055924353  1.0000
  H   H23       1.0  0.6152829872533018  0.28536954650699903  0.34286608975363453  1.0000
  H   H24       1.0  0.3847163941945412  0.2146292705720683  0.8428671341125877  1.0000
  H   H25       1.0  0.36579969992902756  0.5566365523695892  0.5854696420755374  1.0000
  H   H26       1.0  0.6342001729396715  0.9433640093259117  0.0854693275143603  1.0000
  H   H27       1.0  0.6342008832099424  0.4433656287882997  0.41452980562257846  1.0000
  H   H28       1.0  0.36580047357189466  0.0566344340396014  0.9145309171574638  1.0000
  C   C1        1.0  0.9250234418919945  0.6616907969475959  0.2840386132536707  1.0000
  C   C2        1.0  0.07497597044465457  0.8383085385465205  0.7840364365896235  1.0000
  C   C3        1.0  0.07497833731212467  0.3383113801860346  0.7159640223350864  1.0000
  C   C4        1.0  0.9250270047955667  0.1616936345624893  0.2159590262498483  1.0000
  C   C5        1.0  0.043694886873161976  0.6185419534330665  0.34684297522792207  1.0000
  C   C6        1.0  0.9563049408891754  0.8814536488116714  0.8468412852961791  1.0000
  C   C7        1.0  0.9563065147667728  0.38145897911119414  0.6531588633885264  1.0000
  C   C8        1.0  0.0436992304117325  0.1185485202730234  0.1531557714893381  1.0000
  C   C9        1.0  0.17816789105176406  0.5763668936354874  0.300405966161378  1.0000
  C   C10       1.0  0.8218292842869984  0.9236287132988537  0.8004023300957641  1.0000
  C   C11       1.0  0.8218307409160276  0.4236328023681963  0.6995966694244943  1.0000
  C   C12       1.0  0.1781717397775822  0.07637097465588741  0.1995947266868612  1.0000
  C   C13       1.0  0.18818667607033024  0.5708227407177799  0.1877101116772977  1.0000
  C   C14       1.0  0.8118118187356628  0.9291753432190717  0.6877104325243906  1.0000
  C   C15       1.0  0.8118131519492096  0.42917695126147487  0.8122909299653999  1.0000
  C   C16       1.0  0.1881864356612439  0.07082310819514961  0.3122890151722686  1.0000
  C   C17       1.0  0.06932316889263031  0.6179262215264956  0.1262633879917914  1.0000
  C   C18       1.0  0.9306741629696657  0.8820731065791917  0.6262616362196738  1.0000
  C   C19       1.0  0.9306770366933179  0.3820747150421653  0.8737392475955305  1.0000
  C   C20       1.0  0.06932207687229662  0.11792659747305832  0.3737362175295118  1.0000
  C   C21       1.0  0.9404981268490856  0.6657288816985697  0.1727286967279298  1.0000
  C   C22       1.0  0.059499465476250187  0.834270449768212  0.6727264858641959  1.0000
  C   C23       1.0  0.059501260242598206  0.33427330348380485  0.8272739388579566  1.0000
  C   C24       1.0  0.940498347981645  0.16573049484897953  0.3272705709141306  1.0000
  C   C25       1.0  0.7800809958152612  0.7005135908765324  0.3350597956577844  1.0000
  C   C26       1.0  0.21991908008695293  0.7994869928976056  0.8350579938749334  1.0000
  C   C27       1.0  0.21991920977069404  0.2994873456921282  0.6649428399295374  1.0000
  C   C28       1.0  0.7800819439709273  0.2005126950570499  0.16493667199078743  1.0000
  C   C29       1.0  0.3107842310622928  0.5037492635818737  0.1310216425205581  1.0000
  C   C30       1.0  0.6892147010934978  0.9962513054330201  0.6310208249308503  1.0000
  C   C31       1.0  0.689215596957247  0.4962504283973815  0.8689793991221463  1.0000
  C   C32       1.0  0.3107795875750554  0.0037459134649893006  0.3689794197337974  1.0000
  N   N1        1.0  0.3006189745573309  0.5430430091241975  0.3666281472762165  1.0000
  N   N2        1.0  0.6993801456204025  0.956953843165465  0.8666273820186847  1.0000
  N   N3        1.0  0.6993816719587045  0.4569554342413724  0.6333736913402177  1.0000
  N   N4        1.0  0.3006213193876661  0.04304335158635551  0.1333736596268693  1.0000
  O   O1        1.0  0.738509038628244  0.6504091953938342  0.4309841470198634  1.0000
  O   O2        1.0  0.26149239348086445  0.8495901467053957  0.930983206130179  1.0000
  O   O3        1.0  0.26149198544973734  0.3495904925610774  0.5690176915965779  1.0000
  O   O4        1.0  0.7385086305859473  0.150409541249374  0.0690146476247477  1.0000
  O   O5        1.0  0.6976175910520651  0.7806207610763778  0.28389324955666956  1.0000
  O   O6        1.0  0.30238496770783035  0.7193810555371983  0.7838917023713421  1.0000
  O   O7        1.0  0.30238223697194394  0.21937893090293406  0.716109386030638  1.0000
  O   O8        1.0  0.6976180075368674  0.28062111757186153  0.21610535441273274  1.0000
  O   O9        1.0  0.3045903242086183  0.4903459610046283  0.029348695332238606  1.0000
  O   O10       1.0  0.6954068588582486  0.009655326598853303  0.5293474420707867  1.0000
  O   O11       1.0  0.6954074892604397  0.5096549836127124  0.9706523463076026  1.0000
  O   O12       1.0  0.30458579282176873  0.990344389526591  0.4706528025910118  1.0000
  O   O13       1.0  0.4158340497155706  0.4531191356791453  0.18586224749804361  1.0000
  O   O14       1.0  0.5841671579359726  0.0468846443758579  0.6858614982003105  1.0000
  O   O15       1.0  0.5841677294818481  0.5468830414544072  0.8141379971738091  1.0000
  O   O16       1.0  0.4158287043529754  0.953113815087157  0.3141395434380811  1.0000
  O   O17       1.0  0.4325939389167033  0.6750151646470215  0.593546994228845  1.0000
  O   O18       1.0  0.5674067977286371  0.8249841490190947  0.09354819788222808  1.0000
  O   O19       1.0  0.5674074627142928  0.32498576789712535  0.40645165649839754  1.0000
  O   O20       1.0  0.4325926527311807  0.17501429837083998  0.9064536407327638  1.0000
