data_image0
_chemical_formula_structural       Ca4H44C20N4Cl8O12
_chemical_formula_sum              "Ca4 H44 C20 N4 Cl8 O12"
_cell_length_a       7.045801590012073
_cell_length_b       11.535280053005557
_cell_length_c       12.111331397015729
_cell_angle_alpha    90.00002572102254
_cell_angle_beta     90.00018180134883
_cell_angle_gamma    90.00011029075705

_space_group_name_H-M_alt    "P 1"
_space_group_IT_number       1

loop_
  _space_group_symop_operation_xyz
  'x, y, z'

loop_
  _atom_site_type_symbol
  _atom_site_label
  _atom_site_symmetry_multiplicity
  _atom_site_fract_x
  _atom_site_fract_y
  _atom_site_fract_z
  _atom_site_occupancy
  Ca  Ca1       1.0  0.44493826901944544  0.7806220721029576  0.42154381993669443  1.0000
  Ca  Ca2       1.0  0.05505835175627281  0.219375078222221  0.9215412241225067  1.0000
  Ca  Ca3       1.0  0.5550673780189612  0.28062378974819063  0.07845684703053732  1.0000
  Ca  Ca4       1.0  0.9449470060626625  0.7193763851831889  0.5784617792016818  1.0000
  H   H1        1.0  0.449693682852633  0.5217648824106362  0.3470507220711029  1.0000
  H   H2        1.0  0.050303948794592705  0.478233965446961  0.8470507015389473  1.0000
  H   H3        1.0  0.550306894832339  0.021764896901039808  0.1529498378971823  1.0000
  H   H4        1.0  0.9496908662385979  0.9782361812049769  0.6529491060781681  1.0000
  H   H5        1.0  0.2642146678597257  0.5562580997367804  0.413336417466141  1.0000
  H   H6        1.0  0.23578048864392537  0.4437399134969055  0.9133375489419819  1.0000
  H   H7        1.0  0.7357831793868216  0.056258301167332506  0.0866633310837699  1.0000
  H   H8        1.0  0.7642142182478724  0.9437401439377308  0.5866614187440788  1.0000
  H   H9        1.0  0.275546086233703  0.6882151182373804  0.7999925416189059  1.0000
  H   H10       1.0  0.22446264168995364  0.31178630742512325  0.29999206175843807  1.0000
  H   H11       1.0  0.7244492388888589  0.18821362766318117  0.7000054947777488  1.0000
  H   H12       1.0  0.7755459416201875  0.8117822719266741  0.2000135721298122  1.0000
  H   H13       1.0  0.29073546867230954  0.9224200889815392  0.7372629192532614  1.0000
  H   H14       1.0  0.20926581889378335  0.07757957231387988  0.23726148901592842  1.0000
  H   H15       1.0  0.7092591713904214  0.42242034481729  0.7627385166397431  1.0000
  H   H16       1.0  0.7907391916155221  0.5775764522310355  0.2627390940257754  1.0000
  H   H17       1.0  0.22725682208139383  0.8742825444572798  0.8709698686007388  1.0000
  H   H18       1.0  0.2727451985622197  0.12571718195778908  0.3709694004995683  1.0000
  H   H19       1.0  0.7727348284961125  0.37428194329388015  0.6290290703733916  1.0000
  H   H20       1.0  0.7272628014314081  0.6257156555402971  0.12903285378812512  1.0000
  H   H21       1.0  0.49978964042530555  0.9957830170163435  0.9135773506161728  1.0000
  H   H22       1.0  0.0002083559714166  0.0042201977700245  0.4135763318408437  1.0000
  H   H23       1.0  0.5001995524920844  0.49578380679585604  0.5864265926143517  1.0000
  H   H24       1.0  0.9997935859935796  0.5042163720028795  0.08642504654918072  1.0000
  H   H25       1.0  0.6224764847425491  0.9513732148629471  0.7920771869558364  1.0000
  H   H26       1.0  0.8775220391169681  0.048631398624273514  0.29207275103096464  1.0000
  H   H27       1.0  0.3775125689477434  0.4513687173739316  0.7079275635905306  1.0000
  H   H28       1.0  0.12248429992131804  0.5486274620089657  0.20792616870047453  1.0000
  H   H29       1.0  0.7646308210280992  0.8244488022124018  0.9292958963271332  1.0000
  H   H30       1.0  0.7353727130184995  0.1755584788241222  0.42929125183176353  1.0000
  H   H31       1.0  0.2353620926063442  0.3244475374997506  0.5707021963770842  1.0000
  H   H32       1.0  0.2646297660615957  0.6755529095772131  0.0707052433396385  1.0000
  H   H33       1.0  0.542698821270676  0.8066745206822076  0.9996834911904315  1.0000
  H   H34       1.0  0.9573079372595219  0.19333192773132876  0.4996792615775619  1.0000
  H   H35       1.0  0.4572997137947042  0.306675217814508  0.5003178968648996  1.0000
  H   H36       1.0  0.0426945975429334  0.6933260618900049  0.0003188922862805  1.0000
  H   H37       1.0  0.6799571401031769  0.697976714611073  0.7968115966630693  1.0000
  H   H38       1.0  0.8200470868407095  0.30202703427860206  0.2968030315632931  1.0000
  H   H39       1.0  0.32003395777380916  0.19797561450059928  0.7031889207837311  1.0000
  H   H40       1.0  0.17996004656126982  0.8020248971021003  0.20319103886742343  1.0000
  H   H41       1.0  0.5400456304991439  0.6428327841143043  0.8937405194774115  1.0000
  H   H42       1.0  0.9599562893077122  0.3571710119811371  0.39373223408734503  1.0000
  H   H43       1.0  0.4599467137948992  0.14283266907029457  0.6062608008510467  1.0000
  H   H44       1.0  0.040042501256650105  0.8571660615116553  0.1062635104740082  1.0000
  C   C1        1.0  0.4283630076980458  0.7332908020241649  0.6555667860587349  1.0000
  C   C2        1.0  0.07167189478376909  0.26670448497431926  0.1555651812995151  1.0000
  C   C3        1.0  0.571642393731466  0.23328746736414976  0.8444337459971791  1.0000
  C   C4        1.0  0.9283620943181532  0.7667033011360261  0.3444354799405573  1.0000
  C   C5        1.0  0.3919970285119447  0.7472514597882876  0.7783649807247814  1.0000
  C   C6        1.0  0.10801016154647411  0.25274995533982997  0.2783634369497321  1.0000
  C   C7        1.0  0.6079956431178105  0.2472489752025169  0.7216347314169483  1.0000
  C   C8        1.0  0.8920024945314469  0.7527478018272618  0.22163639282964454  1.0000
  C   C9        1.0  0.3413103883502657  0.8736610254137886  0.8091229329727058  1.0000
  C   C10       1.0  0.15869129319607106  0.1263404046902465  0.3091181273269896  1.0000
  C   C11       1.0  0.6586869374215425  0.37365945266523687  0.6908776570956476  1.0000
  C   C12       1.0  0.8413110316005331  0.6263390431964595  0.19087999884784781  1.0000
  C   C13       1.0  0.5252428287750562  0.9227930263502769  0.8577164483356724  1.0000
  C   C14       1.0  0.9747560549661574  0.0772107521998393  0.3577130284469803  1.0000
  C   C15       1.0  0.47474755460828544  0.422792946346476  0.6422874647266639  1.0000
  C   C16       1.0  0.025247535096859505  0.577205801784089  0.1422867287675373  1.0000
  C   C17       1.0  0.6104070274427829  0.8199555363137848  0.91891869483743  1.0000
  C   C18       1.0  0.8895964497045554  0.18005000585719694  0.4189135097264726  1.0000
  C   C19       1.0  0.38958587211635637  0.31995532584475933  0.581082698702005  1.0000
  C   C20       1.0  0.11040604346035819  0.6800442593818588  0.08108463864751062  1.0000
  N   N1        1.0  0.5627953369353591  0.7179258913936618  0.846546735381402  1.0000
  N   N2        1.0  0.9372091626995529  0.2820770148137157  0.3465416798721463  1.0000
  N   N3        1.0  0.4371972427693863  0.21792577244571018  0.6534546159856447  1.0000
  N   N4        1.0  0.06279506960060391  0.7820738480282614  0.1534565106749852  1.0000
  Cl  Cl1       1.0  0.45523474324969027  0.8657218252317666  0.21313901374637112  1.0000
  Cl  Cl2       1.0  0.044757896347995506  0.13428042502673782  0.7131380151938629  1.0000
  Cl  Cl3       1.0  0.5447711705623348  0.3657218983944616  0.2868600370490952  1.0000
  Cl  Cl4       1.0  0.9552330018435244  0.6342775111226898  0.7868624759246714  1.0000
  Cl  Cl5       1.0  0.507977816771849  0.9969471785375531  0.5124934609261516  1.0000
  Cl  Cl6       1.0  0.9920191742321267  0.0030538311630295  0.012497473146055402  1.0000
  Cl  Cl7       1.0  0.49201989548276265  0.49694555326441037  0.9875038774084288  1.0000
  Cl  Cl8       1.0  0.007981344798103902  0.5030542299055936  0.48750390476143934  1.0000
  O   O1        1.0  0.38268092302821805  0.5883267374265698  0.3809709747630735  1.0000
  O   O2        1.0  0.11731263674127491  0.4116721269489432  0.8809718754434216  1.0000
  O   O3        1.0  0.6173184440356041  0.08832681460097545  0.11902878704319872  1.0000
  O   O4        1.0  0.8826819696208973  0.9116725131744873  0.6190270789879406  1.0000
  O   O5        1.0  0.5938089235843194  0.7183783786840291  0.617353134528905  1.0000
  O   O6        1.0  0.9061801265832018  0.2816226820777885  0.1173422421565178  1.0000
  O   O7        1.0  0.4061808189755285  0.2183766008912471  0.8826515197144432  1.0000
  O   O8        1.0  0.09382694285460504  0.7816231312164847  0.3826509941678466  1.0000
  O   O9        1.0  0.2816187247570597  0.7414838260145514  0.5938244732792697  1.0000
  O   O10       1.0  0.218374679974815  0.25851836613625073  0.0938289142743969  1.0000
  O   O11       1.0  0.7183739287869955  0.2414798279539454  0.9061744108051286  1.0000
  O   O12       1.0  0.7816365749124686  0.7585144382419243  0.4061758719259316  1.0000
