data_image0
_chemical_formula_structural       Ag2H10C14S2N4
_chemical_formula_sum              "Ag2 H10 C14 S2 N4"
_cell_length_a       5.8933301313135145
_cell_length_b       7.243981664331457
_cell_length_c       9.486287987914142
_cell_angle_alpha    102.30095541508115
_cell_angle_beta     106.33662887062196
_cell_angle_gamma    95.98057689259838

_space_group_name_H-M_alt    "P 1"
_space_group_IT_number       1

loop_
  _space_group_symop_operation_xyz
  'x, y, z'

loop_
  _atom_site_type_symbol
  _atom_site_label
  _atom_site_symmetry_multiplicity
  _atom_site_fract_x
  _atom_site_fract_y
  _atom_site_fract_z
  _atom_site_occupancy
  Ag  Ag1       1.0  0.8132876410283885  0.9987014722460047  0.32528134792039515  1.0000
  Ag  Ag2       1.0  0.18662910070896285  0.0013362288050587066  0.6746496033452021  1.0000
  H   H1        1.0  0.703849370033204  0.5352933283652989  0.1516708397458616  1.0000
  H   H2        1.0  0.2961967980598316  0.46464624218398154  0.8483524673375203  1.0000
  H   H3        1.0  0.04128169251620759  0.3178967433532023  0.921465705223355  1.0000
  H   H4        1.0  0.9588265859586755  0.6820620148541254  0.07851045653755052  1.0000
  H   H5        1.0  0.6159130766477645  0.40528444276355924  0.3438336919183129  1.0000
  H   H6        1.0  0.3840630779337674  0.5947056030175447  0.6562149150746137  1.0000
  H   H7        1.0  0.7808215117041826  0.14385138190343133  0.030026327110462662  1.0000
  H   H8        1.0  0.21915392943191853  0.8561589216548317  0.9699291516178408  1.0000
  H   H9        1.0  0.3287718846461942  0.22912020538914393  0.4367751942991732  1.0000
  H   H10       1.0  0.6711662375106044  0.770903024377596  0.5632618960100544  1.0000
  C   C1        1.0  0.35599344883718936  0.37809890967940163  0.1230766636382654  1.0000
  C   C2        1.0  0.644024035965657  0.6219118193227332  0.8769159922119203  1.0000
  C   C3        1.0  0.5247830138342238  0.48251945142756386  0.06949738182610332  1.0000
  C   C4        1.0  0.4752423517065053  0.5175425889277607  0.9305410859086012  1.0000
  C   C5        1.0  0.11486111655176498  0.30220736297996353  0.036259732192846214  1.0000
  C   C6        1.0  0.8851598937541425  0.697796382952191  0.9637409772177467  1.0000
  C   C7        1.0  0.43178855059565535  0.3503518988279454  0.270262712494528  1.0000
  C   C8        1.0  0.5682205606144635  0.649646123905896  0.7297318505606186  1.0000
  C   C9        1.0  0.967041655334654  0.20421266264147417  0.09685386033196873  1.0000
  C   C10       1.0  0.03296047351381054  0.7957549898770966  0.9031265771359501  1.0000
  C   C11       1.0  0.3038590745537633  0.8022624329117749  0.34443299837025887  1.0000
  C   C12       1.0  0.6961385525911296  0.19774739119182533  0.6555675391453876  1.0000
  C   C13       1.0  0.2716999287458322  0.25179648731212734  0.3230427905530179  1.0000
  C   C14       1.0  0.7282965835043738  0.7482093370163698  0.6769675067117404  1.0000
  S   S1        1.0  0.07743275473698225  0.7249118271994777  0.3963794903927039  1.0000
  S   S2        1.0  0.9225438026511836  0.2751142390240702  0.603626993053318  1.0000
  N   N1        1.0  0.042140097153812  0.17763182584496212  0.23830979196827684  1.0000
  N   N2        1.0  0.957869198609913  0.8223215260505088  0.7616751259263455  1.0000
  N   N3        1.0  0.4664096978623674  0.8570966417908894  0.30514143380225534  1.0000
  N   N4        1.0  0.5335565589997131  0.14290088922229677  0.6948632458887547  1.0000
