data_image0
_chemical_formula_structural       Zn8H48C96N40O16F16
_chemical_formula_sum              "Zn8 H48 C96 N40 O16 F16"
_cell_length_a       15.827708504971012
_cell_length_b       18.342849828257613
_cell_length_c       17.279833845736597
_cell_angle_alpha    90.03251611524078
_cell_angle_beta     89.09662882510128
_cell_angle_gamma    90.00150016554305

_space_group_name_H-M_alt    "P 1"
_space_group_IT_number       1

loop_
  _space_group_symop_operation_xyz
  'x, y, z'

loop_
  _atom_site_type_symbol
  _atom_site_label
  _atom_site_symmetry_multiplicity
  _atom_site_fract_x
  _atom_site_fract_y
  _atom_site_fract_z
  _atom_site_occupancy
  Zn  Zn1       1.0  0.9932457924738357  0.009797165738355297  0.6550789776719199  1.0000
  Zn  Zn2       1.0  0.0006722183729693006  0.005667129262697298  0.3448461124053424  1.0000
  Zn  Zn3       1.0  0.49969973833487563  0.5054571039910343  0.15566525607255952  1.0000
  Zn  Zn4       1.0  0.5057788374872415  0.508199951024217  0.8450936423198315  1.0000
  Zn  Zn5       1.0  0.855916190354911  0.0025166201690466996  0.49062987855636214  1.0000
  Zn  Zn6       1.0  0.13726849088446605  0.0008902384656792999  0.5097424009373199  1.0000
  Zn  Zn7       1.0  0.36257400024256725  0.500356975717416  0.9911230958514282  1.0000
  Zn  Zn8       1.0  0.6434843885745919  0.5012543871349493  0.009159707692688802  1.0000
  H   H1        1.0  0.707244318422461  0.9052978087412953  0.4000630002852644  1.0000
  H   H2        1.0  0.19307821516610346  0.16823078653354878  0.5107413341340957  1.0000
  H   H3        1.0  0.2827456827506793  0.9007155994358343  0.6006106562877775  1.0000
  H   H4        1.0  0.8084600113769084  0.17141247899862577  0.489294955997707  1.0000
  H   H5        1.0  0.21523613208650968  0.4016795586640852  0.9003344608696224  1.0000
  H   H6        1.0  0.6922866657813529  0.6700509810503945  0.0102041259712067  1.0000
  H   H7        1.0  0.7926910796052268  0.4043142467828956  0.09925190257305161  1.0000
  H   H8        1.0  0.307305800347102  0.6672380111062282  0.9898605158263721  1.0000
  H   H9        1.0  0.14922818886236663  0.8305555069629306  0.5271799993586868  1.0000
  H   H10       1.0  0.6661807825665704  0.04924982267271359  0.5895064053398186  1.0000
  H   H11       1.0  0.8470702345701895  0.8314198265716327  0.473344175692084  1.0000
  H   H12       1.0  0.326596520715121  0.04835707682940439  0.4116311586046635  1.0000
  H   H13       1.0  0.6514804812042385  0.33023519376974514  0.0270730325944442  1.0000
  H   H14       1.0  0.17379627849221893  0.549173083308908  0.0894565110047552  1.0000
  H   H15       1.0  0.34966237602360195  0.3298306021710076  0.9744500386366751  1.0000
  H   H16       1.0  0.8325160726973664  0.5486781690122412  0.9102447337730766  1.0000
  H   H17       1.0  0.8301656309506028  0.20501914179614997  0.24655689498958114  1.0000
  H   H18       1.0  0.3187363427740734  0.9368787249090287  0.8833396999038071  1.0000
  H   H19       1.0  0.1770518378961299  0.2038824108455515  0.7520712643310077  1.0000
  H   H20       1.0  0.6779593446927236  0.9377936126616999  0.11448441003802397  1.0000
  H   H21       1.0  0.32007991309311024  0.702015837807302  0.7476559810127908  1.0000
  H   H22       1.0  0.8259806107877098  0.4391342712574369  0.38368486220475256  1.0000
  H   H23       1.0  0.6691249400085794  0.7054013803029591  0.2544788232272026  1.0000
  H   H24       1.0  0.17993871754993762  0.4388122178379275  0.616769612316645  1.0000
  H   H25       1.0  0.39223003818119656  0.8333440563893005  0.6894996038706864  1.0000
  H   H26       1.0  0.7519558352553161  0.3086895903284558  0.43916126777425296  1.0000
  H   H27       1.0  0.5956606785344646  0.8380938061529971  0.30758437813202727  1.0000
  H   H28       1.0  0.25276318018898547  0.3085215893182109  0.559466692176244  1.0000
  H   H29       1.0  0.9040741747573123  0.33652687954475613  0.190811593528565  1.0000
  H   H30       1.0  0.24657567290851298  0.8065684921887805  0.9411199223335772  1.0000
  H   H31       1.0  0.10424768100365608  0.3352169610420859  0.8097786314576821  1.0000
  H   H32       1.0  0.751530136967439  0.8061534716092847  0.06167192447171031  1.0000
  H   H33       1.0  0.4653326880641657  0.8592073971573981  0.8353991376221047  1.0000
  H   H34       1.0  0.6818005851762478  0.28424692995768197  0.2908491435088933  1.0000
  H   H35       1.0  0.5290325250030818  0.8616483387240592  0.15864974635156406  1.0000
  H   H36       1.0  0.32492601588575093  0.28312062019793416  0.7067361971062951  1.0000
  H   H37       1.0  0.973433490807011  0.3613360401231204  0.3384664488168739  1.0000
  H   H38       1.0  0.17268616595263347  0.7812460963158043  0.7945621207812011  1.0000
  H   H39       1.0  0.0328527415489077  0.361097569495655  0.6631686074343789  1.0000
  H   H40       1.0  0.8189375904100659  0.782959572987174  0.21120782073545996  1.0000
  H   H41       1.0  0.7231219088266627  0.11832421910477821  0.8541687357805969  1.0000
  H   H42       1.0  0.0559858320372015  0.6874073634903225  0.3077478421366208  1.0000
  H   H43       1.0  0.2711243306834916  0.11870093955079852  0.14708018863695568  1.0000
  H   H44       1.0  0.947507788849478  0.6890583047939316  0.6909024010687758  1.0000
  H   H45       1.0  0.22973719138433069  0.6194925305055534  0.35414423682473734  1.0000
  H   H46       1.0  0.549547046935153  0.18771884330111982  0.8100644392760825  1.0000
  H   H47       1.0  0.7744436599723913  0.6188977843691958  0.6462961580446277  1.0000
  H   H48       1.0  0.4447946270700527  0.1868843929171362  0.19330340058174764  1.0000
  C   C1        1.0  0.9609397380019828  0.843716878860775  0.628940477518249  1.0000
  C   C2        1.0  0.175101851186632  0.04766600061231689  0.28498164959631817  1.0000
  C   C3        1.0  0.034010730089242686  0.840062814072489  0.3722441031414477  1.0000
  C   C4        1.0  0.8190538088873183  0.051626878889592796  0.7148287365695155  1.0000
  C   C5        1.0  0.46571791581624217  0.33982128480550944  0.1288297518344095  1.0000
  C   C6        1.0  0.6798106929652902  0.549581370128948  0.7847472507676159  1.0000
  C   C7        1.0  0.5358712482849767  0.34197103947810353  0.8725358124049051  1.0000
  C   C8        1.0  0.32566160674562644  0.5483926248016855  0.21576281503768507  1.0000
  C   C9        1.0  0.7554281902512656  0.9267917174114328  0.36075776394172726  1.0000
  C   C10       1.0  0.13697600279125768  0.16004944368007298  0.5467901959190301  1.0000
  C   C11       1.0  0.23548267819622032  0.923607354934269  0.6399690941162319  1.0000
  C   C12       1.0  0.864184462148735  0.16115996422242765  0.45335891445238735  1.0000
  C   C13       1.0  0.26256772858413774  0.4243979619288751  0.8609552920139406  1.0000
  C   C14       1.0  0.6366787988919214  0.6601124550446825  0.0463933530728724  1.0000
  C   C15       1.0  0.7448120370347412  0.4260527430948002  0.1387356067489023  1.0000
  C   C16       1.0  0.36307718437416975  0.6589129597633416  0.9534043057729206  1.0000
  C   C17       1.0  0.8347982338949863  0.960007666314368  0.26288504376284993  1.0000
  C   C18       1.0  0.031018839430245703  0.16686803439357334  0.627992140269072  1.0000
  C   C19       1.0  0.15775466390025633  0.9592652751382643  0.7379834155103849  1.0000
  C   C20       1.0  0.9703863993823844  0.16393789717847074  0.3721814408778314  1.0000
  C   C21       1.0  0.34020199406492685  0.460013240265134  0.7629042309424036  1.0000
  C   C22       1.0  0.5309634266617351  0.6634881740402745  0.1280712250010581  1.0000
  C   C23       1.0  0.6661594736093975  0.45982833915459737  0.23691415579705213  1.0000
  C   C24       1.0  0.4681390576432562  0.665375825717099  0.8712174744296562  1.0000
  C   C25       1.0  0.10927088715702381  0.8417868171876535  0.4781434464912663  1.0000
  C   C26       1.0  0.7225710294655839  0.04703383025452718  0.6242815688677793  1.0000
  C   C27       1.0  0.8864682217309364  0.8435800715425045  0.522538217373395  1.0000
  C   C28       1.0  0.2706510158002544  0.045011196170321496  0.3763615347310179  1.0000
  C   C29       1.0  0.6116185607085782  0.34223667513855816  0.978166260511138  1.0000
  C   C30       1.0  0.22981705755363183  0.5457437399891134  0.12461163157860973  1.0000
  C   C31       1.0  0.38988119791667936  0.34121544168434076  0.023280288931822195  1.0000
  C   C32       1.0  0.7762122337520835  0.5458859331505792  0.8753944410601447  1.0000
  C   C33       1.0  0.9150872365877661  0.7958260515780536  0.5804886894916664  1.0000
  C   C34       1.0  0.2626225270376993  0.0618615612032229  0.2971093483301104  1.0000
  C   C35       1.0  0.08210586087231059  0.7933975584070578  0.42013587788569134  1.0000
  C   C36       1.0  0.7309382704929491  0.0637898375459045  0.7035440995549535  1.0000
  C   C37       1.0  0.41748289775977543  0.29297377224273186  0.0811947282205381  1.0000
  C   C38       1.0  0.7677111450111199  0.5626975791760811  0.796184733578194  1.0000
  C   C39       1.0  0.5818823302971622  0.2942130569006877  0.9208987988357863  1.0000
  C   C40       1.0  0.2381399449107775  0.5627460549617636  0.2038146929657145  1.0000
  C   C41       1.0  0.7606331384341516  0.9210743970241421  0.2798748977890639  1.0000
  C   C42       1.0  0.1005935125004811  0.20753226633287614  0.6018451876942094  1.0000
  C   C43       1.0  0.23054338531387938  0.9184205418617636  0.7208967625440578  1.0000
  C   C44       1.0  0.902822698722069  0.20712946583307706  0.3981821294311558  1.0000
  C   C45       1.0  0.2669613076734477  0.4198177663035734  0.779956908155725  1.0000
  C   C46       1.0  0.5986936601574585  0.7063207406257278  0.101769903821129  1.0000
  C   C47       1.0  0.7402788998871443  0.4208923008538648  0.219672516417134  1.0000
  C   C48       1.0  0.3985123707374568  0.705934031811246  0.8974908195007814  1.0000
  C   C49       1.0  0.35956424649067026  0.8270575944593618  0.745466584963701  1.0000
  C   C50       1.0  0.78570580704897  0.31428937820851377  0.38367670325632014  1.0000
  C   C51       1.0  0.6306400391307535  0.8306638725903567  0.25293504968297503  1.0000
  C   C52       1.0  0.21977226397682864  0.3138583457255421  0.6153683067729858  1.0000
  C   C53       1.0  0.869918252665265  0.32999121465650205  0.24600943585893725  1.0000
  C   C54       1.0  0.27891510150682564  0.8119365733336888  0.8849145763246752  1.0000
  C   C55       1.0  0.13757640139149171  0.32894010518965183  0.7541253472782614  1.0000
  C   C56       1.0  0.7169051131036355  0.8126602906051373  0.1166088549938138  1.0000
  C   C57       1.0  0.8281995888001461  0.25793227164518123  0.2758966339371369  1.0000
  C   C58       1.0  0.3191146168454466  0.8843949771427546  0.8531346372751258  1.0000
  C   C59       1.0  0.17868353372417542  0.2569855969103259  0.7231683125255657  1.0000
  C   C60       1.0  0.6759793151175587  0.8858505654007229  0.1456364838302022  1.0000
  C   C61       1.0  0.31880327761839306  0.7550867503046986  0.7766849888366991  1.0000
  C   C62       1.0  0.8269117282125009  0.3868089914512609  0.3531758087112564  1.0000
  C   C63       1.0  0.6720754844348776  0.7579429654686223  0.22450918043576001  1.0000
  C   C64       1.0  0.1792388901993505  0.3863246427607336  0.6469094660096106  1.0000
  C   C65       1.0  0.867137429785643  0.27066320399822524  0.35869626244462444  1.0000
  C   C66       1.0  0.2784317493839056  0.870281821607868  0.7715693265486365  1.0000
  C   C67       1.0  0.13846158722324728  0.2703466854388595  0.6410024187248453  1.0000
  C   C68       1.0  0.7131286351486138  0.8729430327746284  0.22885098482897345  1.0000
  C   C69       1.0  0.35997870434468376  0.7684547751702695  0.8584734550431605  1.0000
  C   C70       1.0  0.7882345760727743  0.3731425126480373  0.2706727492879608  1.0000
  C   C71       1.0  0.6346413955568265  0.76993907298057  0.14101914386145611  1.0000
  C   C72       1.0  0.21899927860347657  0.37212763301444335  0.7288435461763143  1.0000
  C   C73       1.0  0.4002123304461875  0.8414708162186102  0.826245357598495  1.0000
  C   C74       1.0  0.7471147412490637  0.3000280164691275  0.3022419852665763  1.0000
  C   C75       1.0  0.5935420049738837  0.8437623932396219  0.17045499843803213  1.0000
  C   C76       1.0  0.2595149479733437  0.29910414816387026  0.6962110015086083  1.0000
  C   C77       1.0  0.9085385151118006  0.3437960547309514  0.32780162283298603  1.0000
  C   C78       1.0  0.23823795410206117  0.7972389909865712  0.8044276432032191  1.0000
  C   C79       1.0  0.0978492706899345  0.3433674418938181  0.6729534577407889  1.0000
  C   C80       1.0  0.7540022047126768  0.7991122447169017  0.19875366827588437  1.0000
  C   C81       1.0  0.11842206626560171  0.7224534442960718  0.4067151139804182  1.0000
  C   C82       1.0  0.6639150507454872  0.09439485568682929  0.7499267477113563  1.0000
  C   C83       1.0  0.8817774793222385  0.7237675145534723  0.5935010549678309  1.0000
  C   C84       1.0  0.3294389714106885  0.09382514366763668  0.251582754634704  1.0000
  C   C85       1.0  0.6149124627823142  0.22205443773096784  0.907871222330634  1.0000
  C   C86       1.0  0.17145886456818724  0.5947833143199048  0.24948591355502708  1.0000
  C   C87       1.0  0.38165023321504066  0.2218710797551751  0.09466271813153071  1.0000
  C   C88       1.0  0.8342784255458254  0.5942798646794856  0.7500514133345461  1.0000
  C   C89       1.0  0.10937583897718642  0.6770250308474245  0.3450401488805923  1.0000
  C   C90       1.0  0.6656803820168379  0.12569494966062675  0.8214382226755815  1.0000
  C   C91       1.0  0.8937431186602253  0.6778767841668197  0.6543081751174497  1.0000
  C   C92       1.0  0.3281699343459509  0.1258512615273872  0.1804606783302987  1.0000
  C   C93       1.0  0.6032938557533287  0.17650303552875357  0.8466596700197755  1.0000
  C   C94       1.0  0.1727193272812926  0.6266556316325234  0.320735302929279  1.0000
  C   C95       1.0  0.39129675722685414  0.1763892720108444  0.1561686409891365  1.0000
  C   C96       1.0  0.8318767292662274  0.62638681553571  0.6790150305504737  1.0000
  N   N1        1.0  0.9580231217301644  0.9126041786666544  0.6023981869515325  1.0000
  N   N2        1.0  0.1371728103350236  0.025494181161228396  0.35087906800438873  1.0000
  N   N3        1.0  0.034763606011289  0.9090233118842614  0.3989685959793619  1.0000
  N   N4        1.0  0.8569967119847277  0.03071783841784279  0.6484304198897847  1.0000
  N   N5        1.0  0.46472683311930035  0.4087171048832943  0.10203154546285728  1.0000
  N   N6        1.0  0.6420791603965768  0.5281610944462328  0.8510469761497248  1.0000
  N   N7        1.0  0.5397837960747509  0.4110819168130034  0.8984120775646147  1.0000
  N   N8        1.0  0.3633134384481167  0.5259644713008527  0.14980396576832086  1.0000
  N   N9        1.0  0.8218457275508796  0.9648154105185826  0.38808481932812106  1.0000
  N   N10       1.0  0.092559783770028  0.09711148021867899  0.5430735854965859  1.0000
  N   N11       1.0  0.17021691451671472  0.9630469374250196  0.6126897158756535  1.0000
  N   N12       1.0  0.9055134980711373  0.0967187023513532  0.4572399851552618  1.0000
  N   N13       1.0  0.32854522076260645  0.4629737183643883  0.8882632078306258  1.0000
  N   N14       1.0  0.5948925966795572  0.5958665146555546  0.04270951473656479  1.0000
  N   N15       1.0  0.6780868901921197  0.4637832870157722  0.11161401029008998  1.0000
  N   N16       1.0  0.40798614394741145  0.5962620469220494  0.957483304399844  1.0000
  N   N17       1.0  0.8724519894872388  0.9854941949236531  0.3261314201976048  1.0000
  N   N18       1.0  0.026032041943800308  0.10114118508835189  0.5946810619229979  1.0000
  N   N19       1.0  0.12061920255003139  0.9852943482630607  0.6747115349754863  1.0000
  N   N20       1.0  0.9721987850702619  0.09818807490437817  0.4056555034459635  1.0000
  N   N21       1.0  0.37803047176893056  0.4852042276824449  0.8261901519637432  1.0000
  N   N22       1.0  0.5285134207937717  0.597728686335998  0.09461492263553588  1.0000
  N   N23       1.0  0.6279538412245032  0.48482395776181875  0.17376851885070013  1.0000
  N   N24       1.0  0.47397991757974006  0.6000763317085642  0.9052703536021199  1.0000
  N   N25       1.0  0.08066467736279752  0.9097240285279965  0.46405011128629065  1.0000
  N   N26       1.0  0.798500817477482  0.0278880186073422  0.5934298156735948  1.0000
  N   N27       1.0  0.912619608369333  0.9121573497796543  0.5369987264550887  1.0000
  N   N28       1.0  0.19509770840259225  0.023920899750308398  0.40642598782520173  1.0000
  N   N29       1.0  0.5859591106587202  0.4108803435932629  0.963364661842121  1.0000
  N   N30       1.0  0.30522208294596004  0.5244029872927101  0.09440524202874909  1.0000
  N   N31       1.0  0.4184672505738333  0.40920628337142523  0.037167091514675094  1.0000
  N   N32       1.0  0.7005395076793803  0.5258855350844059  0.9061009121628061  1.0000
  N   N33       1.0  0.0017454271116293008  0.8303425916934161  0.7009038950793781  1.0000
  N   N34       1.0  0.1217330660449747  0.05222151508293389  0.22012695286566236  1.0000
  N   N35       1.0  0.9915603234957473  0.8255704686567071  0.30137504184619957  1.0000
  N   N36       1.0  0.8727615008048913  0.056558601754972  0.7794266161476316  1.0000
  N   N37       1.0  0.5086853515572612  0.3255284638792091  0.19946944013936732  1.0000
  N   N38       1.0  0.6261004582785786  0.554055476170241  0.720131546962115  1.0000
  N   N39       1.0  0.4935326922874452  0.3279971915212911  0.8014786269377581  1.0000
  N   N40       1.0  0.379261517943469  0.5530253743123976  0.28045137568176404  1.0000
  O   O1        1.0  0.036061337081207505  0.7699197529740472  0.7104530895546829  1.0000
  O   O2        1.0  6.450787207510149e-05  0.8803189929972817  0.7497750783291863  1.0000
  O   O3        1.0  0.04366822865867451  0.03680899441681619  0.2302651612746587  1.0000
  O   O4        1.0  0.15074570320252434  0.07043032473460187  0.1561659833107072  1.0000
  O   O5        1.0  0.9608126404320104  0.7637207064137286  0.29177061020020295  1.0000
  O   O6        1.0  0.9879576887817478  0.8761817854570354  0.2534255041305826  1.0000
  O   O7        1.0  0.9510676191034975  0.042299742803209  0.7688120731655415  1.0000
  O   O8        1.0  0.84391437200501  0.07394756661285838  0.8437214732015832  1.0000
  O   O9        1.0  0.5395311613748816  0.26371742523117797  0.2090006453138784  1.0000
  O   O10       1.0  0.5126337658844805  0.3762821603393292  0.24728162020168304  1.0000
  O   O11       1.0  0.5479110533038422  0.5393416683870454  0.730792870536554  1.0000
  O   O12       1.0  0.6548459979132559  0.5714295055898332  0.6558126359371103  1.0000
  O   O13       1.0  0.45877995615851563  0.26754912760156907  0.7932710524833054  1.0000
  O   O14       1.0  0.494332999132638  0.3774117110841289  0.7520253399313432  1.0000
  O   O15       1.0  0.4571911042557346  0.5371425831559122  0.2701882224302636  1.0000
  O   O16       1.0  0.35060998000858484  0.5717707381950135  0.3443884225740065  1.0000
  F   F1        1.0  0.868800774879034  0.9726332143721023  0.1926753024227494  1.0000
  F   F2        1.0  0.9732427223583001  0.186578728766321  0.6823814459335509  1.0000
  F   F3        1.0  0.12460441591846917  0.973378161828883  0.8082315349753842  1.0000
  F   F4        1.0  0.028970104395241898  0.18138012946867824  0.31761895138178897  1.0000
  F   F5        1.0  0.373300465998092  0.4740400031238465  0.6926353469505527  1.0000
  F   F6        1.0  0.47274424474885274  0.681327089429935  0.18284247809782533  1.0000
  F   F7        1.0  0.6326275759311316  0.47284926130360105  0.30724856028945163  1.0000
  F   F8        1.0  0.5252532042265441  0.6847113043352521  0.816104041125989  1.0000
  F   F9        1.0  0.5906580217846765  0.1005646350302172  0.7085761075542649  1.0000
  F   F10       1.0  0.1807761057093984  0.7070804775340135  0.4585660609430989  1.0000
  F   F11       1.0  0.4022651630169706  0.10009281326572506  0.2935899229150962  1.0000
  F   F12       1.0  0.8189948572100223  0.7072083571129824  0.5424777335121576  1.0000
  F   F13       1.0  0.09860734759514858  0.601224879990255  0.20753279154147458  1.0000
  F   F14       1.0  0.677603470299225  0.20533743147785088  0.9589065012123257  1.0000
  F   F15       1.0  0.9075596232434222  0.6006101590976983  0.7913314255772333  1.0000
  F   F16       1.0  0.3190959307193637  0.20629378198015755  0.04307572804747651  1.0000
