data_image0
_chemical_formula_structural       Cu2H16C20N4Cl4
_chemical_formula_sum              "Cu2 H16 C20 N4 Cl4"
_cell_length_a       7.944980315902223
_cell_length_b       9.042995958537315
_cell_length_c       8.721419306577875
_cell_angle_alpha    121.2016233634256
_cell_angle_beta     107.3233267504984
_cell_angle_gamma    90.03432142825791

_space_group_name_H-M_alt    "P 1"
_space_group_IT_number       1

loop_
  _space_group_symop_operation_xyz
  'x, y, z'

loop_
  _atom_site_type_symbol
  _atom_site_label
  _atom_site_symmetry_multiplicity
  _atom_site_fract_x
  _atom_site_fract_y
  _atom_site_fract_z
  _atom_site_occupancy
  Cu  Cu1       1.0  0.7502058868891482  0.5628077027675218  0.00016099782969555376  1.0000
  Cu  Cu2       1.0  0.2497935137006806  0.43718826065775573  0.9998296755972759  1.0000
  H   H1        1.0  0.10195512670699007  0.7781850653273924  0.3351765297404585  1.0000
  H   H2        1.0  0.39823204663227324  0.44256096150449065  0.6652349485342839  1.0000
  H   H3        1.0  0.898044430580178  0.22179895174065228  0.6648072772528621  1.0000
  H   H4        1.0  0.6017767024268108  0.5574423444398207  0.33475595139439207  1.0000
  H   H5        1.0  0.2703206216110559  0.0917322357483243  0.5147671051445855  1.0000
  H   H6        1.0  0.22991530609637326  0.5758225545637432  0.48485648995782793  1.0000
  H   H7        1.0  0.7296858830360549  0.9082591423933483  0.48523354987628425  1.0000
  H   H8        1.0  0.770076610144173  0.42417517631588453  0.5151376839445447  1.0000
  H   H9        1.0  0.860357074114191  0.17048749898427223  0.12674497801624807  1.0000
  H   H10       1.0  0.6391466797354042  0.0432573051637988  0.8727519648531511  1.0000
  H   H11       1.0  0.13963970673841433  0.8295208789059104  0.8732578922180139  1.0000
  H   H12       1.0  0.3608431542201131  0.9567548453255912  0.12726470558495626  1.0000
  H   H13       1.0  0.137377949960019  0.290383011255372  0.4095930012518494  1.0000
  H   H14       1.0  0.3625022546303498  0.879544843936671  0.5895026994215442  1.0000
  H   H15       1.0  0.8626223923380536  0.7096166167725498  0.5904134736585291  1.0000
  H   H16       1.0  0.6374892578170233  0.12046236115799053  0.4105166209572388  1.0000
  C   C1        1.0  0.8322459988195091  0.9115873008046905  0.08418322984552153  1.0000
  C   C2        1.0  0.6674798740173316  0.8272769921424583  0.9158937066962097  1.0000
  C   C3        1.0  0.16775889649903059  0.0884150736099585  0.9158280522543762  1.0000
  C   C4        1.0  0.33251696620066445  0.1727250581599264  0.08410957665726933  1.0000
  C   C5        1.0  0.05440488201190876  0.8710437211965003  0.29601625101285134  1.0000
  C   C6        1.0  0.4457154074994136  0.5745197300365988  0.7041873064316989  1.0000
  C   C7        1.0  0.9456120173773427  0.12895954572876184  0.7039951383077891  1.0000
  C   C8        1.0  0.5542880086586734  0.4254769746305486  0.29579787445634054  1.0000
  C   C9        1.0  0.14527403089783056  0.043779072508670004  0.3938245828578175  1.0000
  C   C10       1.0  0.3547660993988941  0.6490784361524433  0.6059946736476505  1.0000
  C   C11       1.0  0.8547234487718216  0.9562199865657562  0.6061728285057982  1.0000
  C   C12       1.0  0.6452347896863982  0.35092444181356813  0.3940043166602719  1.0000
  C   C13       1.0  0.9159582805884909  0.08617331208256471  0.17595514972044407  1.0000
  C   C14       1.0  0.5836793102402494  0.9097118259297762  0.8236970642682948  1.0000
  C   C15       1.0  0.0840299957082919  0.913825872987843  0.8240399268170008  1.0000
  C   C16       1.0  0.41632407308166103  0.09029592598843551  0.1763175653577633  1.0000
  C   C17       1.0  0.0730960828486644  0.15334651755202336  0.3342180667465938  1.0000
  C   C18       1.0  0.4267814272738235  0.8182100355962946  0.6652584190461682  1.0000
  C   C19       1.0  0.9269047729375828  0.8466562739922239  0.6657797240679599  1.0000
  C   C20       1.0  0.5732131210670133  0.18179353731920145  0.33474729998235386  1.0000
  N   N1        1.0  0.9001835991746392  0.8075773533282985  0.14725048136479305  1.0000
  N   N2        1.0  0.5998514910236068  0.6601574045287465  0.8530038049080844  1.0000
  N   N3        1.0  0.09982183569842823  0.19242177059310003  0.8527513302651214  1.0000
  N   N4        1.0  0.40015293810832014  0.33984375998120003  0.1469906842846527  1.0000
  Cl  Cl1       1.0  0.9267705343370383  0.48617469584910844  0.19461297273164052  1.0000
  Cl  Cl2       1.0  0.5739999342314092  0.2914940514014149  0.8058207072733339  1.0000
  Cl  Cl3       1.0  0.07322498131552631  0.5138149939866353  0.8053771131747638  1.0000
  Cl  Cl4       1.0  0.4259992951956945  0.7085008575184234  0.1941728608522412  1.0000
