data_image0
_chemical_formula_structural       Co4H36C40N12O8
_chemical_formula_sum              "Co4 H36 C40 N12 O8"
_cell_length_a       4.832507912811566
_cell_length_b       9.699963829009416
_cell_length_c       22.337782337002256
_cell_angle_alpha    89.99994869850758
_cell_angle_beta     90.00001398827544
_cell_angle_gamma    99.91085521880977

_space_group_name_H-M_alt    "P 1"
_space_group_IT_number       1

loop_
  _space_group_symop_operation_xyz
  'x, y, z'

loop_
  _atom_site_type_symbol
  _atom_site_label
  _atom_site_symmetry_multiplicity
  _atom_site_fract_x
  _atom_site_fract_y
  _atom_site_fract_z
  _atom_site_occupancy
  Co  Co1       1.0  0.9229527492694061  0.16630258991740726  0.6846315178595362  1.0000
  Co  Co2       1.0  0.07704437570451719  0.3336975894399218  0.18463196268906054  1.0000
  Co  Co3       1.0  0.07704481018886612  0.8336981434805893  0.31536820955277284  1.0000
  Co  Co4       1.0  0.9229548926783764  0.6663020979091598  0.8153682123955052  1.0000
  H   H1        1.0  0.42374056530402965  0.31030354192248666  0.782869070864898  1.0000
  H   H2        1.0  0.576264518111337  0.18969539410014852  0.28287049373705747  1.0000
  H   H3        1.0  0.5762628420622065  0.6896961464295758  0.21713020887575143  1.0000
  H   H4        1.0  0.4237405981798972  0.8103032482011872  0.7171310243639085  1.0000
  H   H5        1.0  0.7647956676322493  0.3001296545504247  0.864774705896288  1.0000
  H   H6        1.0  0.23520738050964948  0.19986911523125883  0.36477610660821824  1.0000
  H   H7        1.0  0.23520737916665274  0.6998689872525931  0.1352241261725382  1.0000
  H   H8        1.0  0.7647977357815846  0.8001295270700768  0.6352254114927478  1.0000
  H   H9        1.0  0.7552986027863752  0.08542255124629608  0.9253111954853354  1.0000
  H   H10       1.0  0.24470069222979157  0.41457714158533326  0.4253116177752219  1.0000
  H   H11       1.0  0.24470273508809737  0.9145771366047271  0.07468808425525712  1.0000
  H   H12       1.0  0.755300645644958  0.5854225462643257  0.5746890049814155  1.0000
  H   H13       1.0  0.4129520943436019  0.8683016620466119  0.9030899382222658  1.0000
  H   H14       1.0  0.5870455756798448  0.6316984013338216  0.4030891458880533  1.0000
  H   H15       1.0  0.5870471740392844  0.1316980253024624  0.09691023686229983  1.0000
  H   H16       1.0  0.41295198377832787  0.3683023320646229  0.5969101338522407  1.0000
  H   H17       1.0  0.6963286442642839  0.9952311169546917  0.5789516565539189  1.0000
  H   H18       1.0  0.30366889034176836  0.5047696023340009  0.07895179385499063  1.0000
  H   H19       1.0  0.30366648513497546  0.004768569392766201  0.42104807085852514  1.0000
  H   H20       1.0  0.6963286691166957  0.4952311310630932  0.9210488289013414  1.0000
  H   H21       1.0  0.38904537295181285  0.1922189042498417  0.5078588028549477  1.0000
  H   H22       1.0  0.6109530265276888  0.30777954021792203  0.0078588385925755  1.0000
  H   H23       1.0  0.6109556043555101  0.8077797370512343  0.49214092455785174  1.0000
  H   H24       1.0  0.3890441723634339  0.6922201466301277  0.9921413364919333  1.0000
  H   H25       1.0  0.7322030099522294  0.23293608113752381  0.5384567385484829  1.0000
  H   H26       1.0  0.2677968445794505  0.2670664876113947  0.038457219496621106  1.0000
  H   H27       1.0  0.26779868848966965  0.7670646532620892  0.4615434365359477  1.0000
  H   H28       1.0  0.7321986453871432  0.7329342452851079  0.961542955587639  1.0000
  H   H29       1.0  0.25621931184306845  0.8205453757363089  0.5709804309378159  1.0000
  H   H30       1.0  0.7437799283572987  0.6794543136341178  0.07098052372008111  1.0000
  H   H31       1.0  0.7437778870479547  0.17945431111218826  0.42901929647467807  1.0000
  H   H32       1.0  0.2562193400255879  0.32054537371495684  0.9290196513644846  1.0000
  H   H33       1.0  0.09896330715078969  0.9385671196321399  0.5275727823066916  1.0000
  H   H34       1.0  0.9010359149148639  0.5614326575756721  0.0275729294258582  1.0000
  H   H35       1.0  0.9010359612320116  0.06143256771738951  0.4724269451058661  1.0000
  H   H36       1.0  0.09896128397625865  0.4385670292723774  0.9724272456586577  1.0000
  C   C1        1.0  0.2227946711074082  0.09346558156995141  0.7973553264011883  1.0000
  C   C2        1.0  0.7772070005106356  0.4065354172374144  0.29735533256572216  1.0000
  C   C3        1.0  0.7772073879017326  0.9065361993791613  0.20264484868305033  1.0000
  C   C4        1.0  0.22279433736411394  0.5934642706122517  0.7026452901909084  1.0000
  C   C5        1.0  0.41492798214885335  0.21584561016121737  0.8095257190705072  1.0000
  C   C6        1.0  0.5850774729702832  0.28415431846995887  0.30952710564068303  1.0000
  C   C7        1.0  0.5850733557255197  0.7841540776902605  0.1904731129980776  1.0000
  C   C8        1.0  0.4149280038881002  0.7158453703813238  0.6904739647880761  1.0000
  C   C9        1.0  0.6050619080358075  0.20883844102268512  0.8554765716798443  1.0000
  C   C10       1.0  0.3949435662803609  0.29116139462567503  0.3554770500321355  1.0000
  C   C11       1.0  0.3949414993304289  0.7911612473293701  0.14452270806080494  1.0000
  C   C12       1.0  0.6050636195024524  0.7088372481776021  0.6445235727248645  1.0000
  C   C13       1.0  0.6015690323137263  0.08542304119728071  0.8895484648985248  1.0000
  C   C14       1.0  0.3984340261778884  0.41457567845450444  0.3895488953922809  1.0000
  C   C15       1.0  0.3984343750525171  0.914576647154782  0.1104508148421246  1.0000
  C   C16       1.0  0.6015690206213904  0.5854229633467015  0.6104517273645982  1.0000
  C   C17       1.0  0.4127193747280486  0.9637557277038412  0.8775408301432751  1.0000
  C   C18       1.0  0.5872820630381453  0.536243341827607  0.37754141799766233  1.0000
  C   C19       1.0  0.5872836720709458  0.0362429140987217  0.12245844959756624  1.0000
  C   C20       1.0  0.41271549642021194  0.4637573915699277  0.6224587570866549  1.0000
  C   C21       1.0  0.22477591962466903  0.968543882498267  0.8299510507822206  1.0000
  C   C22       1.0  0.7752254982596013  0.5314552833333438  0.329951650529722  1.0000
  C   C23       1.0  0.7752233487580326  0.0314558048517171  0.17004822895832214  1.0000
  C   C24       1.0  0.2247758396150559  0.46854440451677704  0.6700485245549005  1.0000
  C   C25       1.0  0.3769647501537321  0.08832937789308198  0.6195355309596735  1.0000
  C   C26       1.0  0.6230344171163364  0.4116709336901039  0.11953597456988523  1.0000
  C   C27       1.0  0.6230345182289694  0.9116703094569089  0.38046374878086914  1.0000
  C   C28       1.0  0.3769652118338911  0.5883298002080225  0.8804646481864964  1.0000
  C   C29       1.0  0.5007488591433074  0.029316958008926995  0.5651004195733195  1.0000
  C   C30       1.0  0.49925028538499555  0.4706834637263099  0.0651008336048093  1.0000
  C   C31       1.0  0.49924942144962603  0.970685868487152  0.43490020318262185  1.0000
  C   C32       1.0  0.5007524008473183  0.529314131524032  0.9349011321683139  1.0000
  C   C33       1.0  0.5783759831713124  0.14803809924077882  0.5188312575615726  1.0000
  C   C34       1.0  0.42162107253513154  0.3519624156207755  0.0188321613402422  1.0000
  C   C35       1.0  0.42162121571962535  0.8519615876081732  0.4811680221789061  1.0000
  C   C36       1.0  0.5783764869233251  0.6480383177763115  0.9811684614160896  1.0000
  C   C37       1.0  0.29986170727673317  0.9055287060053205  0.537935505870479  1.0000
  C   C38       1.0  0.7001358101937  0.594472096281514  0.03793562940725081  1.0000
  C   C39       1.0  0.7001354916142047  0.09447098084363152  0.4620637738700071  1.0000
  C   C40       1.0  0.29986174926466447  0.4055286371160278  0.962064545677066  1.0000
  N   N1        1.0  0.0170258034360273  0.06180113746700041  0.7544956561565073  1.0000
  N   N2        1.0  0.9829758502763182  0.4381999480684868  0.25449610864655636  1.0000
  N   N3        1.0  0.9829758950057793  0.9381995969330674  0.24550407125590823  1.0000
  N   N4        1.0  0.017023778673817012  0.5618007858300942  0.7455040664378176  1.0000
  N   N5        1.0  0.9017423639006806  0.9276028163145469  0.7594404962986019  1.0000
  N   N6        1.0  0.09825524610948831  0.572397537746447  0.2594405963109595  1.0000
  N   N7        1.0  0.09825726504936229  0.0723979175844818  0.24055923111375688  1.0000
  N   N8        1.0  0.9017402438569204  0.42760319515096523  0.7405586834292777  1.0000
  N   N9        1.0  0.022813717583254352  0.868610195089154  0.8042645400444288  1.0000
  N   N10       1.0  0.9771839111532895  0.6313900682686935  0.30426421632105166  1.0000
  N   N11       1.0  0.97718384187511  0.1313905383083878  0.19573563503988825  1.0000
  N   N12       1.0  0.022813648304882913  0.3686106651297507  0.6957350634192354  1.0000
  O   O1        1.0  0.11625376946503957  0.09888366636576511  0.6168575479633633  1.0000
  O   O2        1.0  0.8837450361189877  0.4011156040869325  0.11685800959469363  1.0000
  O   O3        1.0  0.8837451383505126  0.9011149744342718  0.3831421794493864  1.0000
  O   O4        1.0  0.11625252333937651  0.5988851293106094  0.8831421654896233  1.0000
  O   O5        1.0  0.5246190157314315  0.13184453767954102  0.665213740345209  1.0000
  O   O6        1.0  0.47538053118918805  0.36815672802110566  0.16521419301630405  1.0000
  O   O7        1.0  0.4753806132186043  0.8681561962194876  0.33478598706714996  1.0000
  O   O8        1.0  0.5246170282692689  0.6318440053759816  0.8347864297400279  1.0000
