data_image0
_chemical_formula_structural       Ti2H52C68N4O8
_chemical_formula_sum              "Ti2 H52 C68 N4 O8"
_cell_length_a       8.12628827501611
_cell_length_b       11.469197999860981
_cell_length_c       15.42240169873661
_cell_angle_alpha    111.14507856981366
_cell_angle_beta     89.99985179102535
_cell_angle_gamma    90.00021602940058

_space_group_name_H-M_alt    "P 1"
_space_group_IT_number       1

loop_
  _space_group_symop_operation_xyz
  'x, y, z'

loop_
  _atom_site_type_symbol
  _atom_site_label
  _atom_site_symmetry_multiplicity
  _atom_site_fract_x
  _atom_site_fract_y
  _atom_site_fract_z
  _atom_site_occupancy
  Ti  Ti1       1.0  0.4999946860082786  0.49999707363467394  0.9999982463406526  1.0000
  Ti  Ti2       1.0  2.5725694996e-06  0.4999979824773391  0.5000007452906489  1.0000
  H   H1        1.0  0.7293587615241888  0.2131941227337393  0.757564135356013  1.0000
  H   H2        1.0  0.22935714865722193  0.7868052038376377  0.7424369792891171  1.0000
  H   H3        1.0  0.2706342901756074  0.7868132692638382  0.24243842410923117  1.0000
  H   H4        1.0  0.770635903025962  0.21319002424117875  0.2575590948051101  1.0000
  H   H5        1.0  0.8454022616764191  0.20872678662239252  0.6052339043305042  1.0000
  H   H6        1.0  0.34539500425237435  0.7912765479860369  0.8947687693231714  1.0000
  H   H7        1.0  0.15459817347087318  0.7912843513392361  0.3947715991620413  1.0000
  H   H8        1.0  0.6545980474323938  0.2087186778955399  0.10522665577595801  1.0000
  H   H9        1.0  0.764854652875883  0.6049396111287209  0.6902476768157586  1.0000
  H   H10       1.0  0.264849386262199  0.3950607339894673  0.8097543094648573  1.0000
  H   H11       1.0  0.23514085997019413  0.3950715334189566  0.3097597736638989  1.0000
  H   H12       1.0  0.7351412042676985  0.6049335636400102  0.19024281335926932  1.0000
  H   H13       1.0  0.6400839255315631  0.6068949612687576  0.8380286983108579  1.0000
  H   H14       1.0  0.1400879863501672  0.39310415150936234  0.6619698873085511  1.0000
  H   H15       1.0  0.35990666501147933  0.3931105676357446  0.1619753096181853  1.0000
  H   H16       1.0  0.8599062959175398  0.6068938745020772  0.3380249875835376  1.0000
  H   H17       1.0  0.8706511655671959  0.5206697097047197  0.9520117390543278  1.0000
  H   H18       1.0  0.37066609007182194  0.4793318022426973  0.5479871721563256  1.0000
  H   H19       1.0  0.12934065556172666  0.47933299050873746  0.04798438214467638  1.0000
  H   H20       1.0  0.6293503425122323  0.5206653109255229  0.4520139434171497  1.0000
  H   H21       1.0  0.09529997195222249  0.6775936956971477  0.9882378011125256  1.0000
  H   H22       1.0  0.5953046029649728  0.3223997227717419  0.5117645144884833  1.0000
  H   H23       1.0  0.9047016937317309  0.3223996824847006  0.011763615411872796  1.0000
  H   H24       1.0  0.4047019850022338  0.677587111528979  0.4882351572056863  1.0000
  H   H25       1.0  0.280377192852839  0.8021668057931494  0.07650439194829771  1.0000
  H   H26       1.0  0.780377910872147  0.19783746030604024  0.4234979118859529  1.0000
  H   H27       1.0  0.7196232422721068  0.19783405111504485  0.9234990186661493  1.0000
  H   H28       1.0  0.21961883255481499  0.8021652377158401  0.5764975603161133  1.0000
  H   H29       1.0  0.4853604571839298  0.972548321990402  0.10675205165510696  1.0000
  H   H30       1.0  0.9853591823005701  0.027458273526093497  0.3932473519879239  1.0000
  H   H31       1.0  0.5146399779511271  0.0274543958108069  0.8932492615013816  1.0000
  H   H32       1.0  0.0146412528575652  0.972547224628471  0.6067475700061706  1.0000
  H   H33       1.0  0.09388690814421348  0.24339653819016857  0.16099089102596048  1.0000
  H   H34       1.0  0.5938910259949849  0.7566035558980814  0.3390092576410951  1.0000
  H   H35       1.0  0.906108604673861  0.7566015207811672  0.8390137187920103  1.0000
  H   H36       1.0  0.40612171487147464  0.24339355067420596  0.6609899109484942  1.0000
  H   H37       1.0  0.8901467510023265  0.0736899398501052  0.12533062474641812  1.0000
  H   H38       1.0  0.3901476970580049  0.9263089934480319  0.37467724013858833  1.0000
  H   H39       1.0  0.10985122295635819  0.9263090671484162  0.8746781283023639  1.0000
  H   H40       1.0  0.6098576603406798  0.0736853327624232  0.625328319616159  1.0000
  H   H41       1.0  0.755269422649036  0.943412469415108  0.17237343238326727  1.0000
  H   H42       1.0  0.2552745654717583  0.0565889279170548  0.3276261955114706  1.0000
  H   H43       1.0  0.2447273207577041  0.05658650682075011  0.8276262347347229  1.0000
  H   H44       1.0  0.744728330805259  0.9434091112876714  0.6723725733479213  1.0000
  H   H45       1.0  0.544721546505663  0.7750093444926165  0.126181744874863  1.0000
  H   H46       1.0  0.0447285935737085  0.22499156933933756  0.3738180409315817  1.0000
  H   H47       1.0  0.4552751969045516  0.22499056438697806  0.8738175225092351  1.0000
  H   H48       1.0  0.9552767638540232  0.775009278785582  0.6261827737006628  1.0000
  H   H49       1.0  0.3944766738347454  0.1935156018083575  0.15236961040517372  1.0000
  H   H50       1.0  0.8944797854719724  0.8064898303914915  0.3476237711826968  1.0000
  H   H51       1.0  0.6055163778600702  0.8064861723544752  0.8476288575125253  1.0000
  H   H52       1.0  0.1055292637109986  0.19351472194583866  0.6523676565715206  1.0000
  C   C1        1.0  0.6752618973247307  0.409880960312826  0.8070023643711934  1.0000
  C   C2        1.0  0.175269320139158  0.5901182354491253  0.6929968438583175  1.0000
  C   C3        1.0  0.3247299238012573  0.5901273687215393  0.1930010933508015  1.0000
  C   C4        1.0  0.8247323455656926  0.4098760512069147  0.30699703398620676  1.0000
  C   C5        1.0  0.7361616418797539  0.29808986390714415  0.7413080613852757  1.0000
  C   C6        1.0  0.2361594957198321  0.7019075954204367  0.758688655664912  1.0000
  C   C7        1.0  0.2638326403960533  0.7019184629328163  0.2586947473407122  1.0000
  C   C8        1.0  0.7638384782573127  0.2980848237466631  0.24130537265368457  1.0000
  C   C9        1.0  0.8017415973960381  0.2958946795560067  0.6573340349083736  1.0000
  C   C10       1.0  0.3017341293613924  0.7041094786445896  0.8426656757769422  1.0000
  C   C11       1.0  0.1982563766080716  0.7041173888492979  0.34267041985611263  1.0000
  C   C12       1.0  0.6982638446248828  0.29588667768914684  0.15732870059136422  1.0000
  C   C13       1.0  0.8137708031133356  0.4064354732967884  0.6375769373968226  1.0000
  C   C14       1.0  0.31377126159762986  0.593567786484755  0.8624251109826916  1.0000
  C   C15       1.0  0.1862308626147069  0.5935765929155323  0.36242686837118754  1.0000
  C   C16       1.0  0.686231634682855  0.4064311853637009  0.13757325814280824  1.0000
  C   C17       1.0  0.7555180222619314  0.5187823002774721  0.7043745225250504  1.0000
  C   C18       1.0  0.2555145158479277  0.481218940665201  0.7956225280579335  1.0000
  C   C19       1.0  0.24447995173840548  0.48122789844589414  0.29562943371703915  1.0000
  C   C20       1.0  0.7444809969920101  0.5187781505066837  0.20437209757249525  1.0000
  C   C21       1.0  0.6868136400982363  0.5202448334583207  0.7871287141976283  1.0000
  C   C22       1.0  0.18681791465653666  0.4797534386058545  0.712865693142348  1.0000
  C   C23       1.0  0.3131769504546114  0.47976161930099454  0.21287229801716737  1.0000
  C   C24       1.0  0.8131812899054367  0.5202427155320637  0.2871280342304062  1.0000
  C   C25       1.0  0.8507049141396051  0.6158904633934981  0.00017948363841918885  1.0000
  C   C26       1.0  0.35071588606154347  0.3841102204597959  0.49982047241071836  1.0000
  C   C27       1.0  0.1492905987009436  0.3841085018547901  0.9998169385045801  1.0000
  C   C28       1.0  0.6492943936452917  0.6158859644520902  0.5001823408891327  1.0000
  C   C29       1.0  0.9755923741836979  0.7043356102575302  0.02119036761035178  1.0000
  C   C30       1.0  0.4755992846463927  0.29566350168703087  0.47881224122686933  1.0000
  C   C31       1.0  0.024404369214217105  0.2956605658498859  0.9788098497142246  1.0000
  C   C32       1.0  0.5244060727529671  0.7043280112115866  0.5211899747639279  1.0000
  C   C33       1.0  0.9446140814723947  0.8272698331828394  0.08179282749839696  1.0000
  C   C34       1.0  0.4446169401123399  0.1727310751031794  0.4182096541015953  1.0000
  C   C35       1.0  0.0553838925071801  0.17273008228985992  0.9182083868705035  1.0000
  C   C36       1.0  0.5553834950009744  0.8272632357209986  0.5817913626893798  1.0000
  C   C37       1.0  0.2392860742808054  0.8988093219162961  0.0952692163545308  1.0000
  C   C38       1.0  0.739287598338663  0.10119485201936126  0.4047337672931448  1.0000
  C   C39       1.0  0.7607143608444459  0.10119247203009962  0.9047350925162053  1.0000
  C   C40       1.0  0.2607140673727598  0.8988050502741914  0.5952635531038412  1.0000
  C   C41       1.0  0.3544692557019289  0.9948500432840177  0.11278868620581045  1.0000
  C   C42       1.0  0.8544691217752315  0.0051543863676002  0.387211615073916  1.0000
  C   C43       1.0  0.6455299488510916  0.005152685501933301  0.8872158719265857  1.0000
  C   C44       1.0  0.14553254394976983  0.9948483094626965  0.6127832081312192  1.0000
  C   C45       1.0  0.3034657107747165  0.11905942957172043  0.13756427820257505  1.0000
  C   C46       1.0  0.8034691477650925  0.8809458112086759  0.3624343636047698  1.0000
  C   C47       1.0  0.6965322632054693  0.8809423599773897  0.8624387326789106  1.0000
  C   C48       1.0  0.19654113197555026  0.11905688902598403  0.6375617575873137  1.0000
  C   C49       1.0  0.1356905282054015  0.14721934651818458  0.14311072188559854  1.0000
  C   C50       1.0  0.635695072434821  0.8527799087274629  0.35688914616708445  1.0000
  C   C51       1.0  0.8643074457646804  0.8527805821379104  0.8568943864538384  1.0000
  C   C52       1.0  0.364316437857525  0.14721719784341053  0.6431100224229739  1.0000
  C   C53       1.0  0.020518424773221997  0.05142876130436489  0.12471191797949643  1.0000
  C   C54       1.0  0.5205196990415502  0.948568370760398  0.37529078290736356  1.0000
  C   C55       1.0  0.9794807797637263  0.9485683650274696  0.8752930915709741  1.0000
  C   C56       1.0  0.4794856583688301  0.05142781414583201  0.624712030394335  1.0000
  C   C57       1.0  0.0699566727928058  0.9264073628248964  0.10175906331610914  1.0000
  C   C58       1.0  0.5699568505682038  0.07359081760962742  0.3982438497533281  1.0000
  C   C59       1.0  0.9300449928939541  0.07358976131252601  0.8982452972383543  1.0000
  C   C60       1.0  0.43004235397952323  0.926405356303384  0.6017557185752338  1.0000
  C   C61       1.0  0.7862760805352026  0.8521890213486998  0.12106391546682  1.0000
  C   C62       1.0  0.28628022894723415  0.1478115123450721  0.3789354399118779  1.0000
  C   C63       1.0  0.21372435459607428  0.147811826770571  0.8789368991672718  1.0000
  C   C64       1.0  0.7137214367487204  0.8521846615707604  0.6210641284157604  1.0000
  C   C65       1.0  0.6679734186763326  0.7589973136720757  0.09646806857617914  1.0000
  C   C66       1.0  0.1679791751877104  0.24100108086846458  0.4035315260024532  1.0000
  C   C67       1.0  0.33202701645245  0.24100072552982252  0.9035307002841366  1.0000
  C   C68       1.0  0.8320261822327808  0.7589969649307805  0.5964691898412866  1.0000
  N   N1        1.0  0.6978909725892352  0.6422739363212316  0.036072442769146576  1.0000
  N   N2        1.0  0.1979007487618389  0.3577263878196462  0.4639250319116358  1.0000
  N   N3        1.0  0.3021082319739604  0.35772596596950024  0.9639248776287561  1.0000
  N   N4        1.0  0.8021070698119318  0.6422725884289306  0.5360746352021978  1.0000
  O   O1        1.0  0.6108214582017482  0.41029961317592273  0.8870933690981604  1.0000
  O   O2        1.0  0.1108378851034288  0.5897041132145802  0.6129084317549386  1.0000
  O   O3        1.0  0.3891715934929962  0.5897068483751512  0.11291023909607392  1.0000
  O   O4        1.0  0.8891723946258878  0.41029297797425807  0.38708619386995485  1.0000
  O   O5        1.0  0.876668096445954  0.40269976661845414  0.5562558893952243  1.0000
  O   O6        1.0  0.37666817655547646  0.5973008440633195  0.9437486090028531  1.0000
  O   O7        1.0  0.1233323387007275  0.597309497266771  0.4437478175847361  1.0000
  O   O8        1.0  0.62333102800455  0.4026990626218704  0.05625000938523066  1.0000
