data_image0
_chemical_formula_structural       Dy4Cu6H60C48N12O48
_chemical_formula_sum              "Dy4 Cu6 H60 C48 N12 O48"
_cell_length_a       13.387693349163845
_cell_length_b       13.387699023972198
_cell_length_c       14.333353907026789
_cell_angle_alpha    90.00022152703951
_cell_angle_beta     89.99988525819558
_cell_angle_gamma    120.00018744065065

_space_group_name_H-M_alt    "P 1"
_space_group_IT_number       1

loop_
  _space_group_symop_operation_xyz
  'x, y, z'

loop_
  _atom_site_type_symbol
  _atom_site_label
  _atom_site_symmetry_multiplicity
  _atom_site_fract_x
  _atom_site_fract_y
  _atom_site_fract_z
  _atom_site_occupancy
  Dy  Dy1       1.0  0.6666666071649131  0.3333325058457888  0.16835066732945583  1.0000
  Dy  Dy2       1.0  0.33333269226883294  0.6666649703482648  0.33165669531886266  1.0000
  Dy  Dy3       1.0  0.3333351390522595  0.6666650144258314  0.831648535781859  1.0000
  Dy  Dy4       1.0  0.6666665819748941  0.33333352798487675  0.668343903143359  1.0000
  Cu  Cu1       1.0  2.4818687203108885e-07  0.5000003522919273  2.0525592249999995e-07  1.0000
  Cu  Cu2       1.0  0.5000001358660668  0.49999999432940007  4.3552249449999965e-07  1.0000
  Cu  Cu3       1.0  0.49999889013948035  0.9999988527082949  6.407771166999999e-07  1.0000
  Cu  Cu4       1.0  0.5000002937429926  2.3293703326101892e-07  0.5000004428134657  1.0000
  Cu  Cu5       1.0  3.3854806241316757e-07  0.49999976498258997  0.5000011154744043  1.0000
  Cu  Cu6       1.0  0.4999990480165053  0.4999990913116435  0.4999985550478313  1.0000
  H   H1        1.0  0.03710366844359226  0.6766896368341622  0.9163275464696523  1.0000
  H   H2        1.0  0.3233107360082741  0.3604133383983025  0.9163267077696344  1.0000
  H   H3        1.0  0.6395868029163836  0.9628952904464613  0.9163275001075488  1.0000
  H   H4        1.0  0.6766923874329861  0.03710677148908547  0.5836716198980267  1.0000
  H   H5        1.0  0.9628935512546943  0.639585164610004  0.5836731380173317  1.0000
  H   H6        1.0  0.3604151137969609  0.32330683480937245  0.5836717347212285  1.0000
  H   H7        1.0  0.9628962372053067  0.3233112179181818  0.08367235432282169  1.0000
  H   H8        1.0  0.6766904634030767  0.6395862225940762  0.08367389069270807  1.0000
  H   H9        1.0  0.36041364953827326  0.03710352358798015  0.08367240068072589  1.0000
  H   H10       1.0  0.32330869642684207  0.9628943989645505  0.4163275832205002  1.0000
  H   H11       1.0  0.03710646994583298  0.36041408067680436  0.4163260650987083  1.0000
  H   H12       1.0  0.63958533865776  0.6766919792222128  0.4163267707202109  1.0000
  H   H13       1.0  0.863566013527169  0.6950536158838929  0.9738737011879478  1.0000
  H   H14       1.0  0.3049441637321025  0.1685103155945385  0.97387327253233  1.0000
  H   H15       1.0  0.8314865346600514  0.13643553844057985  0.9738748154116477  1.0000
  H   H16       1.0  0.695057007426925  0.8635660683361549  0.5261255033821753  1.0000
  H   H17       1.0  0.13643387977425178  0.8314911940638082  0.5261266653408753  1.0000
  H   H18       1.0  0.16850692910956866  0.3049420602397888  0.5261270798325198  1.0000
  H   H19       1.0  0.13643369197072266  0.3049444511954533  0.026126897273094588  1.0000
  H   H20       1.0  0.695059707803523  0.83149105501645  0.026128721277615292  1.0000
  H   H21       1.0  0.16851003650705113  0.8635671568822971  0.026127178407520494  1.0000
  H   H22       1.0  0.3049445076870612  0.13643467086368596  0.47387369973516497  1.0000
  H   H23       1.0  0.8635657101720469  0.1685084824796449  0.4738739331231797  1.0000
  H   H24       1.0  0.8314908512207427  0.6950549441788925  0.4738728209549875  1.0000
  H   H25       1.0  0.9729987223805879  0.7130499120527248  0.05431425362306899  1.0000
  H   H26       1.0  0.2869540286434855  0.25994980340256296  0.05431547205873949  1.0000
  H   H27       1.0  0.7400478037106311  0.027003856275712366  0.054318116200775486  1.0000
  H   H28       1.0  0.7130510854164029  0.972999603298703  0.4456846368546365  1.0000
  H   H29       1.0  0.02700094209526324  0.7400508947972284  0.4456862528575342  1.0000
  H   H30       1.0  0.2599469791679568  0.2869486469096715  0.4456859145317934  1.0000
  H   H31       1.0  0.02700267718176977  0.2869524366126513  0.9456856471706981  1.0000
  H   H32       1.0  0.7130494116379466  0.7400519984636488  0.9456872194258066  1.0000
  H   H33       1.0  0.25994931426215134  0.9729967983321118  0.9456852729610218  1.0000
  H   H34       1.0  0.28694999844345404  0.02700156715350491  0.5543138685904692  1.0000
  H   H35       1.0  0.9729990791052286  0.259948350491001  0.55431364793192  1.0000
  H   H36       1.0  0.7400522950758416  0.713049851420621  0.5543132885835929  1.0000
  H   H37       1.0  0.9152725031046601  0.6039508417631511  0.7939428163683144  1.0000
  H   H38       1.0  0.39604759206722673  0.3113189608954273  0.7939427732947235  1.0000
  H   H39       1.0  0.6886791159159814  0.08472758569894993  0.7939427882206826  1.0000
  H   H40       1.0  0.60395354800918  0.9152753338031445  0.7060577492383543  1.0000
  H   H41       1.0  0.08472632777358777  0.6886781935693166  0.7060592207631087  1.0000
  H   H42       1.0  0.31132262617624906  0.3960481615852843  0.7060577828163657  1.0000
  H   H43       1.0  0.08472740254423881  0.3960500129891926  0.20605708442415951  1.0000
  H   H44       1.0  0.6039527448357658  0.6886814626059701  0.20605852284340634  1.0000
  H   H45       1.0  0.3113169393976494  0.9152711437363409  0.20605781024497108  1.0000
  H   H46       1.0  0.3960483983589995  0.08472497414147989  0.2939407562043925  1.0000
  H   H47       1.0  0.9152728309185464  0.31132191422793226  0.2939413777021257  1.0000
  H   H48       1.0  0.6886788889377372  0.6039525776145568  0.2939414203009747  1.0000
  H   H49       1.0  0.7960109427618107  0.5372860615042826  0.8684543284236239  1.0000
  H   H50       1.0  0.4627150429608164  0.25872586572700124  0.8684548346261278  1.0000
  H   H51       1.0  0.7412751392709609  0.20398698076135  0.8684551730474082  1.0000
  H   H52       1.0  0.537287236758907  0.7960105700800427  0.6315439822081783  1.0000
  H   H53       1.0  0.2039912021484084  0.7412744725375618  0.6315455902787335  1.0000
  H   H54       1.0  0.25872611503314147  0.462715642546577  0.6315429430539437  1.0000
  H   H55       1.0  0.20398778467620093  0.4627144775453402  0.131545572369383  1.0000
  H   H56       1.0  0.5372857251963407  0.7412741265206007  0.13154646151081545  1.0000
  H   H57       1.0  0.2587242505243309  0.7960099081091131  0.13154612308522215  1.0000
  H   H58       1.0  0.46271514086343757  0.20398930661078654  0.3684545232333816  1.0000
  H   H59       1.0  0.796009566008749  0.2587255197100403  0.36845570585820997  1.0000
  H   H60       1.0  0.7412716652972052  0.5372813618706832  0.36845626006014937  1.0000
  C   C1        1.0  0.816111665434164  0.5542895637879042  0.06925060377292878  1.0000
  C   C2        1.0  0.44571171607800153  0.2618207521417093  0.06924832885011509  1.0000
  C   C3        1.0  0.7381743832894897  0.18389314723687988  0.06925000774640468  1.0000
  C   C4        1.0  0.5542891679875339  0.8161110665385467  0.43074731408697164  1.0000
  C   C5        1.0  0.1838858952637352  0.7381774052341683  0.43075031030117816  1.0000
  C   C6        1.0  0.2618217048157874  0.4457083407562267  0.4307483139414002  1.0000
  C   C7        1.0  0.18389028093387336  0.4457107441624187  0.9307506923634816  1.0000
  C   C8        1.0  0.5542925867118172  0.7381801872140558  0.9307529672852294  1.0000
  C   C9        1.0  0.26181692822837754  0.8161103259901666  0.930750590732252  1.0000
  C   C10       1.0  0.4457112844672297  0.1838877474916176  0.5692504936810465  1.0000
  C   C11       1.0  0.8161144416393641  0.2618230182629517  0.5692488928166952  1.0000
  C   C12       1.0  0.7381757598119877  0.554287485450715  0.5692508891708526  1.0000
  C   C13       1.0  0.9051824068468551  0.6511675716537442  0.0075470630938311994  1.0000
  C   C14       1.0  0.3488331092546347  0.2540132275461674  0.007545470625039698  1.0000
  C   C15       1.0  0.745983667340077  0.09481938232493557  0.007548997922732798  1.0000
  C   C16       1.0  0.6511700006324119  0.9051837175845349  0.492451016736659  1.0000
  C   C17       1.0  0.09481852318938862  0.7459879300831885  0.4924540400297416  1.0000
  C   C18       1.0  0.25401153844864405  0.34882970932373775  0.49245317400279714  1.0000
  C   C19       1.0  0.09481867701289562  0.3488335988027487  0.992453535371524  1.0000
  C   C20       1.0  0.6511688371134099  0.7459870804041557  0.9924558255113707  1.0000
  C   C21       1.0  0.2540141975895054  0.9051820192365484  0.9924529958928828  1.0000
  C   C22       1.0  0.3488325771409393  0.09481894677928446  0.5075467910363327  1.0000
  C   C23       1.0  0.9051818137136393  0.2540124934167878  0.507546558434967  1.0000
  C   C24       1.0  0.7459869888384676  0.6511680420486031  0.5075453314385212  1.0000
  C   C25       1.0  0.8717361893616059  0.43416246247600315  0.8387736488943174  1.0000
  C   C26       1.0  0.5658385804179602  0.43757836218441787  0.8387746386933016  1.0000
  C   C27       1.0  0.5624278226614052  0.12826540181316665  0.8387712926128116  1.0000
  C   C28       1.0  0.4341628394450652  0.8717410636948417  0.661219754168577  1.0000
  C   C29       1.0  0.12825702268271036  0.5624085899004  0.6612194815227139  1.0000
  C   C30       1.0  0.4375880527615337  0.5658433663905383  0.6612164078652114  1.0000
  C   C31       1.0  0.12826179111978317  0.565837329612819  0.16122415887778624  1.0000
  C   C32       1.0  0.4341632503984912  0.5624235552300193  0.16122665744612158  1.0000
  C   C33       1.0  0.4375703579707777  0.8717371779572077  0.16123000353122302  1.0000
  C   C34       1.0  0.5658392224747145  0.1282576347856691  0.33877875127114976  1.0000
  C   C35       1.0  0.8717419358584523  0.43758873022243017  0.33878111693768176  1.0000
  C   C36       1.0  0.5624069398930444  0.43415343786794114  0.3387793068840351  1.0000
  C   C37       1.0  0.8833692756424514  0.5513285934200669  0.857572659830957  1.0000
  C   C38       1.0  0.4486694801374257  0.33203939008280514  0.857571274841838  1.0000
  C   C39       1.0  0.6679592674800433  0.11662947938463494  0.857572076194131  1.0000
  C   C40       1.0  0.5513327615271919  0.883371867109922  0.6424264368015569  1.0000
  C   C41       1.0  0.11662894999304294  0.6679633830349303  0.6424271518444724  1.0000
  C   C42       1.0  0.3320391905911749  0.44866616411557914  0.6424258567832409  1.0000
  C   C43       1.0  0.11663019875228994  0.44867269258607223  0.1424272409626965  1.0000
  C   C44       1.0  0.5513308567655957  0.6679610334171645  0.1424293236228706  1.0000
  C   C45       1.0  0.33203914425532577  0.8833698814575258  0.14242921994387805  1.0000
  C   C46       1.0  0.4486699317977171  0.11662918779121163  0.35757206864182917  1.0000
  C   C47       1.0  0.8833713869099853  0.3320370404650463  0.3575734466202291  1.0000
  C   C48       1.0  0.6679608306093885  0.5513330811698015  0.3575726486593851  1.0000
  N   N1        1.0  0.957640634202548  0.6101008351081633  0.9386995568324179  1.0000
  N   N2        1.0  0.38989932558543944  0.34753997172042966  0.9386996134165526  1.0000
  N   N3        1.0  0.6524591138693694  0.04235907877721005  0.9387009098792871  1.0000
  N   N4        1.0  0.6101024973047019  0.9576424071132621  0.5612989580145394  1.0000
  N   N5        1.0  0.042358896851723664  0.6524610147842437  0.5613010306544479  1.0000
  N   N6        1.0  0.34753963576823566  0.38989588535589786  0.5612995735389175  1.0000
  N   N7        1.0  0.04235852448962171  0.3898992726876572  0.06130034395940238  1.0000
  N   N8        1.0  0.6101021895284404  0.6524607674836889  0.06130168272103729  1.0000
  N   N9        1.0  0.34753855090924207  0.9576395351098556  0.06130108393148249  1.0000
  N   N10       1.0  0.38989827085255513  0.04235758513006259  0.43870024510215433  1.0000
  N   N11       1.0  0.9576430495163565  0.34753929316465804  0.4386995678085483  1.0000
  N   N12       1.0  0.6524593227730335  0.6101014347626476  0.4386989319012215  1.0000
  O   O1        1.0  0.8080863009159815  0.4550669212197535  0.062348348976954085  1.0000
  O   O2        1.0  0.5449338818896621  0.35301724000706974  0.062344922320846784  1.0000
  O   O3        1.0  0.6469798548619539  0.19191549386242476  0.062342442979875984  1.0000
  O   O4        1.0  0.4550661697093121  0.8080845141718317  0.43765435917718765  1.0000
  O   O5        1.0  0.19191409232938386  0.6469801257047153  0.4376550119168597  1.0000
  O   O6        1.0  0.3530192926604984  0.5449324151581864  0.437654677030025  1.0000
  O   O7        1.0  0.19191788632214468  0.5449356276044027  0.9376550401816599  1.0000
  O   O8        1.0  0.45506892698677603  0.6469822054328133  0.9376549784663623  1.0000
  O   O9        1.0  0.35301482208998874  0.8080801321885928  0.9376546671143726  1.0000
  O   O10       1.0  0.5449343982969027  0.19191269039992415  0.5623462392814886  1.0000
  O   O11       1.0  0.8080850663628213  0.353019982089677  0.5623441912015464  1.0000
  O   O12       1.0  0.6469799815833001  0.4550660831720991  0.5623445260853612  1.0000
  O   O13       1.0  0.7560855982357281  0.5754575302248027  0.12493550190491477  1.0000
  O   O14       1.0  0.42454133082257073  0.18062684431235015  0.12493230813490187  1.0000
  O   O15       1.0  0.8193685555045603  0.24392319587559544  0.12493693706356618  1.0000
  O   O16       1.0  0.5754599245254823  0.756089525461576  0.3750651728070621  1.0000
  O   O17       1.0  0.24391207816373128  0.8193737092955119  0.3750662946978309  1.0000
  O   O18       1.0  0.18062913998257815  0.42453932747901046  0.3750670361875734  1.0000
  O   O19       1.0  0.24391430741317074  0.4245433245275408  0.8750643988875593  1.0000
  O   O20       1.0  0.5754621094589968  0.8193749575481563  0.8750675926559734  1.0000
  O   O21       1.0  0.18062539718540202  0.7560880935712718  0.8750643591001432  1.0000
  O   O22       1.0  0.42454084363181016  0.24391046678032074  0.6249333326362103  1.0000
  O   O23       1.0  0.7560873962309741  0.1806275767120482  0.6249343037692439  1.0000
  O   O24       1.0  0.819368956050333  0.5754588551485541  0.6249321669283459  1.0000
  O   O25       1.0  0.8126850600304039  0.37661800614137064  0.7695957924980945  1.0000
  O   O26       1.0  0.6233803058840054  0.4360657400530102  0.7695960768167251  1.0000
  O   O27       1.0  0.563935342766584  0.18731498676552855  0.7695991715452093  1.0000
  O   O28       1.0  0.37662442718738726  0.8126856613558077  0.7304002996850725  1.0000
  O   O29       1.0  0.1873139550388743  0.5639389654091503  0.7303930507195344  1.0000
  O   O30       1.0  0.43606336909755333  0.6233764644984277  0.7303950185413723  1.0000
  O   O31       1.0  0.1873153924241819  0.6233808078959199  0.23040550363701573  1.0000
  O   O32       1.0  0.37662238744076154  0.5639353148538363  0.23040521932033187  1.0000
  O   O33       1.0  0.4360651942871314  0.8126882244202704  0.23040700831168684  1.0000
  O   O34       1.0  0.623377434581485  0.187310249447428  0.26959681040298017  1.0000
  O   O35       1.0  0.8126840254423017  0.43606082668822693  0.26960894309306827  1.0000
  O   O36       1.0  0.5639341801296709  0.37662375884418964  0.26960278923191067  1.0000
  O   O37       1.0  0.9205303480393922  0.3967714902856941  0.8940481075813477  1.0000
  O   O38       1.0  0.60322406774295  0.5237560228879162  0.8940444474787765  1.0000
  O   O39       1.0  0.47624029843521504  0.07946600737464853  0.894047949900688  1.0000
  O   O40       1.0  0.3967720997929549  0.9205242390912148  0.6059501891081068  1.0000
  O   O41       1.0  0.07947012014854955  0.47625170848873927  0.6059608462076225  1.0000
  O   O42       1.0  0.5237492619951851  0.6032227173815414  0.6059536834473034  1.0000
  O   O43       1.0  0.07947191403132337  0.6032299958706631  0.1059510955366392  1.0000
  O   O44       1.0  0.3967759534575067  0.47624322240174183  0.10595615098409886  1.0000
  O   O45       1.0  0.523760469721907  0.9205339848743821  0.10595404390966927  1.0000
  O   O46       1.0  0.6032298465751255  0.07947606885768731  0.3940504093548895  1.0000
  O   O47       1.0  0.9205302167543723  0.5237487150155147  0.3940418452773357  1.0000
  O   O48       1.0  0.47624860293478827  0.3967786841642535  0.3940406359607279  1.0000
