data_image0
_chemical_formula_structural       Zn2H30C35N6O8
_chemical_formula_sum              "Zn2 H30 C35 N6 O8"
_cell_length_a       11.178308929508669
_cell_length_b       15.90674918471117
_cell_length_c       17.018920746975414
_cell_angle_alpha    87.75736764548847
_cell_angle_beta     87.99684275599685
_cell_angle_gamma    85.71860444827395

_space_group_name_H-M_alt    "P 1"
_space_group_IT_number       1

loop_
  _space_group_symop_operation_xyz
  'x, y, z'

loop_
  _atom_site_type_symbol
  _atom_site_label
  _atom_site_symmetry_multiplicity
  _atom_site_fract_x
  _atom_site_fract_y
  _atom_site_fract_z
  _atom_site_occupancy
  Zn  Zn1       1.0  0.4924751354354698  0.5903858803306863  0.5088191188073596  1.0000
  Zn  Zn2       1.0  0.513362953208734  0.41376314994117547  0.4917331676013108  1.0000
  H   H1        1.0  0.12590417062629203  0.37692869767400333  0.46750478868137463  1.0000
  H   H2        1.0  0.5669496927757295  0.3574189578647022  0.9068667490324462  1.0000
  H   H3        1.0  0.36630233163110404  0.4223656108734489  0.2713248764103754  1.0000
  H   H4        1.0  0.618470071330087  0.718172396103512  0.4281180562585833  1.0000
  H   H5        1.0  0.6263861151747818  0.8764995047365645  0.4170323743115889  1.0000
  H   H6        1.0  0.6621578384894491  0.28616366769409757  0.3957422069748377  1.0000
  H   H7        1.0  0.3524258372694789  0.8926182507064057  0.6014705707377106  1.0000
  H   H8        1.0  0.09031635405322189  0.5541497147204878  0.5346902662260649  1.0000
  H   H9        1.0  0.9039472057239876  0.37428090899939553  0.48926811611367094  1.0000
  H   H10       1.0  0.9014403912879133  0.5679165682100589  0.47705870789221205  1.0000
  H   H11       1.0  0.5009884726836304  0.6503971923738094  0.09247755554430633  1.0000
  H   H12       1.0  0.24659233743995657  0.4218610516832371  0.07369284438036064  1.0000
  H   H13       1.0  0.3632705103763882  0.3465816006980305  0.09931815438655894  1.0000
  H   H14       1.0  0.2476486846868581  0.37453544367303243  0.17044006658511537  1.0000
  H   H15       1.0  0.768437437761321  0.1642918549999379  0.34333127926053225  1.0000
  H   H16       1.0  0.7668319315679212  0.06627121565153261  0.3985110825012656  1.0000
  H   H17       1.0  0.6653309067827209  0.08895366098713  0.3221778098435451  1.0000
  H   H18       1.0  0.2758592795948971  0.7659057702059899  0.6570907217090042  1.0000
  H   H19       1.0  0.28907466085274786  0.6744320250933243  0.5975662950393643  1.0000
  H   H20       1.0  0.39661858717857973  0.6863896545728281  0.668680745975607  1.0000
  H   H21       1.0  0.4086787935844712  0.11536427073951222  0.5699414876484783  1.0000
  H   H22       1.0  0.39640839910410347  0.27513581470925175  0.5700571562519701  1.0000
  H   H23       1.0  0.35445777487480973  0.5780135787938222  0.7396656738622771  1.0000
  H   H24       1.0  0.3219383667296896  0.57757978651874  0.8862857422262214  1.0000
  H   H25       1.0  0.5876505475134195  0.7163213539387103  0.19409968346349876  1.0000
  H   H26       1.0  0.49236534102862356  0.7169414233050801  0.280614988417014  1.0000
  H   H27       1.0  0.6300676547591239  0.6555665860293516  0.2803408212046535  1.0000
  H   H28       1.0  0.5800598984003075  0.2935112989140337  0.7196131912827257  1.0000
  H   H29       1.0  0.6910287220875658  0.3661870809279009  0.7094736540499516  1.0000
  H   H30       1.0  0.6788004825428687  0.30370700023193126  0.7983360889263129  1.0000
  C   C1        1.0  0.4805296250819993  0.5287335235008613  0.34875523947989984  1.0000
  C   C2        1.0  0.39643383727282355  0.4719528724937235  0.2308250436326419  1.0000
  C   C3        1.0  0.37489542462944303  0.46808592274236827  0.15089146684644567  1.0000
  C   C4        1.0  0.41973288199253744  0.5328847436663436  0.10132886051656705  1.0000
  C   C5        1.0  0.4717775433917524  0.6009148400252401  0.13346571038962204  1.0000
  C   C6        1.0  0.4926078939102896  0.6043934603474099  0.2136183251889322  1.0000
  C   C7        1.0  0.38267685339165064  0.5302672980582344  0.8581244432851423  1.0000
  C   C8        1.0  0.40151896484591293  0.5302589467990799  0.7771788146116168  1.0000
  C   C9        1.0  0.4452628193101447  0.4679838767241407  0.9045462929043926  1.0000
  C   C10       1.0  0.4811054875743749  0.46965268071910776  0.7411833576055645  1.0000
  C   C11       1.0  0.5410941807599272  0.40494413597340895  0.7872235668926781  1.0000
  C   C12       1.0  0.7361822886319159  0.5021393582505738  0.4881389968597178  1.0000
  C   C13       1.0  0.5204814902894555  0.4051071327415984  0.8687654387173755  1.0000
  C   C14       1.0  0.4579506591772997  0.2391129329963064  0.5307809286676177  1.0000
  C   C15       1.0  0.46482792207205403  0.15197570276249192  0.5303259722578775  1.0000
  C   C16       1.0  0.546691674950381  0.11038646852036753  0.4779049655786738  1.0000
  C   C17       1.0  0.621315785542663  0.1574779213628901  0.4273588099763544  1.0000
  C   C18       1.0  0.6073367004530185  0.24534513030674535  0.43271010673894506  1.0000
  C   C19       1.0  0.5663688834604628  0.8467750144564052  0.45952632973047985  1.0000
  C   C20       1.0  0.5618386251259296  0.7599039769467097  0.4654858784033211  1.0000
  C   C21       1.0  0.48902521951968936  0.8953777293795043  0.5094940444307314  1.0000
  C   C22       1.0  0.4149641150895533  0.7667800007337108  0.5670346793153274  1.0000
  C   C23       1.0  0.4992809223063616  0.47789328070323484  0.6534726334337438  1.0000
  C   C24       1.0  0.41285076944556215  0.8548503372667543  0.5629196712315692  1.0000
  C   C25       1.0  0.26885217249301974  0.4939029279350322  0.5087184406819605  1.0000
  C   C26       1.0  0.07401967568564768  0.4337535731299057  0.4870593419806186  1.0000
  C   C27       1.0  0.13601181544864724  0.4968015844539694  0.5117197332573584  1.0000
  C   C28       1.0  0.9441796269255961  0.4349694390956174  0.48683527298533874  1.0000
  C   C29       1.0  0.8684641259051914  0.5050705070320732  0.4832692106633661  1.0000
  C   C30       1.0  0.45663462273456895  0.5364672745664976  0.262517631363025  1.0000
  C   C31       1.0  0.3044125587611859  0.39905720303224973  0.12208039390190356  1.0000
  C   C32       1.0  0.7106676633621518  0.1173195404549503  0.36983778448799154  1.0000
  C   C33       1.0  0.33855579723766044  0.7215145005212591  0.6259320011542403  1.0000
  C   C34       1.0  0.5541350656513302  0.67731363318385  0.2435566196313773  1.0000
  C   C35       1.0  0.6276018917319705  0.33850960716653594  0.7520432489821265  1.0000
  N   N1        1.0  0.42040062077058593  0.5358729996892039  0.018254094880383306  1.0000
  N   N2        1.0  0.4404308137510782  0.46451080033494213  0.9876989159275742  1.0000
  N   N3        1.0  0.5284141099391917  0.2847883641750998  0.48250069149115427  1.0000
  N   N4        1.0  0.5613618255092377  0.0211426420236194  0.4745639420948822  1.0000
  N   N5        1.0  0.47762375433781307  0.9844768055645262  0.510115956271932  1.0000
  N   N6        1.0  0.48829451130526985  0.720756564779876  0.5173984465589999  1.0000
  O   O1        1.0  0.4692956744472169  0.5953244036614365  0.3883873324723482  1.0000
  O   O2        1.0  0.5097043908019144  0.45437379857762755  0.37576633219185157  1.0000
  O   O3        1.0  0.675596820999786  0.5735873598720077  0.48716106630713824  1.0000
  O   O4        1.0  0.6928571290852048  0.43009785839368675  0.4937634350618086  1.0000
  O   O5        1.0  0.5113703042123134  0.5523715497597765  0.6252870368996357  1.0000
  O   O6        1.0  0.49953647238369575  0.4115577966181192  0.6140596637471706  1.0000
  O   O7        1.0  0.31388139289053635  0.5633264329651768  0.5224740723473859  1.0000
  O   O8        1.0  0.32776333951165526  0.424718729636048  0.4927480807391832  1.0000
