data_image0
_chemical_formula_structural       Cd2H48C72N28
_chemical_formula_sum              "Cd2 H48 C72 N28"
_cell_length_a       8.149238740663934
_cell_length_b       13.054373274088448
_cell_length_c       16.332045978301032
_cell_angle_alpha    85.19363819478326
_cell_angle_beta     75.5455387575371
_cell_angle_gamma    71.8332819434522

_space_group_name_H-M_alt    "P 1"
_space_group_IT_number       1

loop_
  _space_group_symop_operation_xyz
  'x, y, z'

loop_
  _atom_site_type_symbol
  _atom_site_label
  _atom_site_symmetry_multiplicity
  _atom_site_fract_x
  _atom_site_fract_y
  _atom_site_fract_z
  _atom_site_occupancy
  Cd  Cd1       1.0  0.999999631303517  0.4999999203156306  0.49999993824443584  1.0000
  Cd  Cd2       1.0  0.9999999818906316  3.491463469983884e-08  0.9999999845857277  1.0000
  H   H1        1.0  0.19884373306818762  0.21512652212776837  0.463432206121361  1.0000
  H   H2        1.0  0.8770837008982324  0.28463009580508464  0.03665376481350088  1.0000
  H   H3        1.0  0.8011583156518612  0.7848745370801069  0.5365678010183289  1.0000
  H   H4        1.0  0.12291287222767967  0.7153693498027139  0.9633474455831037  1.0000
  H   H5        1.0  0.7542414440006341  0.15545941994043494  0.6344437035443066  1.0000
  H   H6        1.0  0.5443639704394414  0.34446465613434213  0.8654594309626092  1.0000
  H   H7        1.0  0.2457590668569908  0.8445400261814913  0.36555737495333324  1.0000
  H   H8        1.0  0.4556364802908348  0.6555364031837668  0.13453964453542977  1.0000
  H   H9        1.0  0.6772832668371507  0.3747158863783683  0.5992027291375593  1.0000
  H   H10       1.0  0.6509964772548213  0.12516903183000486  0.9006320265263172  1.0000
  H   H11       1.0  0.3227175848328796  0.6252843667089465  0.4007963502691539  1.0000
  H   H12       1.0  0.34900216012661645  0.8748312210957537  0.09936673298332015  1.0000
  H   H13       1.0  0.15077051287656945  0.8296462970720456  0.6896531042578076  1.0000
  H   H14       1.0  0.6704965138614299  0.67024739178634  0.8104465301418317  1.0000
  H   H15       1.0  0.8492273827527012  0.1703539551191114  0.31034765043408913  1.0000
  H   H16       1.0  0.3295045233892966  0.3297512485675966  0.189553168826791  1.0000
  H   H17       1.0  0.9531465566345575  0.011997533905024201  0.673509862637687  1.0000
  H   H18       1.0  0.6391894367616828  0.4878504124784088  0.8264853376195236  1.0000
  H   H19       1.0  0.04685253604473176  0.9880035244066931  0.32649181978718644  1.0000
  H   H20       1.0  0.3608094761061694  0.5121490337537509  0.17351480923646534  1.0000
  H   H21       1.0  0.6073044184773337  0.6821509102244151  0.4618735548533267  1.0000
  H   H22       1.0  0.7511568064583614  0.8179493506341515  0.038247361553160934  1.0000
  H   H23       1.0  0.39269529050077495  0.31785014835909214  0.5381275158269717  1.0000
  H   H24       1.0  0.24884134007759667  0.18205090248261513  0.9617506262633669  1.0000
  H   H25       1.0  0.7004663459458412  0.5507860474920465  0.6971073888331036  1.0000
  H   H26       1.0  0.9487205969887216  0.9492124049876908  0.8029973810205038  1.0000
  H   H27       1.0  0.2995305324448551  0.44921501065810804  0.30289397369470095  1.0000
  H   H28       1.0  0.051289643998039515  0.0507838181649376  0.1970006824385138  1.0000
  H   H29       1.0  0.40911503155659545  0.7355038791555089  0.7249362717562351  1.0000
  H   H30       1.0  0.8697876754786403  0.7644574973008958  0.7751711370238115  1.0000
  H   H31       1.0  0.5908795426397903  0.2644963727933103  0.2750640030900585  1.0000
  H   H32       1.0  0.13021711969236097  0.2355395314876177  0.22482689447696913  1.0000
  H   H33       1.0  0.4095678841080642  0.11503237207389823  0.25875815442856986  1.0000
  H   H34       1.0  0.783476965498487  0.3848220908434925  0.24141916403611677  1.0000
  H   H35       1.0  0.5904290841883513  0.884969492116035  0.74124397588367  1.0000
  H   H36       1.0  0.21652176178866941  0.6151789681220451  0.7585803632579629  1.0000
  H   H37       1.0  0.6146624017140854  0.1227715319205771  0.11633307790512507  1.0000
  H   H38       1.0  0.8539347399165959  0.3771868861063369  0.3838051732587787  1.0000
  H   H39       1.0  0.38533496752208407  0.877229526038569  0.8836690563157817  1.0000
  H   H40       1.0  0.14606235960241795  0.6228117537334725  0.6161946576088085  1.0000
  H   H41       1.0  0.9872011506870282  0.8412499249965605  0.16553610522699821  1.0000
  H   H42       1.0  0.9940359479894387  0.6588604180229112  0.33451204394230444  1.0000
  H   H43       1.0  0.01279615842179284  0.1587527461587683  0.8344640259943149  1.0000
  H   H44       1.0  0.005968596274875854  0.3411366098399924  0.6654887544338451  1.0000
  H   H45       1.0  0.7953616768281364  0.8222474865551633  0.3090801427865913  1.0000
  H   H46       1.0  0.9267005503009852  0.6777778028102263  0.19097967660705006  1.0000
  H   H47       1.0  0.2046359433147272  0.17775357232959269  0.6909192245589467  1.0000
  H   H48       1.0  0.07330531646668685  0.3222200316360357  0.8090206660643916  1.0000
  C   C1        1.0  0.06743074210090311  0.23293780128209826  0.5051112003805615  1.0000
  C   C2        1.0  0.8053546746763302  0.2668425475052843  0.9948684845173904  1.0000
  C   C3        1.0  0.9325678597329061  0.7670632572206274  0.4948897103512026  1.0000
  C   C4        1.0  0.19464189844958216  0.7331568981025072  0.005132725879214217  1.0000
  C   C5        1.0  0.8352095686048455  0.20160467290678952  0.5959695926354557  1.0000
  C   C6        1.0  0.6329430753478178  0.29827278983065514  0.9039059332611005  1.0000
  C   C7        1.0  0.1647905413130247  0.7983955794459234  0.40403148195351696  1.0000
  C   C8        1.0  0.3670564538188544  0.7017266566733015  0.09609360185031335  1.0000
  C   C9        1.0  0.7984030475579685  0.3096821969969313  0.5772103432650725  1.0000
  C   C10       1.0  0.6850521783457494  0.19019546812526036  0.9227181258287022  1.0000
  C   C11       1.0  0.20159678687348048  0.6903188620493808  0.4227893439775415  1.0000
  C   C12       1.0  0.3149454417971145  0.8098055907594955  0.07728124151683605  1.0000
  C   C13       1.0  0.11079238216011322  0.043959304282878996  0.5533623080885804  1.0000
  C   C14       1.0  0.708490093581851  0.4558331751988761  0.9466425185035378  1.0000
  C   C15       1.0  0.8892053880158102  0.956040947445473  0.4466398300410008  1.0000
  C   C16       1.0  0.29150881928600114  0.5441662710332835  0.05335762835245112  1.0000
  C   C17       1.0  0.2613075491489027  0.9990374269420527  0.4880353634577618  1.0000
  C   C18       1.0  0.7486422625767163  0.5007655413955945  0.012016325177064972  1.0000
  C   C19       1.0  0.7386925607689605  0.0009628254106673002  0.5119657111312039  1.0000
  C   C20       1.0  0.2513579727944942  0.4992347114199305  0.9879833659742163  1.0000
  C   C21       1.0  0.3790217626417417  0.8929534352487352  0.49807612874133883  1.0000
  C   C22       1.0  0.7703608621365137  0.6068638036419358  0.0019878469101613644  1.0000
  C   C23       1.0  0.6209761329875364  0.1070468169424217  0.501924625950558  1.0000
  C   C24       1.0  0.2296414976175711  0.39313564329536643  0.9980113963537536  1.0000
  C   C25       1.0  0.34150434532967455  0.8330103671334473  0.5725123247485727  1.0000
  C   C26       1.0  0.747379697504556  0.6668597319242979  0.927576975998001  1.0000
  C   C27       1.0  0.6584935502996033  0.1669898850577098  0.4274884299433241  1.0000
  C   C28       1.0  0.25262257234381025  0.3331389089732326  0.07242149948147875  1.0000
  C   C29       1.0  0.18465856646418627  0.8759797168913794  0.6328249588009102  1.0000
  C   C30       1.0  0.6939703646805243  0.623863609026131  0.8672277008291618  1.0000
  C   C31       1.0  0.8153387128662714  0.1240205350279879  0.3671764076355616  1.0000
  C   C32       1.0  0.30602956542590937  0.3761350312470313  0.13277183819092642  1.0000
  C   C33       1.0  0.0717548951141395  0.9802047134425681  0.6236958919341477  1.0000
  C   C34       1.0  0.6761724245027166  0.5196133026542072  0.876314924710151  1.0000
  C   C35       1.0  0.9282448138639695  0.019796345140939305  0.3763051787461508  1.0000
  C   C36       1.0  0.32382710466395537  0.4803861438497493  0.12368461040126993  1.0000
  C   C37       1.0  0.5936148793760124  0.6665058982014004  0.529057734607598  1.0000
  C   C38       1.0  0.7893012845989698  0.8334921189204253  0.9710512168171804  1.0000
  C   C39       1.0  0.4063843685349865  0.3334975798090838  0.47094132916442544  1.0000
  C   C40       1.0  0.21069646099723374  0.1665089404271356  0.02894676709067312  1.0000
  C   C41       1.0  0.6358839972138453  0.6038426642222134  0.6522710473874797  1.0000
  C   C42       1.0  0.8922590202699254  0.8961429096302  0.8478318652558702  1.0000
  C   C43       1.0  0.36411349747567107  0.3961583941997374  0.3477297033957499  1.0000
  C   C44       1.0  0.10775032893160134  0.10385411994423781  0.15216542260136384  1.0000
  C   C45       1.0  0.4913357921994646  0.6943912895956573  0.6672124058399833  1.0000
  C   C46       1.0  0.8531244474886747  0.8055972845056801  0.8329005108808405  1.0000
  C   C47       1.0  0.5086603799866936  0.3056089622429283  0.33278880064795413  1.0000
  C   C48       1.0  0.1468824720652009  0.19439893840461767  0.16709707273257382  1.0000
  C   C49       1.0  0.47464098197867327  0.9585524137511642  0.37826478513819245  1.0000
  C   C50       1.0  0.8117220063748506  0.5412667105772757  0.12180324982199424  1.0000
  C   C51       1.0  0.5253581107006156  0.04144864456055331  0.6217368972866808  1.0000
  C   C52       1.0  0.1882809696780539  0.45873273663182373  0.8781953816973457  1.0000
  C   C53       1.0  0.5868395421111645  0.9671336598984653  0.29510926290688405  1.0000
  C   C54       1.0  0.8492722514219866  0.5327574083209116  0.20497462485789708  1.0000
  C   C55       1.0  0.41315755163859064  0.03286820475427991  0.7048914839676713  1.0000
  C   C56       1.0  0.1507312154763978  0.46724203869717235  0.7950247783545593  1.0000
  C   C57       1.0  0.5366555584541429  0.0530599265714926  0.23956607264541685  1.0000
  C   C58       1.0  0.8294668684679538  0.44683059581203116  0.2605532658133357  1.0000
  C   C59       1.0  0.46334393516490724  0.9469403255094309  0.7604356136881237  1.0000
  C   C60       1.0  0.17053327699753829  0.5531688509637149  0.7394456575535033  1.0000
  C   C61       1.0  0.649722351908224  0.05736649794197751  0.16106897521458322  1.0000
  C   C62       1.0  0.8682425239608943  0.44261557430910875  0.33905182544255313  1.0000
  C   C63       1.0  0.35027434090177684  0.9426361729415549  0.838931767751298  1.0000
  C   C64       1.0  0.13175528176265772  0.5573838718422766  0.6609481614649014  1.0000
  C   C65       1.0  0.8572526514078262  0.899879714300596  0.18812544334501527  1.0000
  C   C66       1.0  0.9453019218700333  0.6001745589668418  0.3119454101546283  1.0000
  C   C67       1.0  0.1427444423419286  0.10012215035214216  0.8118753035295401  1.0000
  C   C68       1.0  0.05470022252498528  0.39982408146788373  0.688054448762536  1.0000
  C   C69       1.0  0.7520874238132081  0.8892784362475938  0.2673570439367695  1.0000
  C   C70       1.0  0.9088735455208126  0.6106976090202637  0.23271024943484536  1.0000
  C   C71       1.0  0.24791200967848667  0.1107234290295196  0.7326426393971774  1.0000
  C   C72       1.0  0.09113072325708074  0.389300225536239  0.7672891615949455  1.0000
  N   N1        1.0  0.944580834813827  0.32845746183988933  0.5207909779775692  1.0000
  N   N2        1.0  0.7935841876514967  0.17135717643355264  0.979116989226384  1.0000
  N   N3        1.0  0.055419801497144795  0.6715419847448416  0.4792087170823864  1.0000
  N   N4        1.0  0.20641210998800127  0.8286430758678377  0.020882833823868924  1.0000
  N   N5        1.0  0.006835190477765613  0.1532615399717656  0.5496949869952915  1.0000
  N   N6        1.0  0.7099655558117633  0.3465654590217396  0.9502330023003226  1.0000
  N   N7        1.0  0.9931656256446432  0.846739518692523  0.45030624363354144  1.0000
  N   N8        1.0  0.2900314480322734  0.6534355995912268  0.049766976789797544  1.0000
  N   N9        1.0  0.4654505338377177  0.7340559892408579  0.5882710639702966  1.0000
  N   N10       1.0  0.7879505750978384  0.7658958831549542  0.9118385191246291  1.0000
  N   N11       1.0  0.5345463445529718  0.2659450689093035  0.411730298557501  1.0000
  N   N12       1.0  0.2120490795221741  0.23410356381180722  0.08815963254910034  1.0000
  N   N13       1.0  0.6987780202968707  0.5872034502991  0.5661302575652486  1.0000
  N   N14       1.0  0.8523825123714563  0.9127574677670013  0.9339667363018763  1.0000
  N   N15       1.0  0.3012227958255309  0.412797608365189  0.43387097306359124  1.0000
  N   N16       1.0  0.1476220972188429  0.08724117375489021  0.06603067563698772  1.0000
  N   N17       1.0  0.32453773023858906  0.0392610674432632  0.41090312268086393  1.0000
  N   N18       1.0  0.7749416370932637  0.4605370826309212  0.08914854319635886  1.0000
  N   N19       1.0  0.6754613624407001  0.9607399908684544  0.5890985597440094  1.0000
  N   N20       1.0  0.22506182980511352  0.5394623643871624  0.9108508600160904  1.0000
  N   N21       1.0  0.5151458241873923  0.8689533670657996  0.42763823010425034  1.0000
  N   N22       1.0  0.812076940830565  0.6308601721866935  0.07241539903235161  1.0000
  N   N23       1.0  0.4848527776464236  0.1310476914369332  0.5723626806275136  1.0000
  N   N24       1.0  0.18792603522233964  0.36913927502240546  0.9275832324869884  1.0000
  N   N25       1.0  0.8086925954658427  0.9823491360829096  0.13488493221485964  1.0000
  N   N26       1.0  0.9260124535990925  0.5176833054404428  0.3651916497650945  1.0000
  N   N27       1.0  0.19130834610990619  0.017651923044184104  0.8651149149762889  1.0000
  N   N28       1.0  0.07398686020851396  0.48231533456092285  0.6348085009995758  1.0000
