data_image0
_chemical_formula_structural       Er4H28C24O32
_chemical_formula_sum              "Er4 H28 C24 O32"
_cell_length_a       6.051622105690646
_cell_length_b       10.020464119696259
_cell_length_c       15.297262125642957
_cell_angle_alpha    102.27388523744436
_cell_angle_beta     90.02302436694661
_cell_angle_gamma    107.58950389603098

_space_group_name_H-M_alt    "P 1"
_space_group_IT_number       1

loop_
  _space_group_symop_operation_xyz
  'x, y, z'

loop_
  _atom_site_type_symbol
  _atom_site_label
  _atom_site_symmetry_multiplicity
  _atom_site_fract_x
  _atom_site_fract_y
  _atom_site_fract_z
  _atom_site_occupancy
  Er  Er1       1.0  0.34791216282294357  0.8157983718565661  0.2936656190858998  1.0000
  Er  Er2       1.0  0.5321431679044863  0.18447507116847112  0.20632709146367031  1.0000
  Er  Er3       1.0  0.6520929931515768  0.18420504159790602  0.7063333138197265  1.0000
  Er  Er4       1.0  0.46785488212098153  0.8155240446097166  0.7936738563720453  1.0000
  H   H1        1.0  0.7102265153364088  0.9502672406150978  0.45146086339531183  1.0000
  H   H2        1.0  0.7599426017681098  0.0499914425448793  0.048592412521721  1.0000
  H   H3        1.0  0.2897741805241338  0.0497404665486911  0.548541936538804  1.0000
  H   H4        1.0  0.24005325825028498  0.9500065993631284  0.9514077316675156  1.0000
  H   H5        1.0  0.811068335107173  0.8756196655968723  0.3600664494677659  1.0000
  H   H6        1.0  0.935561788233514  0.12487606670006812  0.1399686999033349  1.0000
  H   H7        1.0  0.18893835201024697  0.12439341214994926  0.6399364462164314  1.0000
  H   H8        1.0  0.06443572413450503  0.8751219756896523  0.8600307907690522  1.0000
  H   H9        1.0  0.03541441234050787  0.5470314556598482  0.1851417318630837  1.0000
  H   H10       1.0  0.48889611703202723  0.45324096439976813  0.31487170467313064  1.0000
  H   H11       1.0  0.9645841749580485  0.45296873410175204  0.8148593657953214  1.0000
  H   H12       1.0  0.5111196149792789  0.546753856763253  0.6851306067243925  1.0000
  H   H13       1.0  0.5873665295050544  0.5771304797001023  0.06700988228011794  1.0000
  H   H14       1.0  0.011125444733444666  0.4231115386386365  0.4330292373456004  1.0000
  H   H15       1.0  0.4126325553049313  0.4228740043235462  0.932995082867187  1.0000
  H   H16       1.0  0.9888819002872608  0.5768929501733879  0.5669672308549139  1.0000
  H   H17       1.0  0.8845028115346808  0.8011604141474109  0.034588260902033624  1.0000
  H   H18       1.0  0.08409339635377934  0.19913149293022772  0.4654112557947556  1.0000
  H   H19       1.0  0.11549239019607431  0.1988462172903382  0.9654170034302467  1.0000
  H   H20       1.0  0.9159068436787547  0.8008686967181404  0.5345904956874392  1.0000
  H   H21       1.0  0.09202490439810865  0.7120281255075511  0.006985111990573502  1.0000
  H   H22       1.0  0.3808743542532298  0.28820739896514175  0.4930630025642131  1.0000
  H   H23       1.0  0.9079626110818281  0.2879763596061835  0.9930146227199046  1.0000
  H   H24       1.0  0.6191215057651647  0.7117906429428588  0.5069371416250235  1.0000
  H   H25       1.0  0.7951743956721486  0.5017510161178081  0.014727378259536298  1.0000
  H   H26       1.0  0.29438749546074666  0.49849745121894534  0.4852937371319825  1.0000
  H   H27       1.0  0.20481807724102913  0.4982534698461338  0.9852717032410255  1.0000
  H   H28       1.0  0.705617121318916  0.5015048912268512  0.514698509247772  1.0000
  C   C1        1.0  0.027220294479363374  0.7741427092324856  0.06365400788552485  1.0000
  C   C2        1.0  0.2538472079584935  0.22609505114716194  0.4363861232732305  1.0000
  C   C3        1.0  0.9727732944712386  0.22586070174239137  0.9363475386270893  1.0000
  C   C4        1.0  0.7461459263171619  0.7739008405274462  0.5636182968093806  1.0000
  C   C5        1.0  0.9325227687914861  0.6783629563548388  0.1299857368130333  1.0000
  C   C6        1.0  0.2548073444163208  0.3218974750272069  0.3700668327159136  1.0000
  C   C7        1.0  0.06747635635668567  0.3216383064977536  0.8700174716790201  1.0000
  C   C8        1.0  0.7451929774456476  0.6780962704942085  0.6299353274776963  1.0000
  C   C9        1.0  0.8345365666083779  0.7626896480796007  0.20961352495958613  1.0000
  C   C10       1.0  0.07209678222734794  0.23761680093065254  0.2904453314825304  1.0000
  C   C11       1.0  0.16546908668540541  0.23731805993439545  0.7903886217646132  1.0000
  C   C12       1.0  0.927901846178095  0.7623801664700024  0.7095566242019019  1.0000
  C   C13       1.0  0.7393573152295829  0.5449655915813876  0.080464515816395  1.0000
  C   C14       1.0  0.19529758931689406  0.4553031876473242  0.4195579143900545  1.0000
  C   C15       1.0  0.2606401166542511  0.4550388928529685  0.9195391418368004  1.0000
  C   C16       1.0  0.8047065720191142  0.5446916366881068  0.5804345908784185  1.0000
  C   C17       1.0  0.6649453223248329  0.42397346783975115  0.12944039432942134  1.0000
  C   C18       1.0  0.241701780659227  0.5763340619823865  0.37060684709743436  1.0000
  C   C19       1.0  0.3350538431615249  0.5760245738417921  0.8705610575073877  1.0000
  C   C20       1.0  0.758310683723984  0.42365754210320006  0.6293839022831449  1.0000
  C   C21       1.0  0.22280830351320463  0.9109003216509851  0.10020830863680893  1.0000
  C   C22       1.0  0.3122949610120216  0.08928738722091371  0.3997954557198256  1.0000
  C   C23       1.0  0.7771930514036924  0.0890987947931663  0.8997919858355276  1.0000
  C   C24       1.0  0.6876987504905472  0.9107063578610096  0.6002060501895912  1.0000
  O   O1        1.0  0.4745499405126025  0.32475623775268037  0.1057880746407989  1.0000
  O   O2        1.0  0.15059784231358714  0.6755091317175185  0.3943119281247718  1.0000
  O   O3        1.0  0.5254481091285114  0.6752428786204518  0.8942115658542776  1.0000
  O   O4        1.0  0.8493992507210634  0.3244781779352053  0.6056716840340997  1.0000
  O   O5        1.0  0.9685063669587424  0.8185141785336898  0.28126326432831666  1.0000
  O   O6        1.0  0.14991179656520612  0.18168379376540864  0.2187883404542035  1.0000
  O   O7        1.0  0.03149928575851388  0.18149353037272678  0.718736921384924  1.0000
  O   O8        1.0  0.8500812954504865  0.8183153220549926  0.7812112995804696  1.0000
  O   O9        1.0  0.2725861997808607  0.0129437636208465  0.0596869389705574  1.0000
  O   O10       1.0  0.2599673515936728  0.9872307801472572  0.44030106424853  1.0000
  O   O11       1.0  0.7274107345915369  0.9870564265514619  0.9403128511937453  1.0000
  O   O12       1.0  0.7400323517423006  0.012768334625278004  0.5597024984219274  1.0000
  O   O13       1.0  0.6717009623544713  0.8963615743482977  0.3874710967329876  1.0000
  O   O14       1.0  0.775529296509376  0.10436393773169071  0.1124657402699683  1.0000
  O   O15       1.0  0.32830357586276904  0.10364720716739129  0.6125318533307578  1.0000
  O   O16       1.0  0.22446602623593037  0.8956330301928972  0.8875342540965718  1.0000
  O   O17       1.0  0.11939308409650097  0.6382619447196731  0.1650205413952861  1.0000
  O   O18       1.0  0.4816615266543637  0.36201581100218044  0.3349969582383068  1.0000
  O   O19       1.0  0.8806109573780178  0.36174254134407147  0.8349811558608309  1.0000
  O   O20       1.0  0.5183371830039861  0.6379747131639418  0.6650034451465885  1.0000
  O   O21       1.0  0.6344661878999602  0.772947787774605  0.19972208937351613  1.0000
  O   O22       1.0  0.8618315316232668  0.22742335492446847  0.30033516281301337  1.0000
  O   O23       1.0  0.36553892715985375  0.2270588477433435  0.8002766391764026  1.0000
  O   O24       1.0  0.1381687491318076  0.7725736129578992  0.6996661393545693  1.0000
  O   O25       1.0  0.3390522857061456  0.9260650590540963  0.17358745795048242  1.0000
  O   O26       1.0  0.4130277127808526  0.07412968705987309  0.3263700006254311  1.0000
  O   O27       1.0  0.6609446484740715  0.07393513141568062  0.8264116785435078  1.0000
  O   O28       1.0  0.5869576949057986  0.9258672794617835  0.6736306464906151  1.0000
  O   O29       1.0  0.8000055607990362  0.41978154044703325  0.19351962095523592  1.0000
  O   O30       1.0  0.38071240782912946  0.5805898646957175  0.30649757827254126  1.0000
  O   O31       1.0  0.19999744646749212  0.5802175764788301  0.806480020000251  1.0000
  O   O32       1.0  0.6193165024488323  0.41940818178956357  0.6935006079751177  1.0000
