data_image0
_chemical_formula_structural       Er4P2H38C22N2O32
_chemical_formula_sum              "Er4 P2 H38 C22 N2 O32"
_cell_length_a       9.500140640158092
_cell_length_b       10.415957086917095
_cell_length_c       12.006682658370524
_cell_angle_alpha    72.81360193278596
_cell_angle_beta     69.32763476497352
_cell_angle_gamma    67.16308260322984

_space_group_name_H-M_alt    "P 1"
_space_group_IT_number       1

loop_
  _space_group_symop_operation_xyz
  'x, y, z'

loop_
  _atom_site_type_symbol
  _atom_site_label
  _atom_site_symmetry_multiplicity
  _atom_site_fract_x
  _atom_site_fract_y
  _atom_site_fract_z
  _atom_site_occupancy
  Er  Er1       1.0  0.940755331134298  0.1819713049345354  0.7533408344806459  1.0000
  Er  Er2       1.0  0.05924847522542356  0.8180249264704502  0.246646971913286  1.0000
  Er  Er3       1.0  0.41562243527634013  0.17107409984775054  0.2910119412571817  1.0000
  Er  Er4       1.0  0.584378737407377  0.8289166965114847  0.7089912737478342  1.0000
  P   P1        1.0  0.34536000046735177  0.1762367446047435  0.6081022338094542  1.0000
  P   P2        1.0  0.6546313164141538  0.8237688854970674  0.3918966541634176  1.0000
  H   H1        1.0  0.46910114938331293  0.35606261741776285  0.5812100558776547  1.0000
  H   H2        1.0  0.530893520079637  0.6439397744330436  0.41879788098925264  1.0000
  H   H3        1.0  0.2858844872124706  0.42909977942776595  0.5406388592292044  1.0000
  H   H4        1.0  0.7141128425967832  0.5708983808225272  0.4593694031880132  1.0000
  H   H5        1.0  0.14755793253082322  0.3909573672676957  0.7502606751812448  1.0000
  H   H6        1.0  0.8524360031603848  0.6090439642468299  0.2497468955034634  1.0000
  H   H7        1.0  0.4612732396125309  0.3143606066666751  0.7957391451283654  1.0000
  H   H8        1.0  0.5387214215431015  0.6856417717867844  0.2042704631708431  1.0000
  H   H9        1.0  0.3556660931451033  0.19412909083830246  0.8233243927617478  1.0000
  H   H10       1.0  0.6443259220925344  0.8058743059318161  0.176689020419417  1.0000
  H   H11       1.0  0.12987140282515236  0.32931641468669437  0.9698831555553155  1.0000
  H   H12       1.0  0.8701202093463396  0.6706912483956915  0.030126803892883972  1.0000
  H   H13       1.0  0.30554688587015016  0.27528524522865905  0.013760200091901688  1.0000
  H   H14       1.0  0.6944432194075746  0.7247234702729557  0.986249910856543  1.0000
  H   H15       1.0  0.1467457710508313  0.5333462414851768  0.027448253529996677  1.0000
  H   H16       1.0  0.8532457956493928  0.46666782137021573  0.972556787918286  1.0000
  H   H17       1.0  0.33766751373649134  0.5135729247910206  0.9254158169990205  1.0000
  H   H18       1.0  0.6623255825931268  0.48643688575863564  0.07459153194897543  1.0000
  H   H19       1.0  0.1372468320902839  0.7075602860134257  0.8303399971739862  1.0000
  H   H20       1.0  0.8627538319374394  0.29244431602948856  0.16965990854355784  1.0000
  H   H21       1.0  0.025054982321876206  0.5950277827759792  0.8592277999972068  1.0000
  H   H22       1.0  0.9749396333624886  0.40498099545047955  0.1407768903020854  1.0000
  H   H23       1.0  0.1781101383625483  0.612661593671156  0.6488741702188178  1.0000
  H   H24       1.0  0.8218867925342155  0.38734083959008103  0.3511298027492843  1.0000
  H   H25       1.0  0.360162712121756  0.5625518073052833  0.689299660620122  1.0000
  H   H26       1.0  0.6398353639202271  0.4374474333773222  0.3107064608308434  1.0000
  H   H27       1.0  0.8684803700289765  0.30651739381850274  0.5275901992854626  1.0000
  H   H28       1.0  0.13153793868014677  0.6934884987548247  0.47239037196705874  1.0000
  H   H29       1.0  0.04490276004255378  0.2109062531087745  0.48328477589323166  1.0000
  H   H30       1.0  0.9551089239525652  0.7890900629446379  0.5166966783002421  1.0000
  H   H31       1.0  0.6755600604209208  0.09059939676811983  0.4042499630435684  1.0000
  H   H32       1.0  0.3244338545019899  0.9094019012530268  0.5957617862218996  1.0000
  H   H33       1.0  0.761551049644531  0.10786118329577485  0.26457152584006843  1.0000
  H   H34       1.0  0.23844893417103927  0.8921294985767715  0.7354453711404856  1.0000
  H   H35       1.0  0.578608067745499  0.15416274465978574  0.0371227370731971  1.0000
  H   H36       1.0  0.4213975840829109  0.845824827454983  0.9628883805926022  1.0000
  H   H37       1.0  0.6795903501366496  0.2309006065615122  0.05366749859748418  1.0000
  H   H38       1.0  0.32041409030697576  0.7690965244115164  0.9463407311662945  1.0000
  C   C1        1.0  0.34736116478540413  0.35297278408187793  0.6071912548087964  1.0000
  C   C2        1.0  0.6526357328820752  0.6470295955899562  0.39281940388851677  1.0000
  C   C3        1.0  0.3425620288123241  0.3033075319767634  0.8235773411981383  1.0000
  C   C4        1.0  0.6574318758359325  0.6966969860269148  0.17642944191891272  1.0000
  C   C5        1.0  0.24538488313753964  0.3464869042192619  0.9450258350633332  1.0000
  C   C6        1.0  0.754609009049737  0.6535175936883849  0.054983455202176526  1.0000
  C   C7        1.0  0.22179222958937564  0.5012163884093256  0.9407959569120191  1.0000
  C   C8        1.0  0.7782013133103264  0.4987859894349428  0.059213126188140626  1.0000
  C   C9        1.0  0.14649878706759267  0.5969009264575434  0.8394131934306797  1.0000
  C   C10       1.0  0.8534973665534907  0.40310361286053364  0.16059213293601712  1.0000
  C   C11       1.0  0.24143670227471872  0.5515264473532682  0.7183043945091327  1.0000
  C   C12       1.0  0.7585590979051346  0.4484759652027537  0.281701560408372  1.0000
  C   C13       1.0  0.8469393667041061  0.9636524449722548  0.684282774917044  1.0000
  C   C14       1.0  0.15306358171205403  0.03635547205303881  0.3157015150240596  1.0000
  C   C15       1.0  0.7213421851785712  0.9941408281889255  0.806545982751011  1.0000
  C   C16       1.0  0.2786565627682407  0.005872319266707401  0.19344481886924567  1.0000
  C   C17       1.0  0.6862275359481274  0.489250982756836  0.7334559084652453  1.0000
  C   C18       1.0  0.3137808345968196  0.510738924997334  0.2665297238471424  1.0000
  C   C19       1.0  0.8246284387800884  0.5142281344513648  0.7543229977524532  1.0000
  C   C20       1.0  0.17537391227813254  0.48575952291864183  0.2456756800062081  1.0000
  C   C21       1.0  0.9479894235139525  0.06524969476265602  0.03031285827790243  1.0000
  C   C22       1.0  0.052015536517302535  0.9347498309194864  0.9696613142889914  1.0000
  N   N1        1.0  0.26222793110478904  0.39824611764579754  0.7265991144695078  1.0000
  N   N2        1.0  0.7377656386842092  0.6017530670106482  0.2734115919144529  1.0000
  O   O1        1.0  0.1910091082576244  0.16215218796754982  0.7025188337710943  1.0000
  O   O2        1.0  0.8089912727221034  0.8378439277323653  0.29748160420026437  1.0000
  O   O3        1.0  0.3417322159331206  0.18497009191644764  0.4804146653131696  1.0000
  O   O4        1.0  0.6582714721567842  0.8150291853054769  0.5195899035523012  1.0000
  O   O5        1.0  0.4926163886815473  0.06582677652966143  0.6422955441547414  1.0000
  O   O6        1.0  0.5073858401721907  0.9341703934170555  0.3577066209140226  1.0000
  O   O7        1.0  0.9598105023334257  0.014172173895943307  0.651904556323977  1.0000
  O   O8        1.0  0.040188324313930816  0.9858346273760934  0.34808447756698496  1.0000
  O   O9        1.0  0.17444507148872654  0.10957581086472604  0.3720634743676072  1.0000
  O   O10       1.0  0.8255497472869989  0.890420348679996  0.6279284875954118  1.0000
  O   O11       1.0  0.7339705531159949  0.07853948658717513  0.857380347667174  1.0000
  O   O12       1.0  0.26602935046967946  0.9214737217657287  0.14260345770676974  1.0000
  O   O13       1.0  0.38129533216896044  0.06877926694960482  0.15447991479771864  1.0000
  O   O14       1.0  0.618702390650796  0.9312243204293867  0.845512724326454  1.0000
  O   O15       1.0  0.7049877621174403  0.36248368239323986  0.7290253805534873  1.0000
  O   O16       1.0  0.2950280353391577  0.6375137360160751  0.2709530011224359  1.0000
  O   O17       1.0  0.4325304828066407  0.4035063788999907  0.27806389034903833  1.0000
  O   O18       1.0  0.5674684472442378  0.5964876429220711  0.7219324723933055  1.0000
  O   O19       1.0  0.9468207664196061  0.4058933987390674  0.7618332846681638  1.0000
  O   O20       1.0  0.05317998046232472  0.5941048638189343  0.23816401760392836  1.0000
  O   O21       1.0  0.19487487276263943  0.3619072691658262  0.23782943414073537  1.0000
  O   O22       1.0  0.8051218124690679  0.6380867380405136  0.762167549635805  1.0000
  O   O23       1.0  0.889401573190966  0.17961013467432005  0.9630021292744857  1.0000
  O   O24       1.0  0.1106063341692618  0.8203871789905365  0.03698511175034722  1.0000
  O   O25       1.0  0.07117168796431621  0.9527985773005274  0.8573819281367959  1.0000
  O   O26       1.0  0.9288287677812976  0.04719765897556982  0.14260346694381806  1.0000
  O   O27       1.0  0.973239058885497  0.2793004681406473  0.5392012136524755  1.0000
  O   O28       1.0  0.026779723283006242  0.7206947985394694  0.46078271503601803  1.0000
  O   O29       1.0  0.6623363370150841  0.14673385866768746  0.3254487274507554  1.0000
  O   O30       1.0  0.3376628758647938  0.8532621760389247  0.6745612139153678  1.0000
  O   O31       1.0  0.577761037027301  0.21112820365398488  0.08964814282239794  1.0000
  O   O32       1.0  0.4222487861948422  0.7888540911397187  0.9103623131773161  1.0000
