data_image0
_chemical_formula_structural       Zn2H33C47N3Cl2O8
_chemical_formula_sum              "Zn2 H33 C47 N3 Cl2 O8"
_cell_length_a       10.908163987878714
_cell_length_b       14.622306484651894
_cell_length_c       15.525820027961656
_cell_angle_alpha    100.03780922553433
_cell_angle_beta     88.90516176638864
_cell_angle_gamma    108.09866967891149

_space_group_name_H-M_alt    "P 1"
_space_group_IT_number       1

loop_
  _space_group_symop_operation_xyz
  'x, y, z'

loop_
  _atom_site_type_symbol
  _atom_site_label
  _atom_site_symmetry_multiplicity
  _atom_site_fract_x
  _atom_site_fract_y
  _atom_site_fract_z
  _atom_site_occupancy
  Zn  Zn1       1.0  0.5364254937461722  0.5955350947468147  0.4826348715845726  1.0000
  Zn  Zn2       1.0  0.45351591121098517  0.4052232314638288  0.5159570423091253  1.0000
  H   H1        1.0  0.1618555052189948  0.6510521356929077  0.5546776519134726  1.0000
  H   H2        1.0  0.1368483400433007  0.5741506628657473  0.6334808334212951  1.0000
  H   H3        1.0  0.6891219017844107  0.6320952972499395  0.14820970361746788  1.0000
  H   H4        1.0  0.4705856744987499  0.187814112895289  0.08388378509435772  1.0000
  H   H5        1.0  0.27126503662998414  0.9742871040205756  0.6764489720398572  1.0000
  H   H6        1.0  0.4579365443506944  0.7656507685768049  0.537561112267163  1.0000
  H   H7        1.0  0.7091763834895275  0.7010917598428674  0.3535166192836812  1.0000
  H   H8        1.0  0.7345408534174851  0.0329349363618192  0.3328914598353734  1.0000
  H   H9        1.0  0.23786790399290678  0.1391580561560275  0.6977554460669637  1.0000
  H   H10       1.0  0.2879299058768794  0.3028215518958888  0.650801903424977  1.0000
  H   H11       1.0  0.5350850879844131  0.23702220318629222  0.4639889854625779  1.0000
  H   H12       1.0  0.8251614378077078  0.342368835630765  0.46383870870612753  1.0000
  H   H13       1.0  0.9184691171091188  0.5632504709145322  0.6395747649317303  1.0000
  H   H14       1.0  0.3748815584131222  0.8588733288904108  0.6001030658633297  1.0000
  H   H15       1.0  0.6303665301486348  0.14809271979165564  0.4087855722107534  1.0000
  H   H16       1.0  0.7642116360472213  0.8665953808703858  0.3093470885183649  1.0000
  H   H17       1.0  0.946386224168698  0.6495765782383668  0.5688494927390837  1.0000
  H   H18       1.0  0.14192235979474083  0.5864896784019678  0.39995496635050654  1.0000
  H   H19       1.0  0.9294780593795123  0.5904917641582941  0.40314483644451127  1.0000
  H   H20       1.0  0.0379485278674849  0.3396431955128988  0.4710317550803255  1.0000
  H   H21       1.0  0.052316330351580155  0.38971642443806337  0.5831922861749705  1.0000
  H   H22       1.0  0.8346915727434235  0.38272021894213987  0.5778964405151967  1.0000
  H   H23       1.0  0.875487509552535  0.46388649992974956  0.3606805071894001  1.0000
  H   H24       1.0  0.6574466273753856  0.40290448311777977  0.7929969766515159  1.0000
  H   H25       1.0  0.6315954152490945  0.24903098433366466  0.7200382634500286  1.0000
  H   H26       1.0  0.5121102086550025  0.1979547683148865  0.7923823103622213  1.0000
  H   H27       1.0  0.6787545199149818  0.22924605077523805  0.8233826261822232  1.0000
  H   H28       1.0  0.7508902420156713  0.7580210224392372  0.056034856531212464  1.0000
  H   H29       1.0  0.5803411513362631  0.538595074312667  0.21898394277636873  1.0000
  H   H30       1.0  0.4446185795782824  0.23759639692270437  0.24363823247998792  1.0000
  H   H31       1.0  0.5391695469085106  0.23260131234950165  0.9413939274856419  1.0000
  H   H32       1.0  0.6611232002706585  0.7602099315006042  0.753801388988208  1.0000
  H   H33       1.0  0.5219761395511567  0.45934771830385296  0.7784610259183042  1.0000
  C   C1        1.0  0.5349576437709657  0.5754730117611614  0.6658478230464271  1.0000
  C   C2        1.0  0.6240536668903403  0.5556007798893745  0.8958981175049773  1.0000
  C   C3        1.0  0.6773084281034941  0.6569846132155489  0.9350568549812053  1.0000
  C   C4        1.0  0.25550651051108286  0.49850692234705457  0.49820268369759907  1.0000
  C   C5        1.0  0.6105940944731855  0.4809058706610543  0.9490989481192784  1.0000
  C   C6        1.0  0.619606241405144  0.5094936623245089  0.04134270921956331  1.0000
  C   C7        1.0  0.6722684995510233  0.6108431032993732  0.07758530117114046  1.0000
  C   C8        1.0  0.706431124201515  0.6816495670423206  0.026622853424505884  1.0000
  C   C9        1.0  0.589620084247642  0.378155200059517  0.9129386700521209  1.0000
  C   C10       1.0  0.5558443906848893  0.3096520990562296  0.9680746388566774  1.0000
  C   C11       1.0  0.5419041355641241  0.33613239786829746  0.059035714780002004  1.0000
  C   C12       1.0  0.875186164637661  0.49906756201414026  0.5025118809098572  1.0000
  C   C13       1.0  0.5768800121013484  0.43729881266789755  0.09751540960143498  1.0000
  C   C14       1.0  0.4962003477843098  0.26499217062342234  0.11361659376961342  1.0000
  C   C15       1.0  0.48174502391814394  0.29206351488251403  0.20190993453555714  1.0000
  C   C16       1.0  0.4936669785093812  0.42366290028655823  0.33431399880674206  1.0000
  C   C17       1.0  0.5603842970399384  0.46263151021012305  0.1875763619748199  1.0000
  C   C18       1.0  0.30442359347681247  0.15780690344040946  0.6455926285641596  1.0000
  C   C19       1.0  0.33054159922985343  0.24741865019123566  0.6203321495731373  1.0000
  C   C20       1.0  0.471021444905702  0.2104007382440471  0.5151088846053399  1.0000
  C   C21       1.0  0.45189634431073955  0.11709131845102409  0.5361993600458136  1.0000
  C   C22       1.0  0.3639160031554526  0.08968071482109956  0.6033724206075277  1.0000
  C   C23       1.0  0.9336785118558241  0.5192139694083193  0.41385264124919274  1.0000
  C   C24       1.0  0.5154937236441627  0.04988087125663299  0.4919681042910257  1.0000
  C   C25       1.0  0.48656670774041544  0.9559753536408594  0.5149614737672294  1.0000
  C   C26       1.0  0.3973156289054458  0.9308772776860506  0.5821604537904363  1.0000
  C   C27       1.0  0.33878744222749907  0.9950855907448711  0.6252224154319421  1.0000
  C   C28       1.0  0.7370884251358446  0.503675243140897  0.5034796941141195  1.0000
  C   C29       1.0  0.6064368451684032  0.07557534114413039  0.4258125893704517  1.0000
  C   C30       1.0  0.6653647258263858  0.011471941777841697  0.38306374695943657  1.0000
  C   C31       1.0  0.637842757521291  0.916021206772477  0.40348179843779525  1.0000
  C   C32       1.0  0.5486193223234467  0.8881733138444545  0.4698665223254325  1.0000
  C   C33       1.0  0.6961463903978781  0.8474184356271904  0.3605986665827885  1.0000
  C   C34       1.0  0.8816550802009997  0.39927203191245997  0.5167619090235149  1.0000
  C   C35       1.0  0.6668766958015483  0.7566839795854107  0.3840268764699246  1.0000
  C   C36       1.0  0.5252953946560055  0.7933457441945679  0.488430535449858  1.0000
  C   C37       1.0  0.0998270738100757  0.5814197688154293  0.5704756675770284  1.0000
  C   C38       1.0  0.9570357014688468  0.5789222670890479  0.57585961608941  1.0000
  C   C39       1.0  0.07435429334076822  0.5172095787329241  0.41203608117421453  1.0000
  C   C40       1.0  0.0233895859289532  0.3996455191471212  0.5188838586505611  1.0000
  C   C41       1.0  0.11435835430123116  0.496919321437012  0.4997218238574562  1.0000
  C   C42       1.0  0.6078312477364065  0.25174486016924646  0.7891848420753862  1.0000
  C   C43       1.0  0.5870811130645919  0.6057057867456237  0.758706111668694  1.0000
  C   C44       1.0  0.5124342302965131  0.3921074953038043  0.2396513090659909  1.0000
  C   C45       1.0  0.6919996397229295  0.7285495562513516  0.8808581455283147  1.0000
  C   C46       1.0  0.649650508570808  0.7045227335337784  0.7942281835849984  1.0000
  C   C47       1.0  0.5756818653275814  0.5336460800024838  0.808468146007627  1.0000
  N   N1        1.0  0.41220589102675115  0.2723323993804883  0.5550830761055324  1.0000
  N   N2        1.0  0.5823798384292685  0.7307031471545214  0.44756118569176107  1.0000
  N   N3        1.0  0.606531251073747  0.349485742623628  0.8252418424530462  1.0000
  Cl  Cl1       1.0  0.09576287746450164  0.42807951545250944  0.320766925190739  1.0000
  Cl  Cl2       1.0  0.7619012876113517  0.8517537881880838  0.9252785889295155  1.0000
  O   O1        1.0  0.5629690569515658  0.6403618359637663  0.6171272219403008  1.0000
  O   O2        1.0  0.4689723789501983  0.48610399768683266  0.6423386136354098  1.0000
  O   O3        1.0  0.34048089226946837  0.5793740900259791  0.4922439112875878  1.0000
  O   O4        1.0  0.2767412313002994  0.41898993924148425  0.5034619924095765  1.0000
  O   O5        1.0  0.5075807557493661  0.5142917949146478  0.35972068212014824  1.0000
  O   O6        1.0  0.46639328392240736  0.3590330710816332  0.3834898786518295  1.0000
  O   O7        1.0  0.7194249885669776  0.5790077536297318  0.48233295781293617  1.0000
  O   O8        1.0  0.6499699887251182  0.4322576371748709  0.5263508564339575  1.0000
