data_image0
_chemical_formula_structural       Er4H24C36N4O28
_chemical_formula_sum              "Er4 H24 C36 N4 O28"
_cell_length_a       7.527406780484396
_cell_length_b       8.335697696299052
_cell_length_c       17.029759258010586
_cell_angle_alpha    90.00001255654261
_cell_angle_beta     90.00012245165404
_cell_angle_gamma    104.4061865538497

_space_group_name_H-M_alt    "P 1"
_space_group_IT_number       1

loop_
  _space_group_symop_operation_xyz
  'x, y, z'

loop_
  _atom_site_type_symbol
  _atom_site_label
  _atom_site_symmetry_multiplicity
  _atom_site_fract_x
  _atom_site_fract_y
  _atom_site_fract_z
  _atom_site_occupancy
  Er  Er1       1.0  0.22035282715535948  0.9316030647974998  0.2834034609641236  1.0000
  Er  Er2       1.0  0.7796511390937584  0.5683956288952532  0.7834037306288335  1.0000
  Er  Er3       1.0  0.7796467691745976  0.06839497815366262  0.7165971204295758  1.0000
  Er  Er4       1.0  0.22034945049117038  0.43160117993176783  0.2165968507652707  1.0000
  H   H1        1.0  0.43134411104846776  0.299082366056119  0.9757198307812375  1.0000
  H   H2        1.0  0.5686574581084117  0.20091916532835086  0.4757198693368279  1.0000
  H   H3        1.0  0.5686565107156484  0.7009243426075146  0.024281925028176894  1.0000
  H   H4        1.0  0.43134215430048084  0.7990838275378708  0.5242771888130021  1.0000
  H   H5        1.0  0.3141548032419765  0.890614935810433  0.8129112825856382  1.0000
  H   H6        1.0  0.685852632302087  0.60938134079219  0.3129114232491901  1.0000
  H   H7        1.0  0.685848109303635  0.10938064336711761  0.187090473224238  1.0000
  H   H8        1.0  0.3141496395212543  0.3906216610243263  0.6870891581460867  1.0000
  H   H9        1.0  0.1235389512187055  0.8090773870928628  0.041649549504413096  1.0000
  H   H10       1.0  0.8764571284212865  0.6909258516695687  0.5416511006679982  1.0000
  H   H11       1.0  0.8764586585997878  0.19092312410612067  0.9583504446811161  1.0000
  H   H12       1.0  0.12353783808757876  0.30907960050208066  0.4583518295533509  1.0000
  H   H13       1.0  0.7364219482118988  0.47733555832141417  0.16977847120199385  1.0000
  H   H14       1.0  0.2635803567354388  0.0226642593857775  0.6697846990056036  1.0000
  H   H15       1.0  0.26358099650223477  0.522669920689502  0.8302203485716573  1.0000
  H   H16       1.0  0.7364155869342358  0.9773350087420242  0.3302158823864119  1.0000
  H   H17       1.0  0.827791102740534  0.602375756450648  0.08724946365932597  1.0000
  H   H18       1.0  0.17221886303398284  0.897633787710788  0.5872532978635547  1.0000
  H   H19       1.0  0.17221382848049424  0.3976272543110468  0.9127481817004152  1.0000
  H   H20       1.0  0.8277840816831916  0.10237169130105882  0.4127466963248168  1.0000
  H   H21       1.0  0.9089656800767971  0.3318715330347999  0.10189208990611578  1.0000
  H   H22       1.0  0.09103561586360343  0.16813064998666502  0.6018928837353881  1.0000
  H   H23       1.0  0.09103490950965926  0.6681252757926758  0.8981090786953485  1.0000
  H   H24       1.0  0.9089573319546036  0.8318673705961929  0.3981082848624808  1.0000
  C   C1        1.0  0.2601428729006373  0.1168320696562901  0.1023779735356456  1.0000
  C   C2        1.0  0.7398567433191731  0.3831639211435133  0.6023776538731764  1.0000
  C   C3        1.0  0.7398630515875555  0.8831697069849798  0.8976243694833954  1.0000
  C   C4        1.0  0.260139200352029  0.6168353469847502  0.3976235147262059  1.0000
  C   C5        1.0  0.27576538010151114  0.0615661268254115  0.019365647597602693  1.0000
  C   C6        1.0  0.7242324757586689  0.43842972816630515  0.5193653192637484  1.0000
  C   C7        1.0  0.7242322297184959  0.9384343843740411  0.9806349337952865  1.0000
  C   C8        1.0  0.2757594788015184  0.5615695265397703  0.4806346749189885  1.0000
  C   C9        1.0  0.3693339015545691  0.16954615897794406  0.9618200081038709  1.0000
  C   C10       1.0  0.6306655929001439  0.3304528687478907  0.4618224699367843  1.0000
  C   C11       1.0  0.6306630353655152  0.8304518750243162  0.03817881166646939  1.0000
  C   C12       1.0  0.3693373518200788  0.669552610264887  0.5381786986663143  1.0000
  C   C13       1.0  0.38670492701597686  0.10864202300752622  0.8866257614927803  1.0000
  C   C14       1.0  0.6132915179279976  0.3913568768031794  0.3866252775836401  1.0000
  C   C15       1.0  0.6132890140587296  0.8913547634516519  0.11337599431285378  1.0000
  C   C16       1.0  0.38671341329455816  0.6086461339589846  0.613372954983461  1.0000
  C   C17       1.0  0.303714163655748  0.942445763465038  0.8709907862491305  1.0000
  C   C18       1.0  0.6962872933045932  0.5575617210894351  0.3709897565811175  1.0000
  C   C19       1.0  0.696288781067523  0.0575597155486705  0.1290115567686954  1.0000
  C   C20       1.0  0.30371332845496113  0.44244498757280576  0.6290102376062165  1.0000
  C   C21       1.0  0.197785232071297  0.8970370456400546  0.9984241255023392  1.0000
  C   C22       1.0  0.8022112146547968  0.6029644341182347  0.49842496445162965  1.0000
  C   C23       1.0  0.8022147007078717  0.10296223590947313  0.0015770430989618996  1.0000
  C   C24       1.0  0.19777774405697104  0.39703357304382797  0.5015767913516882  1.0000
  C   C25       1.0  0.9597579573173011  0.6830769319572951  0.19688643094180236  1.0000
  C   C26       1.0  0.04024722623997687  0.8169228679269621  0.6968854314168524  1.0000
  C   C27       1.0  0.04025261307852903  0.31692238538087036  0.8031129760425202  1.0000
  C   C28       1.0  0.9597630077036005  0.18307521081190714  0.3031122139451553  1.0000
  C   C29       1.0  0.8647987523417842  0.5468267182313226  0.14167361813407098  1.0000
  C   C30       1.0  0.13520683377159062  0.9531804214169098  0.6416762487341783  1.0000
  C   C31       1.0  0.13520351947698125  0.453176283583801  0.8583252016391113  1.0000
  C   C32       1.0  0.8647914489392152  0.04682256697694952  0.3583225710370924  1.0000
  C   C33       1.0  0.4942762375776797  0.21604593528527968  0.8236554635178308  1.0000
  C   C34       1.0  0.5057222036527237  0.28395163525247824  0.3236589743716181  1.0000
  C   C35       1.0  0.5057233587477088  0.7839521076644828  0.1763433562537884  1.0000
  C   C36       1.0  0.4942817343224706  0.716052609636158  0.6763421942318928  1.0000
  N   N1        1.0  0.20858772734987246  0.8398529086851525  0.9254172233701892  1.0000
  N   N2        1.0  0.7914123458205896  0.6601534189070931  0.42541747129527596  1.0000
  N   N3        1.0  0.7914142080273125  0.16014885453392216  0.074583945232213  1.0000
  N   N4        1.0  0.20858494364133412  0.33985080361277653  0.5745836973050302  1.0000
  O   O1        1.0  0.252188944805603  0.007127507024705401  0.1547574472689917  1.0000
  O   O2        1.0  0.7477999369084859  0.4928573924218611  0.6547577350386005  1.0000
  O   O3        1.0  0.7478239646343995  0.9928755305804415  0.8452413725093135  1.0000
  O   O4        1.0  0.25219466097807713  0.5071369213166647  0.34524578238929127  1.0000
  O   O5        1.0  0.9010800287551607  0.8071928760961884  0.21262063112038723  1.0000
  O   O6        1.0  0.09891427845594344  0.6928106242135145  0.7126226097701076  1.0000
  O   O7        1.0  0.09892855511701272  0.19280890948608234  0.7873734909968703  1.0000
  O   O8        1.0  0.9010886340866197  0.30718495496310544  0.28737797162504813  1.0000
  O   O9        1.0  0.5206952328505992  0.14841568553404016  0.7593404116535466  1.0000
  O   O10       1.0  0.47930151284604966  0.3515718789419324  0.2593450792944053  1.0000
  O   O11       1.0  0.47930468383592034  0.8515786460962433  0.24065899532537566  1.0000
  O   O12       1.0  0.5207007589788123  0.6484311228750529  0.7406560893082244  1.0000
  O   O13       1.0  0.9859279830720243  0.44342446278805164  0.1256299908692711  1.0000
  O   O14       1.0  0.014072410592213203  0.0565690920795419  0.6256330467738918  1.0000
  O   O15       1.0  0.014070619998392504  0.5565748142858596  0.874368828901936  1.0000
  O   O16       1.0  0.9859261763946994  0.9434252350779175  0.37436753461911104  1.0000
  O   O17       1.0  0.25692027482362084  0.26683551788477194  0.11303931744752299  1.0000
  O   O18       1.0  0.7430790119878027  0.23314440142910087  0.6130366348397017  1.0000
  O   O19       1.0  0.7430749959506932  0.7331612730472232  0.8869612639440303  1.0000
  O   O20       1.0  0.2569189181872461  0.7668523984490109  0.38696218493104334  1.0000
  O   O21       1.0  0.11113147797879466  0.6654872655015752  0.22804911687958196  1.0000
  O   O22       1.0  0.8888589040670357  0.8345112958754226  0.7280471731939924  1.0000
  O   O23       1.0  0.8888684387077251  0.3345070661287081  0.7719502900993402  1.0000
  O   O24       1.0  0.11113401156741531  0.1654768248694154  0.2719510593664864  1.0000
  O   O25       1.0  0.5554411808646267  0.369232223995148  0.8397696461059139  1.0000
  O   O26       1.0  0.44456032373636145  0.13076166966678224  0.339776016647356  1.0000
  O   O27       1.0  0.44456073841686844  0.6307645893037589  0.1602285864593824  1.0000
  O   O28       1.0  0.5554449439369193  0.869242579694209  0.6602233903346999  1.0000
