data_image0
_chemical_formula_structural       Cd8H104C160N16O40
_chemical_formula_sum              "Cd8 H104 C160 N16 O40"
_cell_length_a       13.262640557500651
_cell_length_b       17.7674664168257
_cell_length_c       20.97797862367928
_cell_angle_alpha    83.2542791282268
_cell_angle_beta     71.61640896806715
_cell_angle_gamma    68.10408029226039

_space_group_name_H-M_alt    "P 1"
_space_group_IT_number       1

loop_
  _space_group_symop_operation_xyz
  'x, y, z'

loop_
  _atom_site_type_symbol
  _atom_site_label
  _atom_site_symmetry_multiplicity
  _atom_site_fract_x
  _atom_site_fract_y
  _atom_site_fract_z
  _atom_site_occupancy
  Cd  Cd1       1.0  0.05159513329017079  0.389211864655735  0.5222284313206345  1.0000
  Cd  Cd2       1.0  0.42631076074738433  0.1107896619668622  0.5222138480542214  1.0000
  Cd  Cd3       1.0  0.5589817223830806  0.3892332839200633  0.9778259915462044  1.0000
  Cd  Cd4       1.0  0.4629735655752896  0.11076498347014757  0.9776841372029637  1.0000
  Cd  Cd5       1.0  0.9484096216041636  0.6107895703918587  0.477769385515188  1.0000
  Cd  Cd6       1.0  0.573675780529058  0.8892148045813002  0.47778867316175416  1.0000
  Cd  Cd7       1.0  0.44101488394942157  0.6107663304919482  0.02217369663341628  1.0000
  Cd  Cd8       1.0  0.5370216443402357  0.8892346301887811  0.022312201946192427  1.0000
  H   H1        1.0  0.2185097421889355  0.584061971710369  0.6175034216430576  1.0000
  H   H2        1.0  0.32886849084798825  0.5012065122225805  0.6972995176530431  1.0000
  H   H3        1.0  0.3859558343800983  0.3496541640479975  0.6949443389617259  1.0000
  H   H4        1.0  0.24630928525929355  0.2619984222814722  0.715952495389125  1.0000
  H   H5        1.0  0.28787552459855453  0.20015552892655109  0.8049997367169865  1.0000
  H   H6        1.0  0.11960118628911687  0.44781758190401166  0.36754031105856194  1.0000
  H   H7        1.0  0.19964963997767182  0.39334418765910323  0.25252176979931557  1.0000
  H   H8        1.0  0.23526714907917082  0.1541450517116302  0.33884493619760997  1.0000
  H   H9        1.0  0.15700346234172713  0.21872820981730706  0.4511093693538085  1.0000
  H   H10       1.0  0.18344195112680947  0.015027373109042197  0.9267567269120108  1.0000
  H   H11       1.0  0.26775173257772183  0.0060918190525854  0.7106008940152931  1.0000
  H   H12       1.0  0.20464844204572333  0.9467166480287759  0.823604490104593  1.0000
  H   H13       1.0  0.22514320284884798  0.14163976581094315  0.9172285743536932  1.0000
  H   H14       1.0  0.16417533512868948  0.9159768766534242  0.6172558864225338  1.0000
  H   H15       1.0  0.9741152705367995  0.998784344567035  0.6970461307292622  1.0000
  H   H16       1.0  0.9192765146887966  0.150364619451274  0.6947599295318695  1.0000
  H   H17       1.0  0.03780062441035883  0.23802853150099418  0.7159889356237841  1.0000
  H   H18       1.0  0.9070535305869357  0.2998756433240573  0.8049183266084583  1.0000
  H   H19       1.0  0.512866961773078  0.05208221329012729  0.36738740198963876  1.0000
  H   H20       1.0  0.5480837866416551  0.10662775103020998  0.2524008302613581  1.0000
  H   H21       1.0  0.425583570210357  0.3457937205906773  0.3389958937113633  1.0000
  H   H22       1.0  0.3912152206749371  0.2811669478933112  0.45120166289779456  1.0000
  H   H23       1.0  0.8897017723070916  0.48483729035208967  0.9270055373398876  1.0000
  H   H24       1.0  0.021586340630499214  0.49393708773175127  0.7108785446587406  1.0000
  H   H25       1.0  0.9715288856735003  0.5532681706172299  0.8239914015634607  1.0000
  H   H26       1.0  0.8575893540892282  0.35826111800380284  0.9172516292709005  1.0000
  H   H27       1.0  0.1971354480468861  0.5839912352064544  0.8825146259824522  1.0000
  H   H28       1.0  0.1699939915810021  0.5009915777075163  0.8026192877641734  1.0000
  H   H29       1.0  0.2645570119816867  0.3494589488568707  0.8049516375529251  1.0000
  H   H30       1.0  0.49162766554460574  0.26193208921669237  0.7839222024486928  1.0000
  H   H31       1.0  0.5117969828497522  0.20006891044313585  0.6949310709085168  1.0000
  H   H32       1.0  0.4321623085556754  0.4478792686657016  0.13256377322559126  1.0000
  H   H33       1.0  0.4066119601718372  0.39338172587802217  0.24756435883166714  1.0000
  H   H34       1.0  0.6106148101012822  0.15429210712701996  0.1610976547350376  1.0000
  H   H35       1.0  0.6240042780856714  0.2188523977057528  0.04887326243170522  1.0000
  H   H36       1.0  0.8011331936351385  0.0148643568524562  0.5731616824374156  1.0000
  H   H37       1.0  0.7259996199273361  0.006162930729914299  0.7893116520356074  1.0000
  H   H38       1.0  0.8483356538905796  0.9466666688375652  0.6762857176385921  1.0000
  H   H39       1.0  0.6330358633411707  0.14157953412517088  0.5826806744284666  1.0000
  H   H40       1.0  0.9198139519357584  0.9160657100558109  0.8826257328989796  1.0000
  H   H41       1.0  0.02702088293957464  0.998952642301162  0.802876876456331  1.0000
  H   H42       1.0  0.9302148194045545  0.15051158192195388  0.8052128433878707  1.0000
  H   H43       1.0  0.7237953823929928  0.23816748859347564  0.7840694996145176  1.0000
  H   H44       1.0  0.7928727973274691  0.30008272512802847  0.6952219121586011  1.0000
  H   H45       1.0  0.43510447576001354  0.0521915969383286  0.1324002594083709  1.0000
  H   H46       1.0  0.3455002410581686  0.1066103412906543  0.2474238722305628  1.0000
  H   H47       1.0  0.22825780133741372  0.345813201179105  0.16107038008844649  1.0000
  H   H48       1.0  0.32703699659645497  0.2812837205709683  0.048800745513467816  1.0000
  H   H49       1.0  0.6255257843178583  0.48513534634705013  0.5732021910651497  1.0000
  H   H50       1.0  0.4842062133920775  0.4940002414175027  0.7893219625220099  1.0000
  H   H51       1.0  0.47508740109962105  0.5533950278795531  0.676222806475721  1.0000
  H   H52       1.0  0.7840885778421341  0.3585252914250034  0.5829188432971648  1.0000
  H   H53       1.0  0.7814951166859391  0.41593825058864536  0.38249725842077004  1.0000
  H   H54       1.0  0.6711354075442063  0.49879371011024876  0.30270211344711834  1.0000
  H   H55       1.0  0.6140496330743662  0.6503454519239964  0.30505761591032143  1.0000
  H   H56       1.0  0.7536922362838897  0.7380024065743314  0.28405040040028245  1.0000
  H   H57       1.0  0.7121227835428176  0.7998440864952059  0.19500457534263652  1.0000
  H   H58       1.0  0.880399947972386  0.5521790000183772  0.6324595490226627  1.0000
  H   H59       1.0  0.8003523308366242  0.606654214220292  0.7474779387009177  1.0000
  H   H60       1.0  0.7647376788254763  0.845852743627887  0.6611530320952214  1.0000
  H   H61       1.0  0.8430000731264826  0.7812683720205554  0.548888113136563  1.0000
  H   H62       1.0  0.8165561755525703  0.9849704220652384  0.07324551084271749  1.0000
  H   H63       1.0  0.7322475869659045  0.9939096160526192  0.2894015160956298  1.0000
  H   H64       1.0  0.7953483191869  0.05328357335191209  0.17639711039066694  1.0000
  H   H65       1.0  0.7748552292224107  0.8583580296200068  0.08277493825057283  1.0000
  H   H66       1.0  0.8358223378712211  0.08402213181656037  0.3827469888396209  1.0000
  H   H67       1.0  0.025878932384820467  0.0012146630891435998  0.3029546601503341  1.0000
  H   H68       1.0  0.08071389060912534  0.8496343875363409  0.30523988990811557  1.0000
  H   H69       1.0  0.962197048589552  0.7619704769689903  0.2840139396383635  1.0000
  H   H70       1.0  0.09294500111928992  0.7001251847010365  0.1950820092802203  1.0000
  H   H71       1.0  0.48713177354866155  0.9479204345805526  0.6326126204114503  1.0000
  H   H72       1.0  0.451913808939594  0.8933736834671392  0.7475993437620475  1.0000
  H   H73       1.0  0.5744124585127892  0.6542089271078523  0.6610052314310337  1.0000
  H   H74       1.0  0.6087831583353563  0.7188338800034515  0.548798035566108  1.0000
  H   H75       1.0  0.11030227657686711  0.5151623252687187  0.07299545629417992  1.0000
  H   H76       1.0  0.978419881486957  0.5060601015205107  0.289121497773685  1.0000
  H   H77       1.0  0.02847877937216483  0.4467296254246662  0.17600848920532292  1.0000
  H   H78       1.0  0.14241077324113863  0.6417403169392555  0.08274919237891247  1.0000
  H   H79       1.0  0.80286488069482  0.41601141274183817  0.11748460728890102  1.0000
  H   H80       1.0  0.8300086144375314  0.4990128901470781  0.19737836737168368  1.0000
  H   H81       1.0  0.7354392159486239  0.6505443050065407  0.19504662432014186  1.0000
  H   H82       1.0  0.5083722825279511  0.7380681323192347  0.2160778197870954  1.0000
  H   H83       1.0  0.48819689258924376  0.7999355563816976  0.30506734275216724  1.0000
  H   H84       1.0  0.567836247508254  0.5521221657978401  0.867435449761473  1.0000
  H   H85       1.0  0.5933881627501876  0.6066184953843389  0.7524339130364056  1.0000
  H   H86       1.0  0.3893825818644534  0.8457075075247502  0.8389028327759505  1.0000
  H   H87       1.0  0.37599470730002343  0.7811472170236371  0.9511264359495469  1.0000
  H   H88       1.0  0.19885766981338535  0.9851401095435648  0.42683655911503143  1.0000
  H   H89       1.0  0.27399721217420875  0.993838503125772  0.21068533486393898  1.0000
  H   H90       1.0  0.15166150575636556  0.0533347648728935  0.32371015631800754  1.0000
  H   H91       1.0  0.36695623942004135  0.8584237192149116  0.4173177289479355  1.0000
  H   H92       1.0  0.08018328733403021  0.08393390446762788  0.1173741171872393  1.0000
  H   H93       1.0  0.9729791890628692  0.0010457592439508  0.19712234632410025  1.0000
  H   H94       1.0  0.06978634362300083  0.8494868201195871  0.19478845357348012  1.0000
  H   H95       1.0  0.2762058802067458  0.7618284870187892  0.2159321107930978  1.0000
  H   H96       1.0  0.2071280780533726  0.6999144625742417  0.3047731723789795  1.0000
  H   H97       1.0  0.5649014631190852  0.9478055916553673  0.867596120382025  1.0000
  H   H98       1.0  0.6545083800618199  0.8933862410367369  0.7525725177201394  1.0000
  H   H99       1.0  0.7717494056204259  0.6541845944777974  0.8389275984060233  1.0000
  H   H100      1.0  0.6729708455028387  0.7187146820377066  0.9511986697784707  1.0000
  H   H101      1.0  0.37446844296145804  0.5148642677475833  0.4267974869128324  1.0000
  H   H102      1.0  0.5158003384749534  0.5059975545298698  0.21067824185833928  1.0000
  H   H103      1.0  0.5249123455615957  0.4466039806511474  0.32377880413852705  1.0000
  H   H104      1.0  0.2159070879570353  0.6414737157785663  0.41707813323543524  1.0000
  C   C1        1.0  0.14824377495668997  0.5374599134093427  0.5329704957173647  1.0000
  C   C2        1.0  0.21912516601143764  0.48162469529057  0.5756752337296192  1.0000
  C   C3        1.0  0.24666892029904372  0.5181339840029295  0.619913224726389  1.0000
  C   C4        1.0  0.3065560753255809  0.4726616063169827  0.6633830129768937  1.0000
  C   C5        1.0  0.33813331992086404  0.3885942081244095  0.6622777029541993  1.0000
  C   C6        1.0  0.3112401309223641  0.3518976313814619  0.6184669719295003  1.0000
  C   C7        1.0  0.34717446769386134  0.2611301468850796  0.6143927687925412  1.0000
  C   C8        1.0  0.30422170211038263  0.22276428896706338  0.6734699023254934  1.0000
  C   C9        1.0  0.3246942945777819  0.13843132950743348  0.6818803537604693  1.0000
  C   C10       1.0  0.2797729590594643  0.1077418094451232  0.7503555095653242  1.0000
  C   C11       1.0  0.26647283245732456  0.14589934240813557  0.8089441854910646  1.0000
  C   C12       1.0  0.14707355728731403  0.3827048149002649  0.3592711390832121  1.0000
  C   C13       1.0  0.19128449092737299  0.3514913086679883  0.2943997796474775  1.0000
  C   C14       1.0  0.22542252910836424  0.2677636235910228  0.2841566155948954  1.0000
  C   C15       1.0  0.2114767131571612  0.21954922891391954  0.34201568694557954  1.0000
  C   C16       1.0  0.16716377411018613  0.25497546827436673  0.4053750000537164  1.0000
  C   C17       1.0  0.2099897060213817  0.04105032767132848  0.8773714969547372  1.0000
  C   C18       1.0  0.25702137947921955  0.035658309451669395  0.7562394051664043  1.0000
  C   C19       1.0  0.22221315288319238  0.0027313904565459996  0.8193759335088584  1.0000
  C   C20       1.0  0.23236271376277526  0.11275595710029758  0.8721149078127582  1.0000
  C   C21       1.0  0.31886463205358967  0.9626306591991705  0.5329134360724196  1.0000
  C   C22       1.0  0.2052491291109746  0.018426652408770398  0.5755209907781023  1.0000
  C   C23       1.0  0.13353816206976185  0.9819065673217364  0.6196736385379323  1.0000
  C   C24       1.0  0.030203531332432563  0.02738054324063909  0.6631321616134258  1.0000
  C   C25       1.0  0.999707267185656  0.11144330200826859  0.6620872316960275  1.0000
  C   C26       1.0  0.0703877565460687  0.1481528579006124  0.6183646957362399  1.0000
  C   C27       1.0  0.03860506233601768  0.238924980734744  0.6143460150124866  1.0000
  C   C28       1.0  0.02252289762031967  0.2772551232556211  0.6734706065702056  1.0000
  C   C29       1.0  0.993638017439963  0.36158540960549596  0.6819364885887396  1.0000
  C   C30       1.0  0.969836475064959  0.3922860071217897  0.750466662999102  1.0000
  C   C31       1.0  0.9245168234999144  0.3541029382278325  0.8089695555809086  1.0000
  C   C32       1.0  0.493549215512367  0.11721025466091108  0.3591828397257543  1.0000
  C   C33       1.0  0.5143648160906338  0.14844800727215804  0.2943430554426385  1.0000
  C   C34       1.0  0.49031183040994364  0.23218995244448587  0.2841974626625258  1.0000
  C   C35       1.0  0.446240752811427  0.2803774540806714  0.3421096527052682  1.0000
  C   C36       1.0  0.4269891492514261  0.24493938643023236  0.40542402008542666  1.0000
  C   C37       1.0  0.9124666454014728  0.4588951191230207  0.8775795979257452  1.0000
  C   C38       1.0  0.9866383715111767  0.4643701265396416  0.7564701054410676  1.0000
  C   C39       1.0  0.9582363384089309  0.49726215446491295  0.8196647108258617  1.0000
  C   C40       1.0  0.8954289731975613  0.3871920327944167  0.8721928578016643  1.0000
  C   C41       1.0  0.314108375967244  0.5375579268097538  0.9669554928185279  1.0000
  C   C42       1.0  0.29906380877185523  0.48165012691426756  0.9243073890638343  1.0000
  C   C43       1.0  0.2349907131390553  0.5180612870993854  0.8800857963189583  1.0000
  C   C44       1.0  0.22074479077286208  0.47250366304260877  0.8365695020301516  1.0000
  C   C45       1.0  0.2733183637616677  0.3884527666161901  0.8376481149689213  1.0000
  C   C46       1.0  0.3368942800684423  0.3518655498217029  0.8814585395968209  1.0000
  C   C47       1.0  0.39181377823317115  0.2611086389273964  0.8855344334316017  1.0000
  C   C48       1.0  0.4730027390266046  0.22271980307814937  0.8264313044517023  1.0000
  C   C49       1.0  0.5367837870606637  0.13839519602073116  0.8180125074190344  1.0000
  C   C50       1.0  0.6123306098597896  0.10768994623625619  0.7495300402519973  1.0000
  C   C51       1.0  0.5874200089584607  0.14581879714732784  0.690969617249138  1.0000
  C   C52       1.0  0.4698021553688535  0.3827706486231576  0.1407972721262993  1.0000
  C   C53       1.0  0.4568667116522178  0.35154789792478164  0.20566084909442844  1.0000
  C   C54       1.0  0.5066381616428048  0.26784152327056887  0.21584866211996  1.0000
  C   C55       1.0  0.5688686546765638  0.21968070015530122  0.15796122496493578  1.0000
  C   C56       1.0  0.5776255749178035  0.2550949256037072  0.09461915760424938  1.0000
  C   C57       1.0  0.748612643577431  0.04092571583365159  0.622534800709829  1.0000
  C   C58       1.0  0.7071074332665009  0.0356230813378602  0.7436675766217107  1.0000
  C   C59       1.0  0.7748041714636289  0.0026743987840803  0.6805168457961202  1.0000
  C   C60       1.0  0.6546583303386624  0.11265166443183719  0.6277909669691296  1.0000
  C   C61       1.0  0.7185261714719788  0.9626135186714462  0.9670314652468263  1.0000
  C   C62       1.0  0.7762270391566022  0.018446293880458597  0.924355949575471  1.0000
  C   C63       1.0  0.884498851670216  0.981989712484562  0.8801998834550632  1.0000
  C   C64       1.0  0.9423143921925572  0.027498848048388393  0.8367621043594369  1.0000
  C   C65       1.0  0.8886812923852219  0.11155906675188727  0.8378274301414663  1.0000
  C   C66       1.0  0.7813188749444606  0.14821537273614638  0.8815625918941237  1.0000
  C   C67       1.0  0.7223204394806048  0.23897130958151538  0.8856674576109568  1.0000
  C   C68       1.0  0.6999514792488172  0.27736186754633957  0.8266052749756342  1.0000
  C   C69       1.0  0.6446833426809988  0.3617138676859212  0.8181887828797869  1.0000
  C   C70       1.0  0.6376712820341552  0.3924322845553405  0.7496927071304995  1.0000
  C   C71       1.0  0.7212291581888908  0.354306532091165  0.6911848720082716  1.0000
  C   C72       1.0  0.3892086476107367  0.117297670844124  0.14065568915378887  1.0000
  C   C73       1.0  0.33724665188038466  0.1484731455807164  0.20553273153728918  1.0000
  C   C74       1.0  0.2774208976624096  0.23218164749258105  0.2157597917922089  1.0000
  C   C75       1.0  0.273078636801877  0.2804099935943255  0.15789492720053028  1.0000
  C   C76       1.0  0.32765396869449165  0.24501362728892653  0.0945363830233674  1.0000
  C   C77       1.0  0.6285689396626708  0.4591369485165088  0.6226194769052781  1.0000
  C   C78       1.0  0.5487438644275356  0.4644597031255485  0.7437287651709213  1.0000
  C   C79       1.0  0.5443217727820411  0.4973874756486436  0.6805469230306543  1.0000
  C   C80       1.0  0.7172687724374355  0.38744364697291894  0.6279785689728072  1.0000
  C   C81       1.0  0.8517659128307075  0.4625360629760209  0.46702908131587145  1.0000
  C   C82       1.0  0.780883437363386  0.5183731011194225  0.4243260937953082  1.0000
  C   C83       1.0  0.7533365715131171  0.4818662384075195  0.38008761724403667  1.0000
  C   C84       1.0  0.693450175557928  0.5273374030544244  0.33661846633565756  1.0000
  C   C85       1.0  0.6618714880344431  0.6114041944573643  0.3377239280219868  1.0000
  C   C86       1.0  0.6887651572742828  0.648100771183401  0.3815341835285224  1.0000
  C   C87       1.0  0.6528307983492568  0.7388682560816875  0.38561077445795894  1.0000
  C   C88       1.0  0.6957812114414282  0.7772353269611255  0.32653379271263105  1.0000
  C   C89       1.0  0.6753035576799393  0.861568892369675  0.31812332091570983  1.0000
  C   C90       1.0  0.7202245900105596  0.8922590190156823  0.24964816515218036  1.0000
  C   C91       1.0  0.7335230988350362  0.8541008795365953  0.19106139125778998  1.0000
  C   C92       1.0  0.8529309121017125  0.6172905536249896  0.6407252303815696  1.0000
  C   C93       1.0  0.8087195269863586  0.6485058799933296  0.7055985022155936  1.0000
  C   C94       1.0  0.774579895385394  0.7322335649926686  0.7158424553979188  1.0000
  C   C95       1.0  0.7885306199347472  0.7804473535925139  0.6579827669844106  1.0000
  C   C96       1.0  0.8328383449917002  0.7450217200526622  0.5946227960895528  1.0000
  C   C97       1.0  0.7900077899248859  0.9589480742318768  0.12263185378425578  1.0000
  C   C98       1.0  0.7429745739666563  0.9643419120911572  0.24376378378996577  1.0000
  C   C99       1.0  0.777782951054455  0.9972682243742665  0.18062661798141716  1.0000
  C   C100      1.0  0.7676353907630826  0.8872418384758872  0.1278897177344546  1.0000
  C   C101      1.0  0.6811328174442439  0.037372595690896994  0.46708992519882037  1.0000
  C   C102      1.0  0.7947458904140913  0.9815747824466712  0.4244833112038648  1.0000
  C   C103      1.0  0.8664539981607721  0.018094867233230602  0.3803311287605665  1.0000
  C   C104      1.0  0.969792395551572  0.9726184650233946  0.33687086535369554  1.0000
  C   C105      1.0  0.00028000439608909564  0.8885581313817069  0.337914489981948  1.0000
  C   C106      1.0  0.929605007855699  0.8518467566466299  0.38163879658873867  1.0000
  C   C107      1.0  0.9613912186552657  0.7610752406628549  0.3856560610009439  1.0000
  C   C108      1.0  0.9774761917459219  0.7227432787252039  0.3265319550390515  1.0000
  C   C109      1.0  0.006365243606595142  0.6384135989352088  0.3180624308230833  1.0000
  C   C110      1.0  0.030167117935349014  0.6077142149543776  0.24953369325152155  1.0000
  C   C111      1.0  0.07548092477727412  0.6458984963978551  0.19103125586726577  1.0000
  C   C112      1.0  0.506448205219414  0.8827911801100042  0.6408190846653596  1.0000
  C   C113      1.0  0.48563280384830426  0.8515540336636389  0.7056560056791525  1.0000
  C   C114      1.0  0.5096851056721408  0.7678102686626358  0.7158023874650182  1.0000
  C   C115      1.0  0.553755249349848  0.719623980339058  0.657891310447873  1.0000
  C   C116      1.0  0.5730098892580178  0.7550626548567578  0.594576002274337  1.0000
  C   C117      1.0  0.0875360114738513  0.5411057094254019  0.12242059645959807  1.0000
  C   C118      1.0  0.013367091534931413  0.5356282757516624  0.24352929964923928  1.0000
  C   C119      1.0  0.04176819071636838  0.5027374611389986  0.18033580729003523  1.0000
  C   C120      1.0  0.10457181142779598  0.6128100086985242  0.1278070128531326  1.0000
  C   C121      1.0  0.6858908905154099  0.46244654076127023  0.03304310315202484  1.0000
  C   C122      1.0  0.7009348999880062  0.5183513076776052  0.07569247134800605  1.0000
  C   C123      1.0  0.7650117136216609  0.4819419673480709  0.11991105940286667  1.0000
  C   C124      1.0  0.7792549559511389  0.5275008045115044  0.16342861842223755  1.0000
  C   C125      1.0  0.7266816617923411  0.6115504879157854  0.16235111834375718  1.0000
  C   C126      1.0  0.6631044796109932  0.6481377044874179  0.11854036990265361  1.0000
  C   C127      1.0  0.608184348508985  0.7388946152702971  0.11446431416127473  1.0000
  C   C128      1.0  0.526993741171836  0.7772810244843312  0.17356790829239796  1.0000
  C   C129      1.0  0.46321269093360246  0.8616050247013972  0.18198543043419588  1.0000
  C   C130      1.0  0.3876662244459299  0.8923120944597827  0.25046822153841924  1.0000
  C   C131      1.0  0.4125742958023083  0.8541838499433464  0.30902927180574113  1.0000
  C   C132      1.0  0.5301979675531638  0.6172295726392109  0.8592009997417733  1.0000
  C   C133      1.0  0.5431324507871123  0.6484523233713874  0.7943383738099783  1.0000
  C   C134      1.0  0.49336001375196786  0.7321574847806076  0.784151349831532  1.0000
  C   C135      1.0  0.43112828140552034  0.7803195209518207  0.8420386251626155  1.0000
  C   C136      1.0  0.4223721467975068  0.7449052957431802  0.9053814918546691  1.0000
  C   C137      1.0  0.25138267478976667  0.9590793577808157  0.37746346128722047  1.0000
  C   C138      1.0  0.2928876527191307  0.9643783523118755  0.2563295619828025  1.0000
  C   C139      1.0  0.2251921339481342  0.9973318880753795  0.31948062715383674  1.0000
  C   C140      1.0  0.3453353658425159  0.8873515889858581  0.37220664727752956  1.0000
  C   C141      1.0  0.2814693482437819  0.0373873089248349  0.03296869853361527  1.0000
  C   C142      1.0  0.22377318774596228  0.981552714633338  0.07564518552060656  1.0000
  C   C143      1.0  0.11549725006324964  0.018009295505905205  0.11980139314434267  1.0000
  C   C144      1.0  0.05768471932720608  0.9724995535305323  0.16323806945733574  1.0000
  C   C145      1.0  0.11131675467130718  0.8884405476094057  0.16217083148364247  1.0000
  C   C146      1.0  0.2186824385748525  0.8517824225933663  0.1184380676011259  1.0000
  C   C147      1.0  0.27768186328744804  0.7610283058333491  0.1143336877280774  1.0000
  C   C148      1.0  0.3000514276904625  0.7226359278607999  0.17339459538987256  1.0000
  C   C149      1.0  0.3553219145454208  0.6382821079194443  0.1818096608072395  1.0000
  C   C150      1.0  0.3623348847553772  0.6075618712989695  0.2503057364325443  1.0000
  C   C151      1.0  0.2787709094052033  0.6456906557732508  0.3088118009904193  1.0000
  C   C152      1.0  0.6107996703215549  0.8826995180669497  0.8593407008382387  1.0000
  C   C153      1.0  0.6627619426777331  0.8515222234678672  0.794463496424157  1.0000
  C   C154      1.0  0.7225903813407801  0.7678137221300574  0.7842377212204141  1.0000
  C   C155      1.0  0.7269291787355457  0.7195871957355563  0.8421043261021522  1.0000
  C   C156      1.0  0.6723538712006273  0.7549841684794033  0.9054617573777007  1.0000
  C   C157      1.0  0.3714279676533679  0.5408614524714607  0.3773789363421471  1.0000
  C   C158      1.0  0.45126174911033  0.5355380924537342  0.2562700024532845  1.0000
  C   C159      1.0  0.45567754455741044  0.5026133526162082  0.3194542121893917  1.0000
  C   C160      1.0  0.28272929897679694  0.6125565738268219  0.37201857975068725  1.0000
  N   N1        1.0  0.2539633507431135  0.398090894955203  0.5742324746988886  1.0000
  N   N2        1.0  0.13559307616744573  0.33532433711016546  0.41407450948789665  1.0000
  N   N3        1.0  0.17183556176772902  0.10197290250009419  0.5741423097270157  1.0000
  N   N4        1.0  0.449989811808905  0.16456744379979676  0.4140345946327741  1.0000
  N   N5        1.0  0.3478625939961047  0.39813018929852  0.9257228058201649  1.0000
  N   N6        1.0  0.5287132533053126  0.335428847605435  0.08597826440583835  1.0000
  N   N7        1.0  0.7260764577569175  0.1019786644479623  0.9257706181746244  1.0000
  N   N8        1.0  0.3851938899084999  0.16467669976428567  0.08585464600048445  1.0000
  N   N9        1.0  0.7460458833648148  0.6019062947258644  0.425767739841774  1.0000
  N   N10       1.0  0.8644118025939992  0.6646698189231868  0.5859259980544279  1.0000
  N   N11       1.0  0.8281579904714395  0.8980273191272587  0.4258632568202075  1.0000
  N   N12       1.0  0.5500087176931459  0.8354327773849448  0.5859644663650344  1.0000
  N   N13       1.0  0.6521380644951835  0.6018730653448898  0.07427658939911196  1.0000
  N   N14       1.0  0.47128479595539824  0.6645713735962103  0.9140212721101336  1.0000
  N   N15       1.0  0.27392366736927454  0.8980221636547439  0.07422892858431847  1.0000
  N   N16       1.0  0.6148111150497899  0.8353217021420177  0.9141428468155012  1.0000
  O   O1        1.0  0.09552795443778463  0.5088513717392755  0.5053090133431937  1.0000
  O   O2        1.0  0.14109712281964468  0.6095204777437429  0.5297004411518671  1.0000
  O   O3        1.0  0.23600033802087944  0.35998171487472774  0.5319089051434389  1.0000
  O   O4        1.0  0.4162246354083052  0.22917534627779187  0.5587070904170375  1.0000
  O   O5        1.0  0.3790565072981097  0.0851793863661996  0.6353467363148866  1.0000
  O   O6        1.0  0.39916311806486976  0.9912577487148937  0.5052697442989709  1.0000
  O   O7        1.0  0.32943973458021214  0.8905233410128588  0.5296641933310297  1.0000
  O   O8        1.0  0.2321287923968925  0.14006850900543097  0.5319050789409161  1.0000
  O   O9        1.0  0.02528379638805214  0.2708998339755695  0.558640656283096  1.0000
  O   O10       1.0  0.9860952071223321  0.41483021010456156  0.6353913965680746  1.0000
  O   O11       1.0  0.3957314973460769  0.5090742114493378  0.9943585355445634  1.0000
  O   O12       1.0  0.24895320305093804  0.6095433848837855  0.9704018484936584  1.0000
  O   O13       1.0  0.4039170566805624  0.3600882518753892  0.968047997498502  1.0000
  O   O14       1.0  0.35489093480273276  0.22917140706979205  0.9412643410395916  1.0000
  O   O15       1.0  0.5356298276649625  0.08515045310524977  0.8645470537790771  1.0000
  O   O16       1.0  0.6096007405037229  0.9911945314960988  0.9945970894023545  1.0000
  O   O17       1.0  0.7801756167488206  0.8905820419834639  0.9704066543997526  1.0000
  O   O18       1.0  0.6277378155819946  0.14007058491989  0.9680412087059267  1.0000
  O   O19       1.0  0.703675277721537  0.2709170323195238  0.94139253951883  1.0000
  O   O20       1.0  0.5993532335648126  0.41498096045147986  0.8647159511395871  1.0000
  O   O21       1.0  0.9044785708673756  0.4911452109292967  0.49469102904790657  1.0000
  O   O22       1.0  0.858907505877845  0.3904767114308995  0.47030039041029437  1.0000
  O   O23       1.0  0.7640087699529873  0.640016687956809  0.4680908339617033  1.0000
  O   O24       1.0  0.5837803252429413  0.770823056432313  0.4412951779839247  1.0000
  O   O25       1.0  0.6209421549505335  0.9148214421891225  0.3646566247910528  1.0000
  O   O26       1.0  0.6008290731358911  0.008746112799570898  0.4947377347705242  1.0000
  O   O27       1.0  0.670560014347963  0.10948173338159957  0.4703352020122225  1.0000
  O   O28       1.0  0.767867975448255  0.8599335328963065  0.4681003462269544  1.0000
  O   O29       1.0  0.9747150407100594  0.7291009943061865  0.4413609544551277  1.0000
  O   O30       1.0  0.013907091237364054  0.5851681916295989  0.3646071989892192  1.0000
  O   O31       1.0  0.6042648080029026  0.4909266163867088  0.005642427567245472  1.0000
  O   O32       1.0  0.7510516780402342  0.39046229603675187  0.02959295361583256  1.0000
  O   O33       1.0  0.5960840267241424  0.6399119693531644  0.03194932333322947  1.0000
  O   O34       1.0  0.645104509698527  0.770832453394213  0.05873439639297115  1.0000
  O   O35       1.0  0.4643646010256931  0.9148503739946107  0.13545103582044496  1.0000
  O   O36       1.0  0.39039589018648263  0.008805689354360898  0.005401485875651686  1.0000
  O   O37       1.0  0.21982372935668343  0.10942060640054048  0.029595917700426393  1.0000
  O   O38       1.0  0.3722578546255238  0.8599296359643771  0.0319583176084208  1.0000
  O   O39       1.0  0.2963270516083869  0.7290837963741339  0.058608767809460005  1.0000
  O   O40       1.0  0.40064890989476276  0.5850168343139969  0.1352807321020677  1.0000
