data_image0
_chemical_formula_structural       Ho4H32C36O24
_chemical_formula_sum              "Ho4 H32 C36 O24"
_cell_length_a       6.0475164550208484
_cell_length_b       7.73044253588768
_cell_length_c       20.96416855003327
_cell_angle_alpha    93.30597553074901
_cell_angle_beta     89.9997904956421
_cell_angle_gamma    90.00023081065363

_space_group_name_H-M_alt    "P 1"
_space_group_IT_number       1

loop_
  _space_group_symop_operation_xyz
  'x, y, z'

loop_
  _atom_site_type_symbol
  _atom_site_label
  _atom_site_symmetry_multiplicity
  _atom_site_fract_x
  _atom_site_fract_y
  _atom_site_fract_z
  _atom_site_occupancy
  Ho  Ho1       1.0  0.7261993631092096  0.19168757717018545  0.8045242272282637  1.0000
  Ho  Ho2       1.0  0.22619988298508528  0.30830875830559284  0.19547463002574972  1.0000
  Ho  Ho3       1.0  0.27379925251452863  0.8083089281645284  0.1954753111101439  1.0000
  Ho  Ho4       1.0  0.773798732638653  0.691687747029114  0.804524908312665  1.0000
  H   H1        1.0  0.3599692155010601  0.203317366358462  0.6203984900007455  1.0000
  H   H2        1.0  0.8599712621494218  0.29669230433250254  0.3795999862785848  1.0000
  H   H3        1.0  0.6400294001681529  0.7966959707486438  0.37960087112958973  1.0000
  H   H4        1.0  0.14003231421424536  0.7033132586634564  0.6203992363721653  1.0000
  H   H5        1.0  0.6435408909758138  0.5193071099632504  0.6379268064608398  1.0000
  H   H6        1.0  0.14355346233995897  0.980685334393577  0.362074906438096  1.0000
  H   H7        1.0  0.3564511103670185  0.4806959223968761  0.36207475624559754  1.0000
  H   H8        1.0  0.8564550747004277  0.019312527395861402  0.6379270411837439  1.0000
  H   H9        1.0  0.28267145513923  0.1265360777901066  0.8384171989108751  1.0000
  H   H10       1.0  0.7826700218898351  0.37346170607127505  0.16158114739000246  1.0000
  H   H11       1.0  0.7173271604930562  0.8734590832551277  0.16158040738090312  1.0000
  H   H12       1.0  0.21733024731117467  0.6265347749643129  0.8384174364640131  1.0000
  H   H13       1.0  0.4005889510508211  0.16050853159182307  0.9056340925821474  1.0000
  H   H14       1.0  0.9005865266899562  0.3394870172697891  0.09436456621680381  1.0000
  H   H15       1.0  0.5994113181561005  0.8394879251422224  0.0943635367883147  1.0000
  H   H16       1.0  0.0994137425018735  0.660508192380938  0.9056349490412644  1.0000
  H   H17       1.0  0.16952825543015854  0.2920061172566549  0.5214371654156693  1.0000
  H   H18       1.0  0.6695368633504301  0.20800303396265457  0.47856293410499273  1.0000
  H   H19       1.0  0.8304720138140028  0.7080098233764288  0.4785627191146489  1.0000
  H   H20       1.0  0.3304749808546177  0.7919999741248913  0.5214376741079079  1.0000
  H   H21       1.0  0.8114714761905121  0.45287261608131507  0.5313069132651621  1.0000
  H   H22       1.0  0.3114853876717234  0.04712791615264679  0.4686943136746181  1.0000
  H   H23       1.0  0.18852548588602497  0.5471381904044393  0.46869478791587943  1.0000
  H   H24       1.0  0.6885281100951914  0.9528725127152881  0.5313067256201975  1.0000
  H   H25       1.0  0.5778237006277749  0.3216913220771858  0.9718010958594834  1.0000
  H   H26       1.0  0.0778272830161484  0.17830075396081924  0.028200227579148404  1.0000
  H   H27       1.0  0.4221683006856195  0.6783000491053598  0.028200259131310204  1.0000
  H   H28       1.0  0.922171332604634  0.821695763524666  0.971799788001043  1.0000
  H   H29       1.0  0.31686237073041207  0.41622157078182187  0.9571035340286614  1.0000
  H   H30       1.0  0.8168642033763546  0.0837724865887992  0.04289709485641421  1.0000
  H   H31       1.0  0.6831296305921698  0.5837710717855842  0.042896889558086605  1.0000
  H   H32       1.0  0.18313441223850896  0.9162240551982208  0.9571038752073379  1.0000
  C   C1        1.0  0.2203906091106731  0.2419418727796199  0.7401783281055287  1.0000
  C   C2        1.0  0.7203922982032154  0.258059628486592  0.25982062730760463  1.0000
  C   C3        1.0  0.7796080065350139  0.7580597788483702  0.25981987082560926  1.0000
  C   C4        1.0  0.2796096245730482  0.7419407639121401  0.740178980267686  1.0000
  C   C5        1.0  0.10579698023519771  0.30457917429698256  0.6835129947173968  1.0000
  C   C6        1.0  0.6058042439238774  0.1954220289089861  0.31648750766076017  1.0000
  C   C7        1.0  0.8941983282526779  0.6954212302428644  0.3164870901030028  1.0000
  C   C8        1.0  0.39419933241487826  0.804578399944468  0.6835135316390436  1.0000
  C   C9        1.0  0.20221040336509333  0.2715951398015477  0.6230592093861348  1.0000
  C   C10       1.0  0.7022121233600486  0.22841279897597389  0.3769403569494898  1.0000
  C   C11       1.0  0.7977898658722111  0.7284169016215786  0.37694012866386123  1.0000
  C   C12       1.0  0.29779145298820703  0.7715902090995002  0.6230602512675676  1.0000
  C   C13       1.0  0.902127385499803  0.39560384922744873  0.689365649609954  1.0000
  C   C14       1.0  0.40213365639719717  0.10439693548650551  0.3106350089226595  1.0000
  C   C15       1.0  0.0978646158515843  0.6043978388431982  0.3106339810498469  1.0000
  C   C16       1.0  0.5978715735066941  0.8956022098337328  0.6893664845385816  1.0000
  C   C17       1.0  0.7991699077845382  0.4485624140608522  0.633495314206293  1.0000
  C   C18       1.0  0.2991801606977019  0.0514380579555933  0.3665049706229909  1.0000
  C   C19       1.0  0.20082209357370573  0.5514431732197523  0.36650486293383727  1.0000
  C   C20       1.0  0.700828376358089  0.9485623587543301  0.633495591432535  1.0000
  C   C21       1.0  0.0962004184639582  0.3216335517165377  0.5682688412839525  1.0000
  C   C22       1.0  0.5962028422454678  0.17837538543578552  0.43173133198286  1.0000
  C   C23       1.0  0.9037981971931186  0.6783785261564859  0.43173192849221226  1.0000
  C   C24       1.0  0.40380404125826896  0.8216314975529426  0.5682688682293033  1.0000
  C   C25       1.0  0.8944522696385774  0.41068351713936124  0.5739303332043235  1.0000
  C   C26       1.0  0.3944636300459123  0.08931857731559488  0.4260717878491676  1.0000
  C   C27       1.0  0.1055380781518949  0.5893246736623964  0.4260703673374523  1.0000
  C   C28       1.0  0.6055465605759521  0.9106844793726127  0.5739307293316857  1.0000
  C   C29       1.0  0.4913869122108919  0.4458816870330439  0.9686310152707377  1.0000
  C   C30       1.0  0.9913887328197787  0.05411287980803791  0.0313694381015992  1.0000
  C   C31       1.0  0.5086083962606337  0.5541122390748185  0.03136895415208581  1.0000
  C   C32       1.0  0.0086098827983605  0.9458849576653777  0.968631555041668  1.0000
  C   C33       1.0  0.5858361852297662  0.5335878926755342  0.9122461083436663  1.0000
  C   C34       1.0  0.0858322729796299  0.9664030632182374  0.087754685031932  1.0000
  C   C35       1.0  0.4141607768137447  0.46640864910907703  0.0877548617209172  1.0000
  C   C36       1.0  0.9141663426378842  0.03359215858084501  0.9122453074687442  1.0000
  O   O1        1.0  0.8096511443880985  0.4328911982561365  0.7470606473440498  1.0000
  O   O2        1.0  0.30965298034319483  0.0671093286462963  0.25294058143244064  1.0000
  O   O3        1.0  0.19034581766163675  0.567106627064092  0.2529398685582649  1.0000
  O   O4        1.0  0.6903489424212451  0.9328911123555131  0.7470609351099783  1.0000
  O   O5        1.0  0.1044103408354857  0.19341237018146978  0.7879156810148871  1.0000
  O   O6        1.0  0.604407922733145  0.3065888046609544  0.21208386827906625  1.0000
  O   O7        1.0  0.8955882747944769  0.8065854186888686  0.2120834031612588  1.0000
  O   O8        1.0  0.39558903932218925  0.6934076885205727  0.787915192818396  1.0000
  O   O9        1.0  0.42911428565563614  0.23353795122439894  0.7401143867734987  1.0000
  O   O10       1.0  0.929116018264814  0.2664667385681838  0.25988392765133744  1.0000
  O   O11       1.0  0.570884329996275  0.7664649839392152  0.2598833579953705  1.0000
  O   O12       1.0  0.07088425093682099  0.7335323581417298  0.7401156568452691  1.0000
  O   O13       1.0  0.6346946557552043  0.6929218300290501  0.9158245741464768  1.0000
  O   O14       1.0  0.1346882947576802  0.8070718234088404  0.08417478452892622  1.0000
  O   O15       1.0  0.3653138812806418  0.30706950472531963  0.08417534911066582  1.0000
  O   O16       1.0  0.8653152815893179  0.19292595331796747  0.915823822402949  1.0000
  O   O17       1.0  0.41456997113048283  0.0928680365224892  0.8652926432545132  1.0000
  O   O18       1.0  0.9145707054249926  0.40712624531983016  0.1347055011613634  1.0000
  O   O19       1.0  0.5854269909176749  0.9071232496119065  0.1347053710413206  1.0000
  O   O20       1.0  0.0854295637760103  0.5928702357157575  0.8652930826926524  1.0000
  O   O21       1.0  0.6131003701930807  0.4451215168663082  0.8589564391337206  1.0000
  O   O22       1.0  0.11310023546437979  0.05487064999483951  0.1410443715885847  1.0000
  O   O23       1.0  0.38688832399923706  0.5548736927675222  0.14104307613015982  1.0000
  O   O24       1.0  0.8868983801534469  0.9451258796414096  0.8589561212333907  1.0000
