data_image0
_chemical_formula_structural       Cd3H40C22S6N4Cl6O8
_chemical_formula_sum              "Cd3 H40 C22 S6 N4 Cl6 O8"
_cell_length_a       10.099930010560517
_cell_length_b       10.081287493291786
_cell_length_c       11.594659383151319
_cell_angle_alpha    73.52925808544563
_cell_angle_beta     67.72938762337314
_cell_angle_gamma    63.38162492809622

_space_group_name_H-M_alt    "P 1"
_space_group_IT_number       1

loop_
  _space_group_symop_operation_xyz
  'x, y, z'

loop_
  _atom_site_type_symbol
  _atom_site_label
  _atom_site_symmetry_multiplicity
  _atom_site_fract_x
  _atom_site_fract_y
  _atom_site_fract_z
  _atom_site_occupancy
  Cd  Cd1       1.0  0.9999985958310872  1.2201197848006898e-06  0.9999996725309899  1.0000
  Cd  Cd2       1.0  0.6544469730984874  0.9420713941387003  0.06903928600679884  1.0000
  Cd  Cd3       1.0  0.34554869368254504  0.057928015414738396  0.9309649415015215  1.0000
  H   H1        1.0  0.261462954755494  0.6747425150851283  0.24106548536831704  1.0000
  H   H2        1.0  0.7385309908143755  0.3252613338156819  0.7589347347339482  1.0000
  H   H3        1.0  0.46035688715114986  0.6077430988583358  0.15438906775477074  1.0000
  H   H4        1.0  0.5396393874883499  0.39226298195341497  0.8456098358038417  1.0000
  H   H5        1.0  0.47069453605693923  0.3428258787930573  0.20676225040708815  1.0000
  H   H6        1.0  0.5293060574747983  0.6571801600705383  0.7932326749621694  1.0000
  H   H7        1.0  0.2712194527034483  0.40863993997663767  0.29518008918492455  1.0000
  H   H8        1.0  0.7287810331464684  0.5913582560999727  0.7048159796777256  1.0000
  H   H9        1.0  0.4817892186190916  0.30454184265060746  0.5224384107299898  1.0000
  H   H10       1.0  0.5182118168610829  0.6954630760941709  0.47755665277281173  1.0000
  H   H11       1.0  0.4852873907021474  0.2008757873698528  0.4184945061086934  1.0000
  H   H12       1.0  0.5147134460404175  0.7991269041948283  0.5815020441380129  1.0000
  H   H13       1.0  0.1909127137459521  0.42291160548507617  0.5760952495438544  1.0000
  H   H14       1.0  0.8090885416537642  0.5770899865247329  0.42390316627233926  1.0000
  H   H15       1.0  0.27621457727487814  0.2284623549154218  0.6340905185136592  1.0000
  H   H16       1.0  0.7237892736965748  0.7715381011424822  0.36590647820038674  1.0000
  H   H17       1.0  0.9578528744311542  0.40364109469260967  0.5805370024165626  1.0000
  H   H18       1.0  0.04214647055608364  0.5963571658513869  0.4194645955127713  1.0000
  H   H19       1.0  0.039699598983403916  0.22166610582988963  0.6634413207461876  1.0000
  H   H20       1.0  0.960305554542053  0.778331010435515  0.33655781780442606  1.0000
  H   H21       1.0  0.8512781209667537  0.21891688441794335  0.5908863541893509  1.0000
  H   H22       1.0  0.14872380794657403  0.7810802504561136  0.40911468835581394  1.0000
  H   H23       1.0  0.0377695815135155  0.10097087145385328  0.5060258801860655  1.0000
  H   H24       1.0  0.9622340474290426  0.8990273779878989  0.49397433070783586  1.0000
  H   H25       1.0  0.7147420448714924  0.298769902483066  0.4446681024920097  1.0000
  H   H26       1.0  0.2852596175397295  0.7012306002538508  0.5553330426116432  1.0000
  H   H27       1.0  0.8747368622193505  0.13751541654401217  0.38059205376185196  1.0000
  H   H28       1.0  0.12526310016264122  0.8624839716252095  0.6194099229930572  1.0000
  H   H29       1.0  0.7457951292481795  0.2881221718672434  0.22425045208535715  1.0000
  H   H30       1.0  0.25420572867631824  0.7118749657823782  0.7757509372186604  1.0000
  H   H31       1.0  0.9346476909394424  0.2865893352773696  0.17358450328631386  1.0000
  H   H32       1.0  0.0653516540477953  0.7134089252666268  0.826417094643027  1.0000
  H   H33       1.0  0.2813513313484179  0.09622310392045105  0.3003645417990554  1.0000
  H   H34       1.0  0.7186478149012175  0.9037729294434481  0.6996385428741974  1.0000
  H   H35       1.0  0.44907815799232503  0.0321108778235129  0.3505471917594676  1.0000
  H   H36       1.0  0.5509203359256245  0.9678840587610793  0.6494581052421251  1.0000
  H   H37       1.0  0.30918116398901685  0.9486511695034916  0.4302483314213249  1.0000
  H   H38       1.0  0.6908164343864273  0.05134601760070008  0.5697575530311594  1.0000
  H   H39       1.0  0.3835582568904243  0.8854700574806667  0.21523922811049093  1.0000
  H   H40       1.0  0.6164409105411365  0.11452042196817294  0.7847686956200591  1.0000
  C   C1        1.0  0.12827397514787012  0.6179872207453839  0.08941530743661731  1.0000
  C   C2        1.0  0.8717242893142512  0.38201658620726414  0.9105809344763003  1.0000
  C   C3        1.0  0.8898399599815077  0.5793148589871888  0.15654683071782238  1.0000
  C   C4        1.0  0.11016108503495306  0.4206845161245025  0.8434539355602624  1.0000
  C   C5        1.0  0.3539402834467893  0.5855549944111473  0.1867279170028127  1.0000
  C   C6        1.0  0.6460549434951659  0.4144510686122229  0.813269605878716  1.0000
  C   C7        1.0  0.37745298284890794  0.4315666517947108  0.2626822278729009  1.0000
  C   C8        1.0  0.6225458990079601  0.5684382827831626  0.7373143928655922  1.0000
  C   C9        1.0  0.41936853071845803  0.3047014934135176  0.4626371364350845  1.0000
  C   C10       1.0  0.5806323060241071  0.6953011981511634  0.537359413811629  1.0000
  C   C11       1.0  0.261259380729804  0.3096534351596674  0.5482025688270867  1.0000
  C   C12       1.0  0.7387414210758364  0.6903492872509318  0.4517965725735423  1.0000
  C   C13       1.0  0.03262610847711045  0.2848632350462167  0.5693029249097563  1.0000
  C   C14       1.0  0.9673738771961665  0.7151361325590666  0.4306973244092092  1.0000
  C   C15       1.0  0.961235310035221  0.21867464620494553  0.5193285988365018  1.0000
  C   C16       1.0  0.03876724791850703  0.7813236060123642  0.48067195881625924  1.0000
  C   C17       1.0  0.8305456676740447  0.260687292359357  0.375404631073387  1.0000
  C   C18       1.0  0.16945430635359318  0.7393120855278921  0.6245964819635503  1.0000
  C   C19       1.0  0.8206026010879482  0.3265317476329414  0.24332895246647013  1.0000
  C   C20       1.0  0.17939845557415882  0.6734676171967776  0.7566709500936427  1.0000
  C   C21       1.0  0.3670203213622256  0.9977855774208564  0.33852645309777046  1.0000
  C   C22       1.0  0.6329783829389727  0.002211576061860401  0.6614764934419384  1.0000
  S   S1        1.0  0.07664298452045416  0.46477260324284925  0.1616329530625151  1.0000
  S   S2        1.0  0.9233593535137388  0.5352289757094295  0.8383642522768469  1.0000
  S   S3        1.0  0.31540189433235344  0.612715016515878  0.039516388134401836  1.0000
  S   S4        1.0  0.6845976049192756  0.3872910456872204  0.9604806114296665  1.0000
  S   S5        1.0  0.7315894210822477  0.5293861888019576  0.21557966665761094  1.0000
  S   S6        1.0  0.2684120891739352  0.4706120456269716  0.7844195103180667  1.0000
  N   N1        1.0  0.8760090576292752  0.7185064290051668  0.10262556557641031  1.0000
  N   N2        1.0  0.12399049774121097  0.2814940484369473  0.8973736818910395  1.0000
  N   N3        1.0  0.010130015017153913  0.7400660254144922  0.06687110629546571  1.0000
  N   N4        1.0  0.989869121696188  0.2599355515825009  0.9331262756025039  1.0000
  Cl  Cl1       1.0  0.847504745867674  0.013522801468752699  0.8515484274595907  1.0000
  Cl  Cl2       1.0  0.15249007195342296  0.986478817476403  0.14845293262772696  1.0000
  Cl  Cl3       1.0  0.7465283977730052  0.043249007185913485  0.19445879732469257  1.0000
  Cl  Cl4       1.0  0.25347006331736566  0.9567514935957174  0.8055425243375611  1.0000
  Cl  Cl5       1.0  0.4259326754352628  0.19603706479486493  0.033139797501391385  1.0000
  Cl  Cl6       1.0  0.57406600557465  0.8039601092517968  0.9668648764742616  1.0000
  O   O1        1.0  0.41741808073268766  0.43287137557972943  0.36862736844252453  1.0000
  O   O2        1.0  0.5825791010949573  0.5671324444304487  0.6313700839472248  1.0000
  O   O3        1.0  0.18380984205943923  0.27226299095786993  0.4884576330223567  1.0000
  O   O4        1.0  0.816191401694631  0.7277386113339187  0.5115416465118159  1.0000
  O   O5        1.0  0.9321986864619232  0.30149377629562213  0.40308078881810877  1.0000
  O   O6        1.0  0.06780280050297453  0.6985044786972521  0.5969201155935124  1.0000
  O   O7        1.0  0.4552634821151712  0.8870097775451098  0.2527904812330065  1.0000
  O   O8        1.0  0.5447354304599229  0.11298405948461006  0.7472166813380666  1.0000
