data_image0
_chemical_formula_structural       Zn2H12C26N2O12
_chemical_formula_sum              "Zn2 H12 C26 N2 O12"
_cell_length_a       10.85689365471852
_cell_length_b       13.188484696379675
_cell_length_c       14.440987461507566
_cell_angle_alpha    90.3523701183597
_cell_angle_beta     89.97214935801203
_cell_angle_gamma    89.94911882919602

_space_group_name_H-M_alt    "P 1"
_space_group_IT_number       1

loop_
  _space_group_symop_operation_xyz
  'x, y, z'

loop_
  _atom_site_type_symbol
  _atom_site_label
  _atom_site_symmetry_multiplicity
  _atom_site_fract_x
  _atom_site_fract_y
  _atom_site_fract_z
  _atom_site_occupancy
  Zn  Zn1       1.0  0.502996099299139  0.3942203774485621  0.4910018037851101  1.0000
  Zn  Zn2       1.0  0.49786884237727935  0.6068938810653748  0.49718244054631794  1.0000
  H   H1        1.0  0.11253832615287962  0.3374755782420776  0.4670255721473778  1.0000
  H   H2        1.0  0.23718995330510495  0.6140430156289868  0.3419612261184283  1.0000
  H   H3        1.0  0.7943922405494774  0.4105086904929535  0.3238788172395387  1.0000
  H   H4        1.0  0.9225739341336092  0.5414272354271574  0.2766562409777079  1.0000
  H   H5        1.0  0.0975248458251983  0.6600476752189051  0.4821280052142497  1.0000
  H   H6        1.0  0.9094441790570824  0.34565476908500875  0.49860429425220315  1.0000
  H   H7        1.0  0.888509783447482  0.6651696811318288  0.45736702036619886  1.0000
  H   H8        1.0  0.09436894718999869  0.42694073951679473  0.6129194350301572  1.0000
  H   H9        1.0  0.1166481644999635  0.5595060387833543  0.6213584176350576  1.0000
  H   H10       1.0  0.8833930525342524  0.4609831652661073  0.6255492613926632  1.0000
  H   H11       1.0  0.9047459834635205  0.5922340714725464  0.6068224882608103  1.0000
  H   H12       1.0  0.0796207169719736  0.4551856517075876  0.2840513623661423  1.0000
  C   C1        1.0  0.4978031586645101  0.5031244289614705  0.3142858680569987  1.0000
  C   C2        1.0  0.738941614531505  0.5035048455762592  0.487915898271737  1.0000
  C   C3        1.0  0.5012590729038067  0.4957911609767577  0.6739302354962218  1.0000
  C   C4        1.0  0.07221293141630267  0.403097394986034  0.4320406132211757  1.0000
  C   C5        1.0  0.07129701913731878  0.5981824391876955  0.4339496028111751  1.0000
  C   C6        1.0  0.9281364354314473  0.40154400417398517  0.44414472797048876  1.0000
  C   C7        1.0  0.9284991854453251  0.5971517711417178  0.4250339629488521  1.0000
  C   C8        1.0  0.07012262559037198  0.4998291153562491  0.5812356684073519  1.0000
  C   C9        1.0  0.9293788526899219  0.516436973148231  0.5808113559628507  1.0000
  C   C10       1.0  0.12071524803138799  0.5004925942459976  0.48066358134829545  1.0000
  C   C11       1.0  0.8797142138452329  0.5045402361552007  0.48062469311214767  1.0000
  C   C12       1.0  0.5006324961172481  0.4985662692664476  0.9514986940870497  1.0000
  C   C13       1.0  0.49764462372438345  0.5054238805594196  0.21464482620562814  1.0000
  C   C14       1.0  0.4985152696202064  0.5039451130989434  0.12971861035673973  1.0000
  C   C15       1.0  0.4996389450177502  0.501581132811701  0.036938583285916586  1.0000
  C   C16       1.0  0.11405305664917617  0.39478976305207425  0.3320432594771106  1.0000
  C   C17       1.0  0.13668270946882896  0.6301658540638684  0.3459926142074749  1.0000
  C   C18       1.0  0.8583405457863191  0.35842159129666845  0.3611039484084627  1.0000
  C   C19       1.0  0.8800301401592208  0.5972407624013698  0.3256679841373752  1.0000
  C   C20       1.0  0.5012656055167852  0.4959753262559161  0.8586967162146234  1.0000
  C   C21       1.0  0.5015390684865579  0.4941299409298523  0.773719111733399  1.0000
  C   C22       1.0  0.5040342924661587  0.8517663001244742  0.4876883801519439  1.0000
  C   C23       1.0  0.5064520541776432  0.14928223921427272  0.4821374414340055  1.0000
  C   C24       1.0  0.5067411512567546  0.9541046506960883  0.4830049023806281  1.0000
  C   C25       1.0  0.5073550706574821  0.046737702550082416  0.4811673208575299  1.0000
  C   C26       1.0  0.2615874099213258  0.5018489310482932  0.4890986873479404  1.0000
  N   N1        1.0  0.5003346163617266  0.7636449277978911  0.4935642457229504  1.0000
  N   N2        1.0  0.5047599552001998  0.2376820131667543  0.48502164243576107  1.0000
  O   O1        1.0  0.5181912218265553  0.4170882724817987  0.3508179009833085  1.0000
  O   O2        1.0  0.08487349352416369  0.6767227012685382  0.2842219449679178  1.0000
  O   O3        1.0  0.8696335188527583  0.2704480825376407  0.33607691379256  1.0000
  O   O4        1.0  0.7926483174617617  0.6485351647679848  0.3011307953635054  1.0000
  O   O5        1.0  0.47710416743009887  0.5867557063524416  0.35645976184081707  1.0000
  O   O6        1.0  0.31730641396313075  0.4176192316948857  0.4816913700728448  1.0000
  O   O7        1.0  0.31035935400433345  0.5877207740270408  0.5062375648782191  1.0000
  O   O8        1.0  0.6893280717909177  0.4164435800494387  0.49610756080174656  1.0000
  O   O9        1.0  0.6838489758243824  0.5882646930315687  0.4888962326589945  1.0000
  O   O10       1.0  0.4933965168911882  0.41035215842041584  0.632461726542715  1.0000
  O   O11       1.0  0.5088326554851291  0.583198088263778  0.6371356647580837  1.0000
  O   O12       1.0  0.18134292351351178  0.328373075259897  0.3023700478320848  1.0000
