data_image0
_chemical_formula_structural       Cd4H36C16N4Cl8O8
_chemical_formula_sum              "Cd4 H36 C16 N4 Cl8 O8"
_cell_length_a       8.151125210518204
_cell_length_b       8.151129679812549
_cell_length_c       14.000547488359311
_cell_angle_alpha    76.62855239311115
_cell_angle_beta     76.62855443815629
_cell_angle_gamma    64.43728199127528

_space_group_name_H-M_alt    "P 1"
_space_group_IT_number       1

loop_
  _space_group_symop_operation_xyz
  'x, y, z'

loop_
  _atom_site_type_symbol
  _atom_site_label
  _atom_site_symmetry_multiplicity
  _atom_site_fract_x
  _atom_site_fract_y
  _atom_site_fract_z
  _atom_site_occupancy
  Cd  Cd1       1.0  1.0551723477402312e-06  0.9999987733188149  0.49999831306259784  1.0000
  Cd  Cd2       1.0  1.2668876579988065e-06  0.999999997860371  1.2568011343133965e-06  1.0000
  Cd  Cd3       1.0  0.9747137303924377  0.025286031419000196  0.2500002893059161  1.0000
  Cd  Cd4       1.0  0.025286770424827448  0.9747129675535786  0.749999977030491  1.0000
  H   H1        1.0  0.34848152719830244  0.3810836592409074  0.5760917529961703  1.0000
  H   H2        1.0  0.6189171408751336  0.6515191138737393  0.9239079778526789  1.0000
  H   H3        1.0  0.6515169893076449  0.6189139739594011  0.42390825393104586  1.0000
  H   H4        1.0  0.38108732496466763  0.34848261304361455  0.07609137976002246  1.0000
  H   H5        1.0  0.4903433715743122  0.19098911904086438  0.5161350089646322  1.0000
  H   H6        1.0  0.8090111068929814  0.5096568353400883  0.9838655888403453  1.0000
  H   H7        1.0  0.5096520742926958  0.8090099010893822  0.4838652265645678  1.0000
  H   H8        1.0  0.19099101113170758  0.49034765181873746  0.01613514129554259  1.0000
  H   H9        1.0  0.19243202790354275  0.5444980355937474  0.4261293380084582  1.0000
  H   H10       1.0  0.4555021523005037  0.8075687628645768  0.07387026687690214  1.0000
  H   H11       1.0  0.8075672096261713  0.45550096911821214  0.57387109906891  1.0000
  H   H12       1.0  0.5444967145252094  0.19243436066161476  0.9261289470486604  1.0000
  H   H13       1.0  0.42770845144721653  0.4905499828840547  0.4063068310326089  1.0000
  H   H14       1.0  0.5094483446399068  0.5722945338138672  0.0936927422461622  1.0000
  H   H15       1.0  0.5722913301463279  0.509447646376742  0.5936937189246907  1.0000
  H   H16       1.0  0.49055178367330393  0.4277085821730537  0.9063055871673955  1.0000
  H   H17       1.0  0.4367057715919245  0.18700015790579974  0.34452706826784424  1.0000
  H   H18       1.0  0.8129958779681563  0.5632962938542078  0.15547367016847594  1.0000
  H   H19       1.0  0.5632959907128311  0.8129988335275158  0.6554723135565583  1.0000
  H   H20       1.0  0.18700155221017667  0.43670409204830923  0.8445268247699219  1.0000
  H   H21       1.0  0.4261915642429699  0.3930369504859571  0.26465160950041167  1.0000
  H   H22       1.0  0.6069615320608078  0.5738106974944372  0.23534804553191443  1.0000
  H   H23       1.0  0.5738083907104113  0.6069634221379019  0.7353478301850205  1.0000
  H   H24       1.0  0.39303480818979614  0.4261924375105296  0.764651509875563  1.0000
  H   H25       1.0  0.1847984825170031  0.29439797741219564  0.25018737861149987  1.0000
  H   H26       1.0  0.7056004857487608  0.8152029706741644  0.2498123820408297  1.0000
  H   H27       1.0  0.8152045430753108  0.705601008281725  0.7498118324719484  1.0000
  H   H28       1.0  0.29439929584478364  0.18479465858663252  0.7501881679164697  1.0000
  H   H29       1.0  0.10295321854027861  0.31936331550664926  0.3715417243986395  1.0000
  H   H30       1.0  0.680635108193293  0.8970477932161813  0.12845881072518492  1.0000
  H   H31       1.0  0.8970465612532124  0.6806343119542716  0.6284581117876158  1.0000
  H   H32       1.0  0.3193661136477459  0.1029525772680486  0.8715418857613741  1.0000
  H   H33       1.0  0.10327652924088689  0.5019962568174278  0.2829742397870376  1.0000
  H   H34       1.0  0.49800198495543674  0.8967249084131268  0.21702553927995893  1.0000
  H   H35       1.0  0.896723969776325  0.49800274035526826  0.7170253127783256  1.0000
  H   H36       1.0  0.5019974277341603  0.10327684146177771  0.7829745012965859  1.0000
  C   C1        1.0  0.21616221030539862  0.21332250802699804  0.5628572271430201  1.0000
  C   C2        1.0  0.7866790705299068  0.7838350322821199  0.9371378613041372  1.0000
  C   C3        1.0  0.7838352180728737  0.7866778760756361  0.4371425540243265  1.0000
  C   C4        1.0  0.21332088622352793  0.21616534214162186  0.06286229215233871  1.0000
  C   C5        1.0  0.3518176077296431  0.3031398968070818  0.5207231182814525  1.0000
  C   C6        1.0  0.6968597057893717  0.6481825629003097  0.9792768428978676  1.0000
  C   C7        1.0  0.6481816316001243  0.6968591097047607  0.4792780325669597  1.0000
  C   C8        1.0  0.303139705100172  0.3518191851747118  0.02072248390762609  1.0000
  C   C9        1.0  0.3274620656389189  0.42821898186885216  0.4207492851303415  1.0000
  C   C10       1.0  0.5717799699892437  0.6725396177346569  0.07924966407843935  1.0000
  C   C11       1.0  0.6725377177546861  0.5717786491918277  0.5792519785980093  1.0000
  C   C12       1.0  0.4282201565239134  0.3274634964523955  0.9207479515640744  1.0000
  C   C13       1.0  0.35555242653589414  0.3358309929855564  0.331199156555563  1.0000
  C   C14       1.0  0.6641689886444125  0.6444491258682135  0.16880110487097266  1.0000
  C   C15       1.0  0.6444493393689757  0.6641680020475107  0.6688016528109273  1.0000
  C   C16       1.0  0.33582861669380293  0.3555540051972485  0.8311989935666021  1.0000
  N   N1        1.0  0.1750134600973753  0.36400423336937127  0.3070729161800757  1.0000
  N   N2        1.0  0.6359962264315232  0.8249888373940379  0.19292716923272482  1.0000
  N   N3        1.0  0.8249877563434967  0.6359961317152238  0.6929256389933515  1.0000
  N   N4        1.0  0.364003732121958  0.17501153882957957  0.8070736979947953  1.0000
  Cl  Cl1       1.0  0.25803497068802284  0.8954852325533623  0.344711428865864  1.0000
  Cl  Cl2       1.0  0.10451391088668777  0.7419654141392086  0.1552890736280332  1.0000
  Cl  Cl3       1.0  0.7419653567694128  0.10451102305615477  0.6552899477424106  1.0000
  Cl  Cl4       1.0  0.8954885706417886  0.2580349470058819  0.8447100245754768  1.0000
  Cl  Cl5       1.0  0.1946563921401463  0.7371071655489915  0.6263308603971608  1.0000
  Cl  Cl6       1.0  0.26289240771745176  0.8053447699812254  0.8736682277670412  1.0000
  Cl  Cl7       1.0  0.8053439353172892  0.26288909006051847  0.37367051621112074  1.0000
  Cl  Cl8       1.0  0.7371107894346309  0.19465695727588178  0.1263291592734888  1.0000
  O   O1        1.0  0.11871208690767794  0.20937355202499217  0.5046720828783435  1.0000
  O   O2        1.0  0.790628006096249  0.8812858105359564  0.9953264862829486  1.0000
  O   O3        1.0  0.8812949330916809  0.7906185614729891  0.49533180449008535  1.0000
  O   O4        1.0  0.20938025739005892  0.11870627742397488  0.0046693788630136875  1.0000
  O   O5        1.0  0.7913359383252256  0.8558667177784044  0.3453902784585736  1.0000
  O   O6        1.0  0.14413275244169915  0.2086632527468879  0.15461108326052656  1.0000
  O   O7        1.0  0.2086533734641307  0.1441350834112356  0.6546132693587766  1.0000
  O   O8        1.0  0.8558677279913315  0.7913453553657989  0.8453871669224283  1.0000
