data_image0
_chemical_formula_structural       Cu2Mo4H20C32N4O17
_chemical_formula_sum              "Cu2 Mo4 H20 C32 N4 O17"
_cell_length_a       7.541391085951403
_cell_length_b       10.238376392264021
_cell_length_c       11.36777475902725
_cell_angle_alpha    78.13326836349965
_cell_angle_beta     87.14589134293155
_cell_angle_gamma    83.60195550864094

_space_group_name_H-M_alt    "P 1"
_space_group_IT_number       1

loop_
  _space_group_symop_operation_xyz
  'x, y, z'

loop_
  _atom_site_type_symbol
  _atom_site_label
  _atom_site_symmetry_multiplicity
  _atom_site_fract_x
  _atom_site_fract_y
  _atom_site_fract_z
  _atom_site_occupancy
  Cu  Cu1       1.0  0.5576083675517084  0.2952843926906325  0.7303088593682928  1.0000
  Cu  Cu2       1.0  0.4423945375259493  0.7047113292556159  0.2696936602569551  1.0000
  Mo  Mo1       1.0  0.36612405990641145  0.005789230933729099  0.8619972784232104  1.0000
  Mo  Mo2       1.0  0.6338773704088467  0.9942065509996066  0.13799825367776464  1.0000
  Mo  Mo3       1.0  0.9387247546164943  0.050886108321520886  0.8574165950193374  1.0000
  Mo  Mo4       1.0  0.06127890692341249  0.9491126883939387  0.14257830258327428  1.0000
  H   H1        1.0  0.6419254410544326  0.0641546502638306  0.5889642929248707  1.0000
  H   H2        1.0  0.3580750201469201  0.935848147734191  0.41103089929345765  1.0000
  H   H3        1.0  0.8115254556683809  0.04701571519198209  0.3916536385359989  1.0000
  H   H4        1.0  0.18846730805555728  0.9529941263844174  0.6083370905375675  1.0000
  H   H5        1.0  0.9304809693330114  0.24931265854672793  0.26972250558685573  1.0000
  H   H6        1.0  0.06951696868863175  0.7506991366985714  0.7302746950823502  1.0000
  H   H7        1.0  0.9718485332657849  0.5006722046741102  0.2499964930714284  1.0000
  H   H8        1.0  0.0281519430323129  0.4993415318951192  0.7500081711193616  1.0000
  H   H9        1.0  0.9147557120374188  0.7073699507036365  0.3310708582849457  1.0000
  H   H10       1.0  0.0852321484717535  0.29263971051327786  0.6689394628457918  1.0000
  H   H11       1.0  0.7951582748974032  0.8197688379190069  0.5038808729589661  1.0000
  H   H12       1.0  0.2048459214427041  0.18022973307557777  0.49613955654132263  1.0000
  H   H13       1.0  0.6539066051231189  0.7921253986683324  0.7130326554115669  1.0000
  H   H14       1.0  0.3461029837042062  0.20786314509966525  0.28698935009078497  1.0000
  H   H15       1.0  0.5440259684616892  0.5723707973966439  0.8080870482293463  1.0000
  H   H16       1.0  0.4559646029856951  0.4276188423835235  0.191921476990963  1.0000
  H   H17       1.0  0.2969054132007614  0.5773803121059373  0.9330291826418172  1.0000
  H   H18       1.0  0.7030927614517851  0.42261949446039887  0.06696400284407389  1.0000
  H   H19       1.0  0.9404752782485701  0.2668824772001698  0.9997779185140344  1.0000
  H   H20       1.0  0.059527375101445984  0.733114294853827  0.00021914432207383117  1.0000
  C   C1        1.0  0.6960047737991247  0.15004128105186249  0.5309767396879437  1.0000
  C   C2        1.0  0.3039974563129136  0.8499585012227796  0.46901980016548345  1.0000
  C   C3        1.0  0.7911728828417779  0.14158110411889877  0.422814703077627  1.0000
  C   C4        1.0  0.20882160092044447  0.8584266862236087  0.5771816013548018  1.0000
  C   C5        1.0  0.8565113769885642  0.2549595600729403  0.35381766844595564  1.0000
  C   C6        1.0  0.14348569392251423  0.745049207104017  0.6461818717842929  1.0000
  C   C7        1.0  0.8281800171232803  0.3776302325130842  0.3939628605176893  1.0000
  C   C8        1.0  0.17181885958125057  0.62237550337354  0.6060397881681823  1.0000
  C   C9        1.0  0.8943128085601302  0.5002715424315483  0.33345873119063896  1.0000
  C   C10       1.0  0.10568280049206893  0.49973916701060245  0.6665475594244512  1.0000
  C   C11       1.0  0.8638201982472324  0.6147729616559373  0.3789856510471949  1.0000
  C   C12       1.0  0.13617176659383293  0.38523571077979557  0.6210237967273216  1.0000
  C   C13       1.0  0.7700603116519673  0.6146008418684018  0.49183907857294434  1.0000
  C   C14       1.0  0.22993644447623043  0.38540183253522287  0.5081694870728697  1.0000
  C   C15       1.0  0.7470124254306755  0.7252703708427714  0.5494606707250327  1.0000
  C   C16       1.0  0.2529866334945012  0.2747262309159593  0.45055504800014023  1.0000
  C   C17       1.0  0.6692125239471594  0.7108181829018249  0.6635885755545416  1.0000
  C   C18       1.0  0.3307910625478883  0.2891744198550866  0.33642679279708426  1.0000
  C   C19       1.0  0.6080305717107279  0.5871905527607311  0.7190028843842667  1.0000
  C   C20       1.0  0.3919636319581699  0.41280207294839477  0.28100847222091113  1.0000
  C   C21       1.0  0.7058701568334484  0.49417170039478003  0.554599253446014  1.0000
  C   C22       1.0  0.2941265624119822  0.5058309895757985  0.4454075513792687  1.0000
  C   C23       1.0  0.73195670883279  0.37647423510965433  0.5042804206182439  1.0000
  C   C24       1.0  0.26804115968185027  0.6235294761155072  0.49572439330111706  1.0000
  C   C25       1.0  0.2708779325194755  0.3158832717641359  0.9112166207949952  1.0000
  C   C26       1.0  0.7291236268854817  0.6841124556848469  0.08878507417782086  1.0000
  C   C27       1.0  0.13564760861844866  0.41062746490455715  0.9618417521728656  1.0000
  C   C28       1.0  0.8643587995910238  0.5893712974549884  0.03815743596539531  1.0000
  C   C29       1.0  0.16736644895487274  0.5428021564905235  0.9624517146452545  1.0000
  C   C30       1.0  0.8326372863505824  0.4571966090910208  0.03754670459841952  1.0000
  C   C31       1.0  0.9671695776030305  0.36879273858051675  0.0003345187403169854  1.0000
  C   C32       1.0  0.03283681216505839  0.631206031562506  0.9996637889876822  1.0000
  N   N1        1.0  0.6669113150462423  0.2650621997411591  0.5695486609441929  1.0000
  N   N2        1.0  0.33309217498332794  0.7349385570871901  0.4304511704648917  1.0000
  N   N3        1.0  0.6248675926227492  0.4821334992989106  0.665411275547207  1.0000
  N   N4        1.0  0.3751285721017794  0.5178631990835642  0.33459310936020603  1.0000
  O   O1        1.0  0.14660476880011697  0.9520839480336176  0.9757726084239381  1.0000
  O   O2        1.0  0.8533942523283855  0.047909838091435085  0.024221623027294498  1.0000
  O   O3        1.0  0.1501312687884067  0.05251196036116569  0.7613046705831154  1.0000
  O   O4        1.0  0.8498709059994738  0.9474878452639144  0.23868922803951875  1.0000
  O   O5        1.0  0.4999992942498467  0.9999962169796955  0.9999983708387034  1.0000
  O   O6        1.0  0.22780388317795539  0.19925152337033575  0.915873292185843  1.0000
  O   O7        1.0  0.7721972834200344  0.800746257593289  0.08412277167028037  1.0000
  O   O8        1.0  0.48836601846095823  0.11671052199970687  0.7560048711386571  1.0000
  O   O9        1.0  0.5116382258376433  0.883284253304751  0.24399160418445115  1.0000
  O   O10       1.0  0.42788910802168095  0.8500983299410119  0.8314571315856936  1.0000
  O   O11       1.0  0.5721085674341211  0.14989546168678194  0.1685362752131141  1.0000
  O   O12       1.0  0.8326784930193938  0.21019993905425577  0.8002204575844515  1.0000
  O   O13       1.0  0.16732246518548513  0.7897998175892126  0.19977877925761325  1.0000
  O   O14       1.0  0.8286729627372083  0.9358524208916276  0.8080336505025298  1.0000
  O   O15       1.0  0.1713304470750572  0.06414742593157999  0.19195579031094204  1.0000
  O   O16       1.0  0.4151098964471275  0.36155793120050816  0.8623538232066678  1.0000
  O   O17       1.0  0.5848971498451974  0.6384367863975978  0.1376495838828831  1.0000
