data_image0
_chemical_formula_structural       Cu6H12C4O16
_chemical_formula_sum              "Cu6 H12 C4 O16"
_cell_length_a       5.836829032226639
_cell_length_b       6.950282097811472
_cell_length_c       9.196859830019946
_cell_angle_alpha    90.00253409685983
_cell_angle_beta     89.99970854350626
_cell_angle_gamma    105.9878699401887

_space_group_name_H-M_alt    "P 1"
_space_group_IT_number       1

loop_
  _space_group_symop_operation_xyz
  'x, y, z'

loop_
  _atom_site_type_symbol
  _atom_site_label
  _atom_site_symmetry_multiplicity
  _atom_site_fract_x
  _atom_site_fract_y
  _atom_site_fract_z
  _atom_site_occupancy
  Cu  Cu1       1.0  0.9689620768051197  0.021214878975342803  0.6617255566749877  1.0000
  Cu  Cu2       1.0  0.5310491909821025  0.9787475508178148  0.16172317990066185  1.0000
  Cu  Cu3       1.0  0.03086407253834982  0.9794310282830452  0.3372019160454656  1.0000
  Cu  Cu4       1.0  0.4691651212819322  0.020594706607390403  0.8371923089382777  1.0000
  Cu  Cu5       1.0  0.9999967291305508  0.9999683606070209  0.0019498272477350002  1.0000
  Cu  Cu6       1.0  0.5000221095353866  3.390599621159989e-05  0.5019481502050809  1.0000
  H   H1        1.0  0.6829081716714427  0.5065511547284558  0.8717625311421883  1.0000
  H   H2        1.0  0.8169926510465187  0.4934428535422201  0.3718067768130879  1.0000
  H   H3        1.0  0.3175534055069065  0.49319204561180646  0.12887420427117044  1.0000
  H   H4        1.0  0.1824819494986869  0.5068443351621923  0.6287603799227099  1.0000
  H   H5        1.0  0.1687212404444978  0.2888797012215818  0.8371374510663545  1.0000
  H   H6        1.0  0.33124817957288133  0.7111206839829692  0.3371600013509948  1.0000
  H   H7        1.0  0.8311005405817936  0.70863175979661  0.1632208895346139  1.0000
  H   H8        1.0  0.668941439872853  0.2913666394681869  0.6632147367134992  1.0000
  H   H9        1.0  0.7366238412279813  0.7375527719199938  0.5243371145877731  1.0000
  H   H10       1.0  0.7634050875348848  0.26244227709816675  0.024381981428632602  1.0000
  H   H11       1.0  0.2639672150034755  0.2620792986853431  0.47406842243233177  1.0000
  H   H12       1.0  0.23602281671119837  0.7379213158845063  0.9740116087124165  1.0000
  C   C1        1.0  0.7240491338682915  0.6087637722117591  0.7770972113032572  1.0000
  C   C2        1.0  0.7759235620806353  0.3912367174437819  0.2771183354790949  1.0000
  C   C3        1.0  0.27543237668280085  0.39106214307096104  0.2235775827253192  1.0000
  C   C4        1.0  0.2245567508003389  0.6089572272029782  0.7234944866668656  1.0000
  O   O1        1.0  0.1536245754538612  0.1418920864259974  0.8282644488511153  1.0000
  O   O2        1.0  0.34638759590657037  0.8581077147154231  0.32825410909261177  1.0000
  O   O3        1.0  0.8442009747248632  0.8556081736304932  0.17284414903276263  1.0000
  O   O4        1.0  0.6558254255366051  0.1443952935064843  0.6728556613212789  1.0000
  O   O5        1.0  0.700510219642581  0.5338656087245467  0.6504939983258708  1.0000
  O   O6        1.0  0.7995125463971959  0.4661156331577773  0.1505329550675043  1.0000
  O   O7        1.0  0.299028959180923  0.4654659850895798  0.3501046740035392  1.0000
  O   O8        1.0  0.20087962262070388  0.5345322506115194  0.8500070241981135  1.0000
  O   O9        1.0  0.7810516523759573  0.8805423764986526  0.49270380865878133  1.0000
  O   O10       1.0  0.7189768311820899  0.11945375050247967  0.9927187014892811  1.0000
  O   O11       1.0  0.2172821445421746  0.11845442388429461  0.5044295453825285  1.0000
  O   O12       1.0  0.28272346846420493  0.8815390218782467  0.0044081614456886  1.0000
  O   O13       1.0  0.7912087377878692  0.7948150406263113  0.8066985933469013  1.0000
  O   O14       1.0  0.7087765416191729  0.20516763334119054  0.3067088958167048  1.0000
  O   O15       1.0  0.20691637228768658  0.20491906607301763  0.19362608050958843  1.0000
  O   O16       1.0  0.2931048778877853  0.7951030408504354  0.6935875143533752  1.0000
