data_image0
_chemical_formula_structural       Zn2P2H34C32N2O16
_chemical_formula_sum              "Zn2 P2 H34 C32 N2 O16"
_cell_length_a       7.747530716827014
_cell_length_b       11.27021654353896
_cell_length_c       11.535766468156652
_cell_angle_alpha    115.41438078663762
_cell_angle_beta     93.0580556562469
_cell_angle_gamma    100.80190357210228

_space_group_name_H-M_alt    "P 1"
_space_group_IT_number       1

loop_
  _space_group_symop_operation_xyz
  'x, y, z'

loop_
  _atom_site_type_symbol
  _atom_site_label
  _atom_site_symmetry_multiplicity
  _atom_site_fract_x
  _atom_site_fract_y
  _atom_site_fract_z
  _atom_site_occupancy
  Zn  Zn1       1.0  0.634342900624638  0.9872868663068674  0.2942255494034571  1.0000
  Zn  Zn2       1.0  0.36566182490208377  0.012704691514727513  0.7057653313481682  1.0000
  P   P1        1.0  0.20676831679458726  0.8701412185759377  0.255452095410412  1.0000
  P   P2        1.0  0.7932385257666398  0.12986874594430733  0.7445459386833733  1.0000
  H   H1        1.0  0.270058458584238  0.9179417862195082  0.026195119095810324  1.0000
  H   H2        1.0  0.7299648541907756  0.08206429344763681  0.9738049409209923  1.0000
  H   H3        1.0  0.42669809835216915  0.3842929298527126  0.6291731722036433  1.0000
  H   H4        1.0  0.5732790302817676  0.6156893486092586  0.3708256572228665  1.0000
  H   H5        1.0  0.09863974108883866  0.12428629955130079  0.39737728049944115  1.0000
  H   H6        1.0  0.9013593040958057  0.8757227824581263  0.6026130441442278  1.0000
  H   H7        1.0  0.5130224012464167  0.16691000830406472  0.5449351356427955  1.0000
  H   H8        1.0  0.4869594063725486  0.8330739663021093  0.4550619966726261  1.0000
  H   H9        1.0  0.4155843608373431  0.7205826865436292  0.09796301204639239  1.0000
  H   H10       1.0  0.5844055193295148  0.2794077677097278  0.902030099878786  1.0000
  H   H11       1.0  0.7058047047385256  0.21583217877284971  0.23619728108317162  1.0000
  H   H12       1.0  0.2942148776663558  0.784169592513308  0.7638165466257406  1.0000
  H   H13       1.0  0.637625588036357  0.4407851240113346  0.3108870804605105  1.0000
  H   H14       1.0  0.3624075649750863  0.5592223935686674  0.6891375020253677  1.0000
  H   H15       1.0  0.16332762397779282  0.3088455096848008  0.13885637984153484  1.0000
  H   H16       1.0  0.836690530170287  0.6911594022731151  0.8611325359365695  1.0000
  H   H17       1.0  0.8952700371931852  0.9076597728902414  0.3715082331238763  1.0000
  H   H18       1.0  0.10473265699197039  0.0923403394256468  0.6284910127396303  1.0000
  H   H19       1.0  0.8356467241635385  0.022516914316050008  0.49618341646608144  1.0000
  H   H20       1.0  0.1643506479007899  0.9774792682702655  0.5038114304183596  1.0000
  H   H21       1.0  0.3473503697457261  0.5473248722927194  0.875362570385633  1.0000
  H   H22       1.0  0.6526167854656606  0.4526427632775523  0.12463618616265394  1.0000
  H   H23       1.0  0.3759913074369122  0.48701750269410116  0.07127090928098309  1.0000
  H   H24       1.0  0.623969795746845  0.512981722426005  0.9287491358177107  1.0000
  H   H25       1.0  0.115316602998881  0.51507855848196  0.8800643915253662  1.0000
  H   H26       1.0  0.8846571231021655  0.4849124901691938  0.11994628108622875  1.0000
  H   H27       1.0  0.2282226312841119  0.6727533564682349  0.889106320602153  1.0000
  H   H28       1.0  0.7717641858578189  0.3272198773826673  0.11088264274130923  1.0000
  H   H29       1.0  0.01998635081611173  0.5216148797921394  0.412526087738492  1.0000
  H   H30       1.0  0.9800079189454675  0.4783880790423823  0.5874564261389568  1.0000
  H   H31       1.0  0.2968328427907636  0.58722814404598  0.21642240045327557  1.0000
  H   H32       1.0  0.7031449173082577  0.41279543716316175  0.7835965923231714  1.0000
  H   H33       1.0  0.1459150845435389  0.470334765126175  0.07253844311343025  1.0000
  H   H34       1.0  0.8540514693766852  0.5296847419838429  0.9274896559500834  1.0000
  C   C1        1.0  0.1826802739482716  0.0054003304692286985  0.2142111630015791  1.0000
  C   C2        1.0  0.8173338005784813  0.9946081733329349  0.7857858434338001  1.0000
  C   C3        1.0  0.22831751261987415  0.004095135900662704  0.0976959559799013  1.0000
  C   C4        1.0  0.7716982984382097  0.9959112145961838  0.9023003229713211  1.0000
  C   C5        1.0  0.2219841498573274  0.11356422185579623  0.07116663019757404  1.0000
  C   C6        1.0  0.7780408637213085  0.8864457402165441  0.928831536568211  1.0000
  C   C7        1.0  0.168520497255173  0.22500710691348758  0.16122863637093593  1.0000
  C   C8        1.0  0.8314992719273846  0.7749988157857429  0.8387624903974145  1.0000
  C   C9        1.0  0.12426846101148206  0.22829591566134155  0.2785134103747637  1.0000
  C   C10       1.0  0.875747088339601  0.7717122262545432  0.7214765966295718  1.0000
  C   C11       1.0  0.13194558289252714  0.11869190965650492  0.3048742972056004  1.0000
  C   C12       1.0  0.8680702183461053  0.881320440003009  0.695119935639298  1.0000
  C   C13       1.0  0.2827974968552241  0.6523315630416705  0.06497612349091506  1.0000
  C   C14       1.0  0.7171890325952505  0.34766758830517835  0.9350270709404359  1.0000
  C   C15       1.0  0.2746053915041601  0.5437105407740078  0.11017532772051211  1.0000
  C   C16       1.0  0.7253671000655899  0.4563000571397993  0.8898410147271678  1.0000
  C   C17       1.0  0.23932257592710476  0.5937118977643578  0.9186286242925021  1.0000
  C   C18       1.0  0.7606566108060662  0.40626934418497035  0.08137252569493114  1.0000
  C   C19       1.0  0.27306765608202704  0.11413893586959031  0.94747970825906  1.0000
  C   C20       1.0  0.726956203390749  0.8858649503522147  0.052516939970587526  1.0000
  C   C21       1.0  0.07205982674303614  0.34763498655263453  0.3772865173799645  1.0000
  C   C22       1.0  0.9279454704640672  0.6523708762753414  0.6227081279280996  1.0000
  C   C23       1.0  0.5372254451815407  0.23056271965969444  0.4955791560017958  1.0000
  C   C24       1.0  0.46276558282183095  0.7694218486667098  0.5044204470116115  1.0000
  C   C25       1.0  0.4911572988510642  0.3542286411442745  0.5428807620116771  1.0000
  C   C26       1.0  0.5088359614143344  0.6457592080566529  0.4571280284215932  1.0000
  C   C27       1.0  0.5244748214734044  0.4344100900984813  0.47756533194841216  1.0000
  C   C28       1.0  0.47553592375093257  0.5655861320017693  0.522449358534985  1.0000
  C   C29       1.0  0.6059076918477827  0.38443078956785837  0.3662533313902756  1.0000
  C   C30       1.0  0.3941041476215049  0.6155686001712085  0.633766101531066  1.0000
  C   C31       1.0  0.6466412127186203  0.2596396315365794  0.3240305174796987  1.0000
  C   C32       1.0  0.35336996575102125  0.7403605424723807  0.675982236468059  1.0000
  N   N1        1.0  0.612725766766374  0.1834954173213248  0.38728280359744366  1.0000
  N   N2        1.0  0.3872776759626506  0.816497801918459  0.6127225263275948  1.0000
  O   O1        1.0  0.40181920359340484  0.8942715761153435  0.3087693997925243  1.0000
  O   O2        1.0  0.5981824481632998  0.105725295466037  0.6912233429541175  1.0000
  O   O3        1.0  0.08211931588623153  0.8659616889136926  0.35145620129445393  1.0000
  O   O4        1.0  0.917880885179329  0.1340444884761922  0.6485391512145711  1.0000
  O   O5        1.0  0.15318983084205237  0.7341958564477835  0.12247342049142432  1.0000
  O   O6        1.0  0.846809891431043  0.26581840390657163  0.8775206566800622  1.0000
  O   O7        1.0  0.3127338776759813  0.003481103347674318  0.8660762379278496  1.0000
  O   O8        1.0  0.6872790606087591  0.9965183067487047  0.13391983285482223  1.0000
  O   O9        1.0  0.27727608224895317  0.21461294249535712  0.9271558780445304  1.0000
  O   O10       1.0  0.7227395984184498  0.7853860362112287  0.07283323659172687  1.0000
  O   O11       1.0  0.04382461544366832  0.3562584728325858  0.4858900713752733  1.0000
  O   O12       1.0  0.9561965410190183  0.6437531967865695  0.5140946508740856  1.0000
  O   O13       1.0  0.05890032317820021  0.442483268507729  0.3407017157879367  1.0000
  O   O14       1.0  0.9410868361147137  0.5575179869982348  0.6592788872735229  1.0000
  O   O15       1.0  0.7912385690954264  0.9472602044113358  0.4059402169487073  1.0000
  O   O16       1.0  0.20876006248282405  0.052732927364054695  0.5940561364432497  1.0000
