data_image0
_chemical_formula_structural       Gd4H44C40N4O30
_chemical_formula_sum              "Gd4 H44 C40 N4 O30"
_cell_length_a       9.48813473515409
_cell_length_b       10.985411297036093
_cell_length_c       12.420451538402183
_cell_angle_alpha    89.99974670785943
_cell_angle_beta     111.0200297690551
_cell_angle_gamma    90.00022914496715

_space_group_name_H-M_alt    "P 1"
_space_group_IT_number       1

loop_
  _space_group_symop_operation_xyz
  'x, y, z'

loop_
  _atom_site_type_symbol
  _atom_site_label
  _atom_site_symmetry_multiplicity
  _atom_site_fract_x
  _atom_site_fract_y
  _atom_site_fract_z
  _atom_site_occupancy
  Gd  Gd1       1.0  0.7033070832797891  0.0381135286810235  0.3836642574247833  1.0000
  Gd  Gd2       1.0  0.20330735620608922  0.9618869093617657  0.3836645151109863  1.0000
  Gd  Gd3       1.0  0.30668336031457244  0.48352754480411864  0.6141325721313893  1.0000
  Gd  Gd4       1.0  0.8066835018141776  0.516473008401867  0.6141329734214481  1.0000
  H   H1        1.0  0.9295735296303035  0.8195675410182373  0.039303604189065214  1.0000
  H   H2        1.0  0.4295712793288332  0.18043357705828805  0.03930139635729555  1.0000
  H   H3        1.0  0.5391990095692166  0.990134824565146  0.07006782531863821  1.0000
  H   H4        1.0  0.03919620901125851  0.0098647939905661  0.07006532875480082  1.0000
  H   H5        1.0  0.7569979086509805  0.7190946837711818  0.8552616159002043  1.0000
  H   H6        1.0  0.2569959862869027  0.28090813454763713  0.8552615202984413  1.0000
  H   H7        1.0  0.380413666682749  0.8796714623365457  0.8884824646415197  1.0000
  H   H8        1.0  0.8804136550632863  0.1203270639870624  0.888480346733104  1.0000
  H   H9        1.0  0.5276169272936357  0.2468284149550044  0.6680107431868336  1.0000
  H   H10       1.0  0.0276142722484991  0.7531718172670451  0.6680118223283957  1.0000
  H   H11       1.0  0.645814740567218  0.044931568401736385  0.7458838212977312  1.0000
  H   H12       1.0  0.14581612379775075  0.9550668616243242  0.745886019011664  1.0000
  H   H13       1.0  0.4650769103661219  0.975117780980966  0.6893893922718064  1.0000
  H   H14       1.0  0.9650788593586557  0.02488294226235149  0.6893930134067575  1.0000
  H   H15       1.0  0.5024153533610729  0.0881530548776865  0.7997674795614601  1.0000
  H   H16       1.0  0.0024166007149232995  0.9118446115503641  0.799771419349412  1.0000
  H   H17       1.0  0.5511749051095621  0.521585482771833  0.3418690825533447  1.0000
  H   H18       1.0  0.051177002170192096  0.4784155499308227  0.3418677021518164  1.0000
  H   H19       1.0  0.025604467117133805  0.14764641629244576  0.5055875803678305  1.0000
  H   H20       1.0  0.525605695384556  0.8523546205329067  0.5055901861549827  1.0000
  H   H21       1.0  0.8936592703878291  0.24923723716086224  0.4868675097305798  1.0000
  H   H22       1.0  0.39365999483923275  0.7507633414645838  0.4868695209346968  1.0000
  H   H23       1.0  0.5512262118613478  0.791241518801847  0.25210313057029055  1.0000
  H   H24       1.0  0.05122518491668871  0.20875905228221822  0.2521027562770399  1.0000
  H   H25       1.0  0.7084397229745392  0.7601958230329089  0.35099608964687695  1.0000
  H   H26       1.0  0.20843992339926842  0.23980479593218715  0.3509951239838572  1.0000
  H   H27       1.0  0.43172285300979496  0.3991706519623077  0.1598020102049489  1.0000
  H   H28       1.0  0.9317243965277486  0.6008307817564144  0.15980326970146308  1.0000
  H   H29       1.0  0.29409510555053237  0.4628611227829963  0.20994834887594047  1.0000
  H   H30       1.0  0.7940941828703816  0.5371404962122525  0.20994757373448905  1.0000
  H   H31       1.0  0.3426233157990382  0.30493898019460625  0.23210864355366576  1.0000
  H   H32       1.0  0.8426262899397372  0.695061785083453  0.23210912022710772  1.0000
  H   H33       1.0  0.2884561096502197  0.7467638352983597  0.6409316163308391  1.0000
  H   H34       1.0  0.7884542721389067  0.2532356108707816  0.6409308958662621  1.0000
  H   H35       1.0  0.4379314954027791  0.722387840956955  0.7558594539589407  1.0000
  H   H36       1.0  0.9379297378851562  0.27761336688988786  0.755859465187676  1.0000
  H   H37       1.0  0.4605390502468013  0.5325666085254424  0.9285478461428482  1.0000
  H   H38       1.0  0.9605379017580232  0.46743290413882466  0.9285464766576014  1.0000
  H   H39       1.0  0.0560868307127507  0.6753615773792916  0.9605144313758273  1.0000
  H   H40       1.0  0.5560852260413898  0.32463638121835453  0.960515105674837  1.0000
  H   H41       1.0  0.21832094425889187  0.7689452644570666  0.15082291506201534  1.0000
  H   H42       1.0  0.7183201676337562  0.23105365782572557  0.15082418117420107  1.0000
  H   H43       1.0  0.6077273384617713  0.6394424551379031  0.11432267595521495  1.0000
  H   H44       1.0  0.1077279289007294  0.36055808885013346  0.11432214996349901  1.0000
  C   C1        1.0  0.8432183400219841  0.9739026413516709  0.17813364206988072  1.0000
  C   C2        1.0  0.3432133398269883  0.02609384415718098  0.17813370203982262  1.0000
  C   C3        1.0  0.7459804934132279  0.9140679428699058  0.06631897602728291  1.0000
  C   C4        1.0  0.24597681004035377  0.08593058669345059  0.06631674628219741  1.0000
  C   C5        1.0  0.8084393925146925  0.8365290018048411  0.00589977084262465  1.0000
  C   C6        1.0  0.3084359569897829  0.16347095526683827  0.005896500595724819  1.0000
  C   C7        1.0  0.589871033031429  0.9320152213012631  0.022909891361692292  1.0000
  C   C8        1.0  0.08986842100591023  0.06798207667149819  0.02290802425374491  1.0000
  C   C9        1.0  0.7136126331509943  0.7802738044043165  0.9053823217053039  1.0000
  C   C10       1.0  0.21361050766847714  0.21972679333010348  0.90537918925817  1.0000
  C   C11       1.0  0.5032658313412385  0.8704939608396529  0.9232788056979828  1.0000
  C   C12       1.0  0.0032656738033126002  0.12950582231047747  0.9232765631299672  1.0000
  C   C13       1.0  0.5246589966475456  0.12927102211326508  0.5315640934457307  1.0000
  C   C14       1.0  0.024656721337137796  0.8707298816590451  0.5315656219413185  1.0000
  C   C15       1.0  0.30156519129821663  0.17996316860881476  0.5933886932415575  1.0000
  C   C16       1.0  0.8015595395428364  0.8200383808871051  0.593388741863926  1.0000
  C   C17       1.0  0.47160607882258887  0.16152072875804177  0.6300806881164718  1.0000
  C   C18       1.0  0.9716050027190094  0.8384812236260755  0.6300819138764667  1.0000
  C   C19       1.0  0.6472350968457975  0.3440601211694129  0.37582357167780617  1.0000
  C   C20       1.0  0.14723550365204832  0.6559465348403463  0.3758194257427405  1.0000
  C   C21       1.0  0.5241828279459355  0.060737835625580786  0.7222084759750019  1.0000
  C   C22       1.0  0.024185290991425704  0.9392602933682422  0.7222118353929547  1.0000
  C   C23       1.0  0.5084680050618501  0.4285593014933156  0.3438380361774591  1.0000
  C   C24       1.0  0.008471535182742702  0.5714406638385084  0.34383909882843255  1.0000
  C   C25       1.0  0.452646742211954  0.42694863608042494  0.4445883280389112  1.0000
  C   C26       1.0  0.9526493222930912  0.5730496262623814  0.4445883688515196  1.0000
  C   C27       1.0  0.38652065277084097  0.3966716313712766  0.2295106255666966  1.0000
  C   C28       1.0  0.8865188155016954  0.6033283879187862  0.229510147173393  1.0000
  C   C29       1.0  0.15706936835754703  0.5408427964712174  0.8164994025131023  1.0000
  C   C30       1.0  0.6570681964033939  0.45915622982672477  0.8164996692167109  1.0000
  C   C31       1.0  0.24748243706540052  0.5966102633619953  0.9313250420615377  1.0000
  C   C32       1.0  0.747479953478944  0.40338759061727797  0.9313235583771943  1.0000
  C   C33       1.0  0.4042627054403455  0.5842840739062395  0.9761321884054156  1.0000
  C   C34       1.0  0.9042591340037874  0.41571500698880465  0.9761311646714931  1.0000
  C   C35       1.0  0.17826752653281375  0.6640412356938014  0.994148425014437  1.0000
  C   C36       1.0  0.6782659582767466  0.3359569760692622  0.9941490650122662  1.0000
  C   C37       1.0  0.26751942995047534  0.7164686097545143  0.09860824931225665  1.0000
  C   C38       1.0  0.767518822129702  0.2835298327293216  0.09860935642018376  1.0000
  C   C39       1.0  0.4848260485839617  0.6427521751827  0.07922469993586388  1.0000
  C   C40       1.0  0.9848256763141093  0.35724711331344844  0.079224778125102  1.0000
  N   N1        1.0  0.5629194770299081  0.7958961824580226  0.8652320973241885  1.0000
  N   N2        1.0  0.06291843511036181  0.20410318606969466  0.8652317371364546  1.0000
  N   N3        1.0  0.41917757800759153  0.7077699583378062  0.1399775989970209  1.0000
  N   N4        1.0  0.919176996589876  0.2922288002871126  0.1399778741918497  1.0000
  O   O1        1.0  0.7787670857293919  0.0438352728393525  0.22756438556525893  1.0000
  O   O2        1.0  0.278767343405427  0.9561634743960994  0.22756627170214472  1.0000
  O   O3        1.0  0.982417770148402  0.9504225612506901  0.21359043616314477  1.0000
  O   O4        1.0  0.48241961524632165  0.04958059908840078  0.2135898578398994  1.0000
  O   O5        1.0  0.441000721028857  0.07351351864708279  0.44135555155513373  1.0000
  O   O6        1.0  0.9409987989407966  0.9264874505839484  0.44135620239877943  1.0000
  O   O7        1.0  0.6602583587263952  0.1560986216594458  0.5444114721176094  1.0000
  O   O8        1.0  0.16025712304208642  0.843902685402753  0.5444117790442036  1.0000
  O   O9        1.0  0.21336013171953994  0.09464818321453088  0.539974566032754  1.0000
  O   O10       1.0  0.713360398235551  0.9053560599803985  0.539975091863724  1.0000
  O   O11       1.0  0.25345013655636006  0.27890696975379825  0.6202808034025226  1.0000
  O   O12       1.0  0.7534464167866375  0.7210924589161534  0.6202777405608515  1.0000
  O   O13       1.0  0.7646917406977992  0.3771330657798087  0.4605346549075265  1.0000
  O   O14       1.0  0.26469543782726385  0.6228690204053959  0.4605363672886612  1.0000
  O   O15       1.0  0.5355170335395982  0.4770914049608166  0.5404019953410639  1.0000
  O   O16       1.0  0.03552040280127501  0.5229049406119016  0.5404007883837353  1.0000
  O   O17       1.0  0.6370041704008713  0.24761415144245547  0.31940525963293714  1.0000
  O   O18       1.0  0.1370071535008677  0.7523872893917982  0.3194054657605819  1.0000
  O   O19       1.0  0.22431153461104003  0.47027853287026716  0.7702898116416464  1.0000
  O   O20       1.0  0.7243128462289904  0.5297200458345512  0.7702896754891955  1.0000
  O   O21       1.0  0.32742616192340535  0.3789939348780181  0.43530237322639215  1.0000
  O   O22       1.0  0.8274300285039473  0.6210048524619083  0.43530418810072286  1.0000
  O   O23       1.0  0.017888182568363196  0.568796098928324  0.7742265659076182  1.0000
  O   O24       1.0  0.517884665696748  0.43120721024317277  0.77422791190525  1.0000
  O   O25       1.0  0.915885400696972  0.1615136628289164  0.4856050615771963  1.0000
  O   O26       1.0  0.41588640575577074  0.8384869987316107  0.4856060014219565  1.0000
  O   O27       1.0  0.6445146769574565  0.8284836530883832  0.31054193861618284  1.0000
  O   O28       1.0  0.14451465613716863  0.17151694762434738  0.3105403743106834  1.0000
  O   O29       1.0  0.35071669494269747  0.6815218341734947  0.6917683164717732  1.0000
  O   O30       1.0  0.8507150673025239  0.31847939323232305  0.6917673983203231  1.0000
