data_image0
_chemical_formula_structural       Cd2H12C10N12Cl4
_chemical_formula_sum              "Cd2 H12 C10 N12 Cl4"
_cell_length_a       7.228519547419946
_cell_length_b       7.964589002052448
_cell_length_c       9.76376497477282
_cell_angle_alpha    67.71100288929065
_cell_angle_beta     84.42682613270578
_cell_angle_gamma    81.44087731471163

_space_group_name_H-M_alt    "P 1"
_space_group_IT_number       1

loop_
  _space_group_symop_operation_xyz
  'x, y, z'

loop_
  _atom_site_type_symbol
  _atom_site_label
  _atom_site_symmetry_multiplicity
  _atom_site_fract_x
  _atom_site_fract_y
  _atom_site_fract_z
  _atom_site_occupancy
  Cd  Cd1       1.0  0.7571388779100802  0.4778377592543421  0.4299796044351325  1.0000
  Cd  Cd2       1.0  0.24286227509885794  0.5221619245003312  0.5700214807067568  1.0000
  H   H1        1.0  0.2008038038698814  0.21502359751051617  0.3836865628860266  1.0000
  H   H2        1.0  0.7991989154641387  0.7849747176979421  0.616315851814683  1.0000
  H   H3        1.0  0.6731076527772403  0.21146383303521793  0.23463649467156958  1.0000
  H   H4        1.0  0.3268919332825746  0.7885372268431754  0.7653622344326438  1.0000
  H   H5        1.0  0.2509490842299371  0.8973524311412364  0.1688389904632075  1.0000
  H   H6        1.0  0.7490494662343467  0.10264588095508033  0.8311616757990308  1.0000
  H   H7        1.0  0.39098810153826247  0.9850415529478057  0.26188248349426163  1.0000
  H   H8        1.0  0.6090130502226145  0.014958145961884403  0.7381165486899377  1.0000
  H   H9        1.0  0.15683969594261532  0.13411199687821815  0.8865706627436368  1.0000
  H   H10       1.0  0.8431555466257309  0.8658904042132676  0.11342899277224923  1.0000
  H   H11       1.0  0.5651210605261099  0.4788833820864157  0.8447156252119187  1.0000
  H   H12       1.0  0.43487905501520185  0.5211135766187097  0.15528431765145712  1.0000
  C   C1        1.0  0.08687554997834471  0.1909523935696527  0.330639738833483  1.0000
  C   C2        1.0  0.913124213199339  0.8090472916734727  0.6693604213359592  1.0000
  C   C3        1.0  0.8221223106909789  0.18718036239508964  0.2522010041683417  1.0000
  C   C4        1.0  0.17787866395203614  0.8128207111498754  0.7477965969506286  1.0000
  C   C5        1.0  0.2805744498351572  0.020766902285082302  0.1826962478336185  1.0000
  C   C6        1.0  0.7194253127184992  0.9792327905355551  0.8173028858569892  1.0000
  C   C7        1.0  0.26440334174134955  0.20143574004671194  0.908826109229068  1.0000
  C   C8        1.0  0.7355948557352721  0.7985653061651163  0.09117374786039535  1.0000
  C   C9        1.0  0.47206030834696844  0.37416185945910035  0.8922343736615233  1.0000
  C   C10       1.0  0.5279391018430462  0.6258405598995368  0.10776497733515107  1.0000
  N   N1        1.0  0.9053444024348779  0.24937103724862203  0.3411063587224348  1.0000
  N   N2        1.0  0.0946555366125992  0.7506272885142664  0.6588931795545536  1.0000
  N   N3        1.0  0.10965474277504939  0.0963954850709499  0.23978059247079386  1.0000
  N   N4        1.0  0.8903450204026344  0.9036042001721756  0.7602195676986484  1.0000
  N   N5        1.0  0.34061044684636244  0.15170315819435842  0.04138731862770579  1.0000
  N   N6        1.0  0.6593894922011144  0.8482951675685302  0.9586122196492894  1.0000
  N   N7        1.0  0.34496338188446884  0.3427845788709192  0.812266651205306  1.0000
  N   N8        1.0  0.655036382541269  0.6572150912171895  0.1877355619218193  1.0000
  N   N9        1.0  0.9418686364695573  0.09438690314758702  0.1873910723455552  1.0000
  N   N10       1.0  0.05813112608409914  0.9056127896730501  0.8126080613450456  1.0000
  N   N11       1.0  0.4725120011681341  0.26179633905604055  0.033304835900153824  1.0000
  N   N12       1.0  0.5274893277105973  0.7382019852183818  0.9666956273492745  1.0000
  Cl  Cl1       1.0  0.5291524404962615  0.7250652027534913  0.5071468573498167  1.0000
  Cl  Cl2       1.0  0.47085010109586983  0.27493449466773984  0.49285309980682257  1.0000
  Cl  Cl3       1.0  0.916993084934859  0.36769906118578183  0.6783272019277647  1.0000
  Cl  Cl4       1.0  0.0830068553606793  0.6322992494220758  0.3216743893069137  1.0000
