data_image0
_chemical_formula_structural       Zn6H6C36O42
_chemical_formula_sum              "Zn6 H6 C36 O42"
_cell_length_a       6.898854354910657
_cell_length_b       15.159178367630796
_cell_length_c       15.160751105135455
_cell_angle_alpha    117.72643841890314
_cell_angle_beta     98.71845662729831
_cell_angle_gamma    98.7275677251112

_space_group_name_H-M_alt    "P 1"
_space_group_IT_number       1

loop_
  _space_group_symop_operation_xyz
  'x, y, z'

loop_
  _atom_site_type_symbol
  _atom_site_label
  _atom_site_symmetry_multiplicity
  _atom_site_fract_x
  _atom_site_fract_y
  _atom_site_fract_z
  _atom_site_occupancy
  Zn  Zn1       1.0  0.4728010547315193  0.2620893345430133  0.5894505054486884  1.0000
  Zn  Zn2       1.0  0.21064543619040418  0.32723579091840793  0.7379496186099174  1.0000
  Zn  Zn3       1.0  0.8834669037063282  0.4106103604386889  0.6727767344413493  1.0000
  Zn  Zn4       1.0  0.5271983249358528  0.7379097626321354  0.4105487695400284  1.0000
  Zn  Zn5       1.0  0.7893517085234268  0.6727617651262321  0.2620494455278291  1.0000
  Zn  Zn6       1.0  0.11653062431393121  0.5893879662534474  0.3272220551631475  1.0000
  H   H1        1.0  0.8137908676477325  0.4454623036463872  0.469711983800117  1.0000
  H   H2        1.0  0.36821343528963985  0.0241530098973897  0.5547362278199299  1.0000
  H   H3        1.0  0.3439993827232685  0.5304744432076447  0.9757050610109343  1.0000
  H   H4        1.0  0.1862037293741068  0.5545360229601427  0.5302872649605133  1.0000
  H   H5        1.0  0.6317851834478179  0.9758445455681795  0.44526557522639365  1.0000
  H   H6        1.0  0.6560003096825469  0.4695223422751056  0.024293818503934944  1.0000
  C   C1        1.0  0.24696054673694334  0.4334001837471319  0.6048019277843081  1.0000
  C   C2        1.0  0.8134856189656219  0.17136655467760425  0.5665594850449053  1.0000
  C   C3        1.0  0.6420840985116029  0.39508121326841206  0.8286625127388944  1.0000
  C   C4        1.0  0.7530351315305168  0.5665973723237983  0.3951970360996596  1.0000
  C   C5        1.0  0.1865096759954028  0.8286302307458298  0.4334397533723117  1.0000
  C   C6        1.0  0.3579131167702129  0.6049194251161225  0.1713366723394499  1.0000
  C   C7        1.0  0.5603845355064723  0.4302942251993472  0.5317788117796667  1.0000
  C   C8        1.0  0.130014988774569  0.10143871594534909  0.5698033929391568  1.0000
  C   C9        1.0  0.02852498766151964  0.4682657191840035  0.8985562209705547  1.0000
  C   C10       1.0  0.4396122240066092  0.5697025603359833  0.4682198672276383  1.0000
  C   C11       1.0  0.8699843946814314  0.8985603809534052  0.4301972013769626  1.0000
  C   C12       1.0  0.9714682134819341  0.531735689788718  0.10144304847688093  1.0000
  C   C13       1.0  0.18786485060961422  0.09240685884671511  0.33589092338031884  1.0000
  C   C14       1.0  0.09591736557009513  0.2434065680959776  0.9075643592478071  1.0000
  C   C15       1.0  0.8529530740609346  0.6640442332842865  0.7567559611363064  1.0000
  C   C16       1.0  0.8121322959985309  0.9075906970597317  0.6641088004211253  1.0000
  C   C17       1.0  0.9040830707168015  0.7565917603401008  0.09242605523616733  1.0000
  C   C18       1.0  0.1470612139774588  0.33596410829829904  0.24325589349488297  1.0000
  C   C19       1.0  0.37983218950203224  0.4635359441919391  0.5498496642299384  1.0000
  C   C20       1.0  0.9163139916871758  0.0863153956185485  0.5364043109611386  1.0000
  C   C21       1.0  0.8299372109412675  0.45006984040109893  0.9137237020034802  1.0000
  C   C22       1.0  0.6201631016703645  0.536460841507882  0.4501482548598899  1.0000
  C   C23       1.0  0.08368763429964331  0.9136852418579338  0.46359913286074306  1.0000
  C   C24       1.0  0.17005884873830723  0.5499284864555207  0.08627432768353327  1.0000
  C   C25       1.0  0.6744524085245162  0.46898623135907513  0.48274266526996695  1.0000
  C   C26       1.0  0.20538023484247256  0.0137162460119669  0.531191722518457  1.0000
  C   C27       1.0  0.1916607877347545  0.5173866060140213  0.9862276879160629  1.0000
  C   C28       1.0  0.3255425793810149  0.5310128653421701  0.5172589476121984  1.0000
  C   C29       1.0  0.7946140570181799  0.9862843917341877  0.4688105603708122  1.0000
  C   C30       1.0  0.808337054918262  0.4826094088475231  0.01377136587827717  1.0000
  C   C31       1.0  0.2947247819346331  0.7901907284574821  0.6637684950089592  1.0000
  C   C32       1.0  0.5048267714646856  0.8741761463840235  0.2103830266510299  1.0000
  C   C33       1.0  0.630616129843034  0.33608099084577253  0.1257493661057012  1.0000
  C   C34       1.0  0.7052812471799188  0.2098099086637362  0.33623656890166115  1.0000
  C   C35       1.0  0.4951723622436078  0.125828345099805  0.7896154454247293  1.0000
  C   C36       1.0  0.3693949586635057  0.6639181077773627  0.874242794948891  1.0000
  O   O1        1.0  0.2894933375627744  0.3692031862193446  0.6325477779900835  1.0000
  O   O2        1.0  0.9201924634933152  0.2632295280946195  0.6309090347712213  1.0000
  O   O3        1.0  0.6570069548124098  0.3673891712748514  0.7367778901313284  1.0000
  O   O4        1.0  0.7105027277997423  0.6307951402227019  0.3674522306880234  1.0000
  O   O5        1.0  0.0798069199626922  0.7367695688041349  0.3690915595448913  1.0000
  O   O6        1.0  0.34298917922378547  0.6326122376452759  0.26322157982367855  1.0000
  O   O7        1.0  0.6304660513467584  0.36530288097240765  0.5584151475559621  1.0000
  O   O8        1.0  0.26512462994746505  0.1930363564274202  0.6348546859966503  1.0000
  O   O9        1.0  0.0720772865197077  0.4416862489285833  0.8069526850092071  1.0000
  O   O10       1.0  0.3695263107215326  0.6346939045036138  0.44158389035369777  1.0000
  O   O11       1.0  0.7348759072164628  0.8069650521374357  0.3651464040470954  1.0000
  O   O12       1.0  0.9279206285956151  0.558312848134662  0.19304714938942866  1.0000
  O   O13       1.0  0.24809931257146195  0.17350327634794377  0.41137637111876296  1.0000
  O   O14       1.0  0.07332131855705629  0.23800251847762866  0.8265113181589354  1.0000
  O   O15       1.0  0.8373759802155976  0.5886299210261187  0.7625538587876123  1.0000
  O   O16       1.0  0.7519036998221511  0.8264942794533284  0.58862375369781  1.0000
  O   O17       1.0  0.92668203925669  0.7619958107350301  0.1734753388504089  1.0000
  O   O18       1.0  0.16263458558541538  0.4113768809723908  0.23745042843814443  1.0000
  O   O19       1.0  0.6237789111083674  0.1515304041509751  0.5273941214624428  1.0000
  O   O20       1.0  0.47217991778403967  0.3758144224944218  0.8485250604471728  1.0000
  O   O21       1.0  0.09630042081560924  0.47250652593798737  0.6240177462558519  1.0000
  O   O22       1.0  0.3762204742419542  0.8484686926095861  0.47260713251737485  1.0000
  O   O23       1.0  0.5278169160856621  0.6241854451044162  0.1514750588281187  1.0000
  O   O24       1.0  0.9036937928997947  0.5274910300210394  0.3759817770380278  1.0000
  O   O25       1.0  0.12702794282397184  0.012050253539477801  0.2602035304706263  1.0000
  O   O26       1.0  0.11729010342242671  0.2478814411726802  0.9878906690974671  1.0000
  O   O27       1.0  0.8681464509046322  0.7396510032480849  0.7518723287726768  1.0000
  O   O28       1.0  0.8729688147947955  0.9879465321340531  0.7397944888729807  1.0000
  O   O29       1.0  0.8827086986042687  0.7521253633854883  0.012101601815160677  1.0000
  O   O30       1.0  0.1318595150617554  0.2603611898213245  0.24814668670754256  1.0000
  O   O31       1.0  0.13434251541110595  0.7657860662224891  0.6078344983873334  1.0000
  O   O32       1.0  0.36847916994276636  0.8427445225133355  0.23467177089123928  1.0000
  O   O33       1.0  0.5260793392457118  0.3918616315544909  0.15772753575681256  1.0000
  O   O34       1.0  0.8656594327857265  0.2342122588706346  0.3921718482791902  1.0000
  O   O35       1.0  0.631523909230211  0.15725611590421806  0.7653271555385287  1.0000
  O   O36       1.0  0.473931749260828  0.6081374670686372  0.8422646252977726  1.0000
  O   O37       1.0  0.45429092444233277  0.8152770982989493  0.7209851907366482  1.0000
  O   O38       1.0  0.6396430434016834  0.9062313325324566  0.1853861901317088  1.0000
  O   O39       1.0  0.7329826098295911  0.2789766102876712  0.09315876352652448  1.0000
  O   O40       1.0  0.5457198721632396  0.18472431049643487  0.27901462209247535  1.0000
  O   O41       1.0  0.36035948465103473  0.09377701133340112  0.814614967513755  1.0000
  O   O42       1.0  0.26703026543902575  0.7210201760639949  0.9068357409627905  1.0000
