data_image0
_chemical_formula_structural       Co2H40C54Br8N8O8
_chemical_formula_sum              "Co2 H40 C54 Br8 N8 O8"
_cell_length_a       9.843755918
_cell_length_b       11.736481130434832
_cell_length_c       12.6795
_cell_angle_alpha    93.54043930774351
_cell_angle_beta     90.0
_cell_angle_gamma    90.0

_space_group_name_H-M_alt    "P 1"
_space_group_IT_number       1

loop_
  _space_group_symop_operation_xyz
  'x, y, z'

loop_
  _atom_site_type_symbol
  _atom_site_label
  _atom_site_symmetry_multiplicity
  _atom_site_fract_x
  _atom_site_fract_y
  _atom_site_fract_z
  _atom_site_occupancy
  Co  Co1       1.0  0.827346804191656  0.7499998970469831  0.7500005659042941  1.0000
  Co  Co2       1.0  0.1726556422322716  0.2499999656823277  0.24999966285167827  1.0000
  H   H1        1.0  0.6255925127866391  0.0232284535062632  0.0748211777789791  1.0000
  H   H2        1.0  0.6255914969142395  0.47677147785839213  0.4251805139482697  1.0000
  H   H3        1.0  0.3744068860200684  0.9767714092230548  0.9251782623023529  1.0000
  H   H4        1.0  0.3744058701476618  0.5232292385443316  0.5748197636038554  1.0000
  H   H5        1.0  0.0631537398101472  0.8365128678383016  0.6350718542239874  1.0000
  H   H6        1.0  0.0631537398101472  0.663486926255672  0.8649284889099604  1.0000
  H   H7        1.0  0.9368487066137731  0.1634844338707779  0.3649274394688646  1.0000
  H   H8        1.0  0.9368446431241537  0.3365129364736461  0.1350717398460048  1.0000
  H   H9        1.0  0.2101382863646108  0.8988267584553427  0.6988111816663433  1.0000
  H   H10       1.0  0.2101382863646108  0.601172181965218  0.8011891126714515  1.0000
  H   H11       1.0  0.78986314418691  0.1011731042739683  0.3011914131135214  1.0000
  H   H12       1.0  0.7898600965696971  0.3988276807641  0.1988103274098876  1.0000
  H   H13       1.0  0.1109739015371645  0.9788569333654918  0.6121478991755822  1.0000
  H   H14       1.0  0.1109728856647578  0.5211437144018944  0.8878524927545328  1.0000
  H   H15       1.0  0.8890295607591697  0.0211420756904133  0.3878522807842302  1.0000
  H   H16       1.0  0.8890265131419497  0.4788570020008365  0.11214778479759958  1.0000
  H   H17       1.0  0.6886497447183046  0.8678153644633539  0.9405331808820989  1.0000
  H   H18       1.0  0.6886497447183046  0.6321852833040325  0.5594687883972753  1.0000
  H   H19       1.0  0.3113496540884029  0.1321844982659641  0.059467047873866405  1.0000
  H   H20       1.0  0.3113486382160033  0.3678145794252856  0.4405322290333231  1.0000
  H   H21       1.0  0.7592813213026659  0.2012577749492479  0.09457188286175011  1.0000
  H   H22       1.0  0.7592813213026659  0.2987430100888204  0.4054298576616588  1.0000
  H   H23       1.0  0.2407180775040416  0.7987420877800631  0.9054275572195891  1.0000
  H   H24       1.0  0.240717061631635  0.7012577063139034  0.5945704198904664  1.0000
  H   H25       1.0  0.1940702325325603  0.1195894007638856  0.7301576539189937  1.0000
  H   H26       1.0  0.1940702325325603  0.3804105306007699  0.769842460458996  1.0000
  H   H27       1.0  0.8059291662741543  0.8804104619654254  0.2698409974877123  1.0000
  H   H28       1.0  0.8059271345293411  0.6195893321285482  0.23015776829697637  1.0000
  H   H29       1.0  0.1783333531045841  0.18063814738621178  0.8616167708201488  1.0000
  H   H30       1.0  0.1783333531045841  0.3193617839784508  0.638384132232467  1.0000
  H   H31       1.0  0.8216660457021304  0.8193617153431063  0.1383834579358165  1.0000
  H   H32       1.0  0.8216660457021304  0.6806389324242801  0.3616169339942913  1.0000
  H   H33       1.0  0.9613657712393504  0.2318944063139199  0.9799462506883785  1.0000
  H   H34       1.0  0.9613657712393504  0.2681055250507356  0.5200546523642373  1.0000
  H   H35       1.0  0.0386346434397637  0.7681054564153911  0.020052400718320502  1.0000
  H   H36       1.0  0.0386326116949576  0.7318943376785825  0.47994636506636107  1.0000
  H   H37       1.0  0.9709119242304212  0.2153382641860091  0.6860435511152828  1.0000
  H   H38       1.0  0.9709129401028277  0.2846625208520592  0.8139566120588596  1.0000
  H   H39       1.0  0.029086458703879697  0.7846615985433019  0.3139558889660492  1.0000
  H   H40       1.0  0.0290854428314802  0.7153373418772588  0.1860436166971056  1.0000
  C   C1        1.0  0.8597927529393274  0.963393493203327  0.884656489476285  1.0000
  C   C2        1.0  0.8597917370669207  0.5366063008906465  0.6153446423323032  1.0000
  C   C3        1.0  0.1402076617397867  0.0366055158525782  0.11534369048352738  1.0000
  C   C4        1.0  0.1402066458673872  0.4633927081652587  0.3846555376275091  1.0000
  C   C5        1.0  0.4855514541212926  0.1117620692608057  0.5424465485708154  1.0000
  C   C6        1.0  0.4855524699936993  0.3882378621038569  0.957552777132534  1.0000
  C   C7        1.0  0.5144520081750343  0.8882318177546366  0.45755254993740374  1.0000
  C   C8        1.0  0.5144489605578215  0.6117696836861555  0.0424478907888641  1.0000
  C   C9        1.0  0.0185559253522314  0.9544171172893883  0.762513207396033  1.0000
  C   C10       1.0  0.0185559253522314  0.5455826768045853  0.7374871357379148  1.0000
  C   C11       1.0  0.9814455051992894  0.0455827454399298  0.23748702135993224  1.0000
  C   C12       1.0  0.9814434734544761  0.4544163322513199  0.2625130442218904  1.0000
  C   C13       1.0  0.932817724910194  0.0669937282547224  0.8944583442147618  1.0000
  C   C14       1.0  0.9328167090377875  0.4330053494365274  0.605542510041694  1.0000
  C   C15       1.0  0.0671837056413267  0.93300442712777  0.10554257562351668  1.0000
  C   C16       1.0  0.0671816738965205  0.5669945132927907  0.3944585073889044  1.0000
  C   C17       1.0  0.6097347445424575  0.9320329467863501  0.5312420043859518  1.0000
  C   C18       1.0  0.6097337286700508  0.5679677009810362  0.9687575988695228  1.0000
  C   C19       1.0  0.3902666860090704  0.0679626475759108  0.46875640303995425  1.0000
  C   C20       1.0  0.3902666860090704  0.4320381374621576  0.031243760134188402  1.0000
  C   C21       1.0  0.7264808330856027  0.8594715605467725  0.5677024477807961  1.0000
  C   C22       1.0  0.7264788013407966  0.6405299408940195  0.9322972042708455  1.0000
  C   C23       1.0  0.2735195815935114  0.1405291558559512  0.4322946750728035  1.0000
  C   C24       1.0  0.2735145022314853  0.3594682144884729  0.0677029268928067  1.0000
  C   C25       1.0  0.7137042058461986  0.0333957038281909  0.02408407038871019  1.0000
  C   C26       1.0  0.713703189973792  0.4666042275364717  0.4759176213385388  1.0000
  C   C27       1.0  0.286295192960516  0.9666033052277142  0.9759161095711021  1.0000
  C   C28       1.0  0.2862941770881093  0.5333956351928464  0.5240833960920597  1.0000
  C   C29       1.0  0.5939988809868808  0.044333821240016405  0.5736363037409475  1.0000
  C   C30       1.0  0.5939988809868808  0.4556678174714648  0.926363119554722  1.0000
  C   C31       1.0  0.4060055971818528  0.9556617731222518  0.4263636810342177  1.0000
  C   C32       1.0  0.4060015336922334  0.5443397283185476  0.0736367596920502  1.0000
  C   C33       1.0  0.1057899046537472  0.9152053365138215  0.6722313155335584  1.0000
  C   C34       1.0  0.10579092052615378  0.5847953112535649  0.8277698650711824  1.0000
  C   C35       1.0  0.894210510025367  0.0847945262154965  0.3277704905716732  1.0000
  C   C36       1.0  0.8942084782805537  0.415205405149166  0.1722312011555758  1.0000
  C   C37       1.0  0.7476831060532163  0.9461014845953599  0.9494214559154344  1.0000
  C   C38       1.0  0.7476820901808168  0.5538991631720265  0.5505789360146736  1.0000
  C   C39       1.0  0.252319340370704  0.0538992318073639  0.0505788216366909  1.0000
  C   C40       1.0  0.2523162927534912  0.44610069955729154  0.44942129274129167  1.0000
  C   C41       1.0  0.7894649222040968  0.1351834529578966  0.035017624111056  1.0000
  C   C42       1.0  0.7894639063316902  0.3648156247333532  0.4649832301453997  1.0000
  C   C43       1.0  0.210536508347424  0.8648164097714215  0.964981815970283  1.0000
  C   C44       1.0  0.2105344766026107  0.6351833843225521  0.5350169498144055  1.0000
  C   C45       1.0  0.12137745083816749  0.1522569211727145  0.7902038868220272  1.0000
  C   C46       1.0  0.1213784667105742  0.3477438638653538  0.7097962763521152  1.0000
  C   C47       1.0  0.8786209320961332  0.8477420878831907  0.20979550446314477  1.0000
  C   C48       1.0  0.8786199162237267  0.65225685253737  0.29020400120001  1.0000
  C   C49       1.0  0.9008634584066114  0.1540735381907723  0.9705821838211078  1.0000
  C   C50       1.0  0.9008624425342049  0.345927246847296  0.5294179793530347  1.0000
  C   C51       1.0  0.0991359404001031  0.8459254708651328  0.0294172074640642  1.0000
  C   C52       1.0  0.0991359404001031  0.6540726158820149  0.47058146072830453  1.0000
  C   C53       1.0  0.0370549618497762  0.2499999656823277  0.7500004515263116  1.0000
  C   C54       1.0  0.9629434210845318  0.7499998970469831  0.2499997772296609  1.0000
  Br  Br1       1.0  0.46797787738483265  0.2647471738528822  0.5983216180419645  1.0000
  Br  Br2       1.0  0.46798194087445205  0.23525275751178037  0.9016792850106512  1.0000
  Br  Br3       1.0  0.532021521421882  0.7352492741827916  0.4016784155293607  1.0000
  Br  Br4       1.0  0.5320194896770687  0.7647513735845948  0.09832276507538039  1.0000
  Br  Br5       1.0  0.7197181704846116  0.10278398600004118  0.6762249323747298  1.0000
  Br  Br6       1.0  0.7197212181018244  0.39721679903802704  0.8237752307994128  1.0000
  Br  Br7       1.0  0.2802822441945096  0.8972124620356325  0.3237751011966026  1.0000
  Br  Br8       1.0  0.2802781807048831  0.602787332058341  0.17622445326271216  1.0000
  N   N1        1.0  0.9172007184260239  0.8940888710257298  0.8027463647960288  1.0000
  N   N2        1.0  0.9172007184260239  0.6059109230682438  0.6972539783379261  1.0000
  N   N3        1.0  0.0828027438703103  0.10591099170358119  0.1972530752853103  1.0000
  N   N4        1.0  0.0827996962530975  0.3940889396610743  0.3027462504180463  1.0000
  N   N5        1.0  0.0319562982483959  0.0586021186271353  0.8161412238102912  1.0000
  N   N6        1.0  0.0319562982483959  0.4413986664109331  0.6838597280384846  1.0000
  N   N7        1.0  0.9680441164307254  0.9413985977755884  0.183858265067208  1.0000
  N   N8        1.0  0.9680420846859121  0.558601196318385  0.3161405007174806  1.0000
  O   O1        1.0  0.6965268193477385  0.8093131256252732  0.6525746448099312  1.0000
  O   O2        1.0  0.6965258034753319  0.690688375815519  0.8474250072417036  1.0000
  O   O3        1.0  0.3034776588210022  0.190685883430632  0.34741922575281586  1.0000
  O   O4        1.0  0.3034786746934017  0.3093149016074364  0.1525817260959599  1.0000
  O   O5        1.0  0.8347454029182658  0.8542334204984671  0.5171139852944293  1.0000
  O   O6        1.0  0.8347443870458661  0.6457680809423323  0.9828880327811049  1.0000
  O   O7        1.0  0.1652539958884418  0.1457579054967439  0.4828857554999431  1.0000
  O   O8        1.0  0.1652600911228745  0.35424031852109283  0.0171126839364533  1.0000
