data_image0
_chemical_formula_structural       CdH48C30N6O9
_chemical_formula_sum              "Cd1 H48 C30 N6 O9"
_cell_length_a       6.555600468907688
_cell_length_b       12.257548144767673
_cell_length_c       11.69583332974911
_cell_angle_alpha    115.31105563659936
_cell_angle_beta     88.69945845960784
_cell_angle_gamma    100.83571351721021

_space_group_name_H-M_alt    "P 1"
_space_group_IT_number       1

loop_
  _space_group_symop_operation_xyz
  'x, y, z'

loop_
  _atom_site_type_symbol
  _atom_site_label
  _atom_site_symmetry_multiplicity
  _atom_site_fract_x
  _atom_site_fract_y
  _atom_site_fract_z
  _atom_site_occupancy
  Cd  Cd1       1.0  0.4575238131078336  0.4605796899180561  0.7118328684319194  1.0000
  H   H1        1.0  0.4967278704375034  0.6538277143131593  0.43103205900906255  1.0000
  H   H2        1.0  0.6940933655730533  0.7849633590725631  0.5029666841435159  1.0000
  H   H3        1.0  0.5976604425201233  0.619217757650972  0.22906181448476554  1.0000
  H   H4        1.0  0.7661697708549229  0.7629870706437671  0.2945820396885351  1.0000
  H   H5        1.0  0.05625245565493494  0.6740811201503761  0.3167000314119903  1.0000
  H   H6        1.0  0.08252984204941781  0.7508143208701981  0.5184038356181375  1.0000
  H   H7        1.0  0.07107515861016375  0.6516220918773001  0.594573166696776  1.0000
  H   H8        1.0  0.9234641948272042  0.7706280663225371  0.6468952734849012  1.0000
  H   H9        1.0  0.09765402995537906  0.40882005151260614  0.26288527030239806  1.0000
  H   H10       1.0  0.029739460329267334  0.4284876471311634  0.4176812090370134  1.0000
  H   H11       1.0  0.19519876983699191  0.5495487585667859  0.39642893229469667  1.0000
  H   H12       1.0  0.7311656831273154  0.3539742859980848  0.17582943533751919  1.0000
  H   H13       1.0  0.5429557096111496  0.4393857394379523  0.2601899566062186  1.0000
  H   H14       1.0  0.6604250766560398  0.3555304351840505  0.32390625301447773  1.0000
  H   H15       1.0  0.6697916354438433  0.2603958007046074  0.9575445112924967  1.0000
  H   H16       1.0  0.30449414987015194  0.07638280445269169  0.05152192831907599  1.0000
  H   H17       1.0  0.16078281454075943  0.017797556810080595  0.9053595237404367  1.0000
  H   H18       1.0  0.35672330730803026  0.2777028791490324  0.062344634993046086  1.0000
  H   H19       1.0  0.2019958377099585  0.21746674217653353  0.9196535543055191  1.0000
  H   H20       1.0  0.6233807262040827  0.002179814276757999  0.0461235105038398  1.0000
  H   H21       1.0  0.7240574674099349  0.14468769983509588  0.04184836517993056  1.0000
  H   H22       1.0  0.80906538072022  0.009252935349230999  0.9352196807694072  1.0000
  H   H23       1.0  0.414509041991252  0.0919751873045627  0.6334302127757212  1.0000
  H   H24       1.0  0.2293873122373924  0.0350507055296347  0.7159861002430502  1.0000
  H   H25       1.0  0.4018063174441479  0.9411315595339003  0.6207401255934497  1.0000
  H   H26       1.0  0.7894908262071355  0.9925786671304095  0.6889320560207607  1.0000
  H   H27       1.0  0.8903066492412322  0.12666314055574898  0.8295685148950227  1.0000
  H   H28       1.0  0.8007330655827403  0.14277750412971096  0.6983649258913333  1.0000
  H   H29       1.0  0.41272024793360645  0.6302975584042729  0.033743295246004855  1.0000
  H   H30       1.0  0.9056989061874106  0.711118018300148  0.8273538609276799  1.0000
  H   H31       1.0  0.9741662201149524  0.9803709493455769  0.12981491970027997  1.0000
  H   H32       1.0  0.12407460741279418  0.8893173081317228  0.009400709942802602  1.0000
  H   H33       1.0  0.1533531577788309  0.7710081480935284  0.14178780244150582  1.0000
  H   H34       1.0  0.03061762556881586  0.877263550578057  0.2627712559432638  1.0000
  H   H35       1.0  0.45135276284663217  0.9301641666685753  0.1588618276226084  1.0000
  H   H36       1.0  0.32386929047768837  0.04824143144363549  0.2602350780865237  1.0000
  H   H37       1.0  0.33003204293915905  0.976131318970772  0.4274611058997733  1.0000
  H   H38       1.0  0.42356379853968223  0.8447394109453796  0.32362939235926536  1.0000
  H   H39       1.0  0.7544838438493289  0.9700794847109004  0.31120062600298565  1.0000
  H   H40       1.0  0.7110415048975156  0.9936976698521176  0.46927494435455924  1.0000
  H   H41       1.0  0.6320676774740618  0.1668784700873047  0.3548317582977276  1.0000
  H   H42       1.0  0.6080565651818617  0.19431485894320843  0.5159089049357206  1.0000
  H   H43       1.0  0.36049375289018565  0.2668326911219268  0.3757812478869909  1.0000
  H   H44       1.0  0.9314959593506702  0.32674617368641623  0.6588993853373069  1.0000
  H   H45       1.0  0.7960430049444656  0.44732177315815147  0.9642435813861567  1.0000
  H   H46       1.0  0.5368085366286621  0.7365095239829245  0.6799739128357274  1.0000
  H   H47       1.0  0.2219487995713081  0.6529502098162112  0.8153891457889485  1.0000
  H   H48       1.0  0.13300559744535434  0.5656528155800941  0.8806927853203134  1.0000
  C   C1        1.0  0.6649785252470581  0.5505862158887638  0.5456961051602177  1.0000
  C   C2        1.0  0.7923564363740354  0.6133067788747367  0.4708917440462057  1.0000
  C   C3        1.0  0.6639746281574618  0.6884184124933483  0.4325172610068222  1.0000
  C   C4        1.0  0.7261446995655093  0.6748983590308483  0.3004722199855293  1.0000
  C   C5        1.0  0.9107552550561167  0.6081125261421008  0.2716556345130954  1.0000
  C   C6        1.0  0.8657455277572552  0.5221496392953925  0.34097491782014794  1.0000
  C   C7        1.0  0.9482849954539392  0.5483472717988249  0.131716131220422  1.0000
  C   C8        1.0  0.9791396247930351  0.7010538470390273  0.5631680514363921  1.0000
  C   C9        1.0  0.058686777706960076  0.4749714611310908  0.35542367878790765  1.0000
  C   C10       1.0  0.6885206218794337  0.4115947665500102  0.2709241434943124  1.0000
  C   C11       1.0  0.5296730252603865  0.3059985062693258  0.8278338842737227  1.0000
  C   C12       1.0  0.5300124606304522  0.2213661021630884  0.8922746964720288  1.0000
  C   C13       1.0  0.5513313492476258  0.08787840077642528  0.7987411568401653  1.0000
  C   C14       1.0  0.49303125108018253  0.019620173779962596  0.8864730507675063  1.0000
  C   C15       1.0  0.308345433507931  0.0752271062106189  0.9572686392773022  1.0000
  C   C16       1.0  0.3366196128254018  0.20598334104481347  0.9644211173323568  1.0000
  C   C17       1.0  0.43795769238823123  0.8793500975023465  0.8145302651235156  1.0000
  C   C18       1.0  0.6742242488999255  0.0455299573147485  0.9826202036137487  1.0000
  C   C19       1.0  0.3893957538554176  0.0354622226867392  0.6860737524016827  1.0000
  C   C20       1.0  0.7703460153568715  0.08640388531214431  0.7510449021268712  1.0000
  C   C21       1.0  0.554246461949383  0.6745063838950215  0.008247030522795596  1.0000
  C   C22       1.0  0.8027156420404182  0.7122624931544195  0.9013684524838083  1.0000
  C   C23       1.0  0.02204836624054705  0.8907730277701941  0.08531690557367692  1.0000
  C   C24       1.0  0.13134142975361848  0.8668339532755315  0.1837143541768001  1.0000
  C   C25       1.0  0.3417527852452623  0.9532696570590604  0.23424256611740907  1.0000
  C   C26       1.0  0.43075378675669646  0.9428065661972768  0.34814065320646387  1.0000
  C   C27       1.0  0.6568408028352267  0.009551456930950096  0.39029007324519677  1.0000
  C   C28       1.0  0.6891834720531452  0.14790485421254826  0.4306541599163367  1.0000
  C   C29       1.0  0.2191662113739028  0.2587100993880965  0.4238682654777861  1.0000
  C   C30       1.0  0.006271645975921638  0.2919653556402082  0.5698128893174398  1.0000
  N   N1        1.0  0.6232098496438925  0.6340929963033517  0.8887653729155501  1.0000
  N   N2        1.0  0.6807784480329033  0.7728143063503551  0.09265083786380747  1.0000
  N   N3        1.0  0.8385256035826174  0.7952641544847407  0.02336971735268618  1.0000
  N   N4        1.0  0.9079018226285032  0.20792912562932025  0.45878361872946977  1.0000
  N   N5        1.0  0.04145414956295211  0.1851878266874962  0.363905469033817  1.0000
  N   N6        1.0  0.20547631502287086  0.3256855397747457  0.5503942883159354  1.0000
  O   O1        1.0  0.7038231608693624  0.45425867542070364  0.5479923270214471  1.0000
  O   O2        1.0  0.5214143941854275  0.6029638719037322  0.6126263959195484  1.0000
  O   O3        1.0  0.7739565127505159  0.4876725236943998  0.0584479922382286  1.0000
  O   O4        1.0  0.12114884589749414  0.5575730742713247  0.0882418422865996  1.0000
  O   O5        1.0  0.705368279986388  0.36414993305570686  0.8131110263592092  1.0000
  O   O6        1.0  0.357207345482749  0.31664136114475383  0.7901765989972204  1.0000
  O   O7        1.0  0.5699486349365516  0.8330520980430263  0.7285520120035611  1.0000
  O   O8        1.0  0.2892377786978884  0.8150629789033271  0.8391238471577507  1.0000
  O   O9        1.0  0.16599162445955787  0.5663182162852181  0.7990652240707092  1.0000
