data_image0
_chemical_formula_structural       Zn8H60C96O26
_chemical_formula_sum              "Zn8 H60 C96 O26"
_cell_length_a       18.249522711130727
_cell_length_b       18.43047142847249
_cell_length_c       18.341556388943886
_cell_angle_alpha    120.25709289768993
_cell_angle_beta     119.24856981734919
_cell_angle_gamma    90.10861129370261

_space_group_name_H-M_alt    "P 1"
_space_group_IT_number       1

loop_
  _space_group_symop_operation_xyz
  'x, y, z'

loop_
  _atom_site_type_symbol
  _atom_site_label
  _atom_site_symmetry_multiplicity
  _atom_site_fract_x
  _atom_site_fract_y
  _atom_site_fract_z
  _atom_site_occupancy
  Zn  Zn1       1.0  0.9382155559691228  0.8496621601446532  0.8951353673987653  1.0000
  Zn  Zn2       1.0  0.9394488754861428  0.021516906415762097  0.07723653621548007  1.0000
  Zn  Zn3       1.0  0.9357709415941856  0.0242482182888324  0.9013720220016879  1.0000
  Zn  Zn4       1.0  0.1125514520534026  0.023352888507950798  0.0735383857130927  1.0000
  Zn  Zn5       1.0  0.5251739285305704  0.6102749933503803  0.07244197377672631  1.0000
  Zn  Zn6       1.0  0.5262523845906486  0.4322188172134814  0.8990602635719113  1.0000
  Zn  Zn7       1.0  0.35109945128074566  0.43589067629280004  0.8981147444833651  1.0000
  Zn  Zn8       1.0  0.5249054466477717  0.44083629900975296  0.07830608562390035  1.0000
  H   H1        1.0  0.6903746159603728  0.7926416649754273  0.8208055525405697  1.0000
  H   H2        1.0  0.6262865383079159  0.8300825762837076  0.8717099811972131  1.0000
  H   H3        1.0  0.5778330527453903  0.6438018959210792  0.68613285283174  1.0000
  H   H4        1.0  0.5227913685010392  0.7222837809465118  0.6877060913765405  1.0000
  H   H5        1.0  0.43185505051098966  0.6276468956530433  0.6933762891071921  1.0000
  H   H6        1.0  0.49844328389292514  0.6263689120551347  0.8446746922858707  1.0000
  H   H7        1.0  0.7710650245454646  0.6354561033575621  0.1214481675532467  1.0000
  H   H8        1.0  0.934301015925904  0.6918837431416449  0.24280751384754515  1.0000
  H   H9        1.0  0.029032525010663383  0.7893187504709828  0.24197121988263598  1.0000
  H   H10       1.0  0.9600710688683164  0.8295686192138731  0.1198064018065564  1.0000
  H   H11       1.0  0.9567487896851503  0.8014956618927724  0.6720711243495285  1.0000
  H   H12       1.0  0.9471343071030064  0.8406634909721974  0.59826763897523  1.0000
  H   H13       1.0  0.9425877078243232  0.652870877085256  0.544115026742588  1.0000
  H   H14       1.0  0.022230916630022097  0.7307037578651856  0.5680451999181031  1.0000
  H   H15       1.0  0.9239495382132505  0.6373447519979081  0.37841191378547007  1.0000
  H   H16       1.0  0.771880631907031  0.6388335864280704  0.2937828301785145  1.0000
  H   H17       1.0  0.4998799576991573  0.6530326322328717  0.29823243282935136  1.0000
  H   H18       1.0  0.4323427999099038  0.7101998707367227  0.3956212212508276  1.0000
  H   H19       1.0  0.528438057362763  0.8052679004597677  0.5871296993631673  1.0000
  H   H20       1.0  0.6914445650956935  0.8429979739536788  0.6800200737563242  1.0000
  H   H21       1.0  0.10724311945827474  0.7994803565600036  0.0856328351533831  1.0000
  H   H22       1.0  0.21965309458008153  0.8374014279846163  0.18800414712162442  1.0000
  H   H23       1.0  0.08293848963795374  0.6515714873656293  0.05107782547522522  1.0000
  H   H24       1.0  0.13645040474182218  0.730385418500802  0.1835662489850876  1.0000
  H   H25       1.0  0.2303842250146673  0.6334245168601241  0.1799067561240263  1.0000
  H   H26       1.0  0.3203748405730167  0.6316033168866254  0.11556710539593944  1.0000
  H   H27       1.0  0.3425636685708611  0.643588273920443  0.8603928874718675  1.0000
  H   H28       1.0  0.3054360248280262  0.6979739933679949  0.7523676490945091  1.0000
  H   H29       1.0  0.2058920275507603  0.7910720910403057  0.747462925622436  1.0000
  H   H30       1.0  0.14597118594127786  0.8310007650180609  0.8525794367014469  1.0000
  H   H31       1.0  0.6979274641084316  0.006552265103167102  0.8971981022752545  1.0000
  H   H32       1.0  0.6369208810443254  0.0162478916439213  0.7941523610587922  1.0000
  H   H33       1.0  0.5804451511111708  0.017275383957191096  0.9272139655810959  1.0000
  H   H34       1.0  0.5291044600253585  0.9399455433931008  0.7946538752200494  1.0000
  H   H35       1.0  0.4367485319284299  0.03860743662310989  0.7986627399902773  1.0000
  H   H36       1.0  0.502130485275309  0.19100222558123647  0.8645441435291942  1.0000
  H   H37       1.0  0.7714275728850738  0.4621664885647688  0.1142107356167301  1.0000
  H   H38       1.0  0.9343946186542597  0.5297645478518545  0.21780685331112423  1.0000
  H   H39       1.0  0.03148230730889884  0.43449086428589817  0.22283511085772287  1.0000
  H   H40       1.0  0.9650934765755399  0.2720008967215292  0.1237009216027687  1.0000
  H   H41       1.0  0.10462854193728081  0.259650316175275  0.2980858921179461  1.0000
  H   H42       1.0  0.21615052483495845  0.32633626113292274  0.3694494912633388  1.0000
  H   H43       1.0  0.08127318691261821  0.37046714253177976  0.42573367993528416  1.0000
  H   H44       1.0  0.1314541917852736  0.42653527542739056  0.39898866054318916  1.0000
  H   H45       1.0  0.22775219781727432  0.5196817030165306  0.5888804612888306  1.0000
  H   H46       1.0  0.32030218432581153  0.457516754466674  0.6759598152072782  1.0000
  H   H47       1.0  0.3517532911759672  0.18872968256830797  0.6785287049006712  1.0000
  H   H48       1.0  0.3182286471364861  0.026233813325504198  0.5842162269527904  1.0000
  H   H49       1.0  0.21881067849459163  0.9288106399178486  0.3928045654314614  1.0000
  H   H50       1.0  0.15394587106975172  0.9946979423315128  0.29698229198936577  1.0000
  H   H51       1.0  0.11517638426188631  0.003831133077746102  0.8312817181948092  1.0000
  H   H52       1.0  0.22953596155363706  0.018386709874910395  0.8835777580829927  1.0000
  H   H53       1.0  0.095752236329588  0.014996099978937097  0.6953257793202994  1.0000
  H   H54       1.0  0.1537811734910406  0.9393981917443381  0.6997035284668697  1.0000
  H   H55       1.0  0.2491992837286503  0.039296883496241684  0.7038823827220853  1.0000
  H   H56       1.0  0.33015627866063113  0.19321415640709455  0.8537302804696552  1.0000
  H   H57       1.0  0.32928504328588565  0.46296091977888654  0.12901536708393013  1.0000
  H   H58       1.0  0.28253148202256984  0.5292440435345397  0.24754106661171696  1.0000
  H   H59       1.0  0.1841073569965062  0.4317406246691745  0.24455794546097553  1.0000
  H   H60       1.0  0.133629578832867  0.26852176009195716  0.12374805559553437  1.0000
  C   C1        1.0  0.8395780737905838  0.8370320351993639  0.9786069933499488  1.0000
  C   C2        1.0  0.7820751032272996  0.7772578362948648  0.9769268138800271  1.0000
  C   C3        1.0  0.6909778883863495  0.7458659802922936  0.9079239217901999  1.0000
  C   C4        1.0  0.6448231036339183  0.7717071395526458  0.8346741865860139  1.0000
  C   C5        1.0  0.5601903438178014  0.6969458995127836  0.732917130396011  1.0000
  C   C6        1.0  0.5035970426563666  0.6580877212119631  0.7508587334314569  1.0000
  C   C7        1.0  0.5403604821737391  0.656657556645321  0.833926732208873  1.0000
  C   C8        1.0  0.6365749331159307  0.6906572951399425  0.9087843442358902  1.0000
  C   C9        1.0  0.6765295228178445  0.6694036406155275  0.9788634607255204  1.0000
  C   C10       1.0  0.6195918154565448  0.6127134857884611  0.9808729682722017  1.0000
  C   C11       1.0  0.7703298543478355  0.7000620233938617  0.049567883943424734  1.0000
  C   C12       1.0  0.8121122737420735  0.6779543275213837  0.12077857717772383  1.0000
  C   C13       1.0  0.9033697086036626  0.7092963293808195  0.188408368872345  1.0000
  C   C14       1.0  0.9569329190026467  0.7642482568155697  0.18785994958536628  1.0000
  C   C15       1.0  0.9182697388667478  0.7868159600955237  0.11947823408247145  1.0000
  C   C16       1.0  0.8246166021973382  0.7555474588175243  0.04884699248454188  1.0000
  C   C17       1.0  0.8420671359945117  0.845117078122804  0.7082238662928262  1.0000
  C   C18       1.0  0.7848839151825403  0.7888778008495406  0.5933971115944985  1.0000
  C   C19       1.0  0.8240204586982501  0.7576560522186283  0.5403323712762854  1.0000
  C   C20       1.0  0.9236877627459705  0.7818853154427996  0.5931849968005876  1.0000
  C   C21       1.0  0.9509655549024388  0.7064844352607336  0.53481462750144  1.0000
  C   C22       1.0  0.8958453122400273  0.6685870996965234  0.422775668384176  1.0000
  C   C23       1.0  0.8116121276092372  0.6687167528731024  0.37584439775750395  1.0000
  C   C24       1.0  0.7692053771442319  0.7036399885543003  0.43068077190635273  1.0000
  C   C25       1.0  0.677475947068821  0.6834152198539056  0.3796317548242811  1.0000
  C   C26       1.0  0.6197652628642132  0.624389363301688  0.2648030064715598  1.0000
  C   C27       1.0  0.6359290732262934  0.7148672453298416  0.4329694839053387  1.0000
  C   C28       1.0  0.5422384494134251  0.6943777337875044  0.38182330627672917  1.0000
  C   C29       1.0  0.5043979704823301  0.7261901384240302  0.43627970313342246  1.0000
  C   C30       1.0  0.5587421905907702  0.7799138731488497  0.5445346861735273  1.0000
  C   C31       1.0  0.6499661600750315  0.8008953914656869  0.5964477162587227  1.0000
  C   C32       1.0  0.6909072284089887  0.7692268021379218  0.5426680527967278  1.0000
  C   C33       1.0  0.11982827325301314  0.8405913245610532  0.9808074899293755  1.0000
  C   C34       1.0  0.1768908698473979  0.7822407032457547  0.9806054081226491  1.0000
  C   C35       1.0  0.19657085488696416  0.7521732396366827  0.041210932623187035  1.0000
  C   C36       1.0  0.16596905992382466  0.7786636401370401  0.11150414677170754  1.0000
  C   C37       1.0  0.14635789148058365  0.7044183920483603  0.12149602230297768  1.0000
  C   C38       1.0  0.21962384167717633  0.6645813815438896  0.13984556761938183  1.0000
  C   C39       1.0  0.26883063889282965  0.662858010850172  0.103548327644681  1.0000
  C   C40       1.0  0.2518254001164024  0.6972243176186552  0.04235124420087277  1.0000
  C   C41       1.0  0.2856094417249652  0.6760498607586456  0.983367357550783  1.0000
  C   C42       1.0  0.34324588803402617  0.618311149931287  0.9845503172951663  1.0000
  C   C43       1.0  0.2658891422038963  0.7061619976362862  0.9201979967340673  1.0000
  C   C44       1.0  0.2994179024353514  0.6845017462084044  0.8589171546236471  1.0000
  C   C45       1.0  0.2783463198088257  0.714622416167245  0.7981539232147269  1.0000
  C   C46       1.0  0.22242264685102947  0.7675538906623911  0.7957597462066061  1.0000
  C   C47       1.0  0.18893118159882494  0.7899028760131585  0.8546062768242209  1.0000
  C   C48       1.0  0.20963351070872702  0.7602462126348611  0.9181732379343329  1.0000
  C   C49       1.0  0.8455372902148713  0.12088037193284148  0.998329711928385  1.0000
  C   C50       1.0  0.7876138218234416  0.17843112958576052  8.968156380711968e-05  1.0000
  C   C51       1.0  0.6965470230246072  0.13908306883799068  0.9401532331044821  1.0000
  C   C52       1.0  0.652144446496628  0.039350114925454704  0.870102251521125  1.0000
  C   C53       1.0  0.5654956216167619  0.010945768261869698  0.8576920505602316  1.0000
  C   C54       1.0  0.5085150706235738  0.0665299425310906  0.8393358575892976  1.0000
  C   C55       1.0  0.5447082305576814  0.1510521564093281  0.8765353757038811  1.0000
  C   C56       1.0  0.6408301113287322  0.19357240028705994  0.9380767387134837  1.0000
  C   C57       1.0  0.6794730929057027  0.28511316470695647  0.9956288720759332  1.0000
  C   C58       1.0  0.6212815964800884  0.3423209488795393  0.9931710772358147  1.0000
  C   C59       1.0  0.7731589775816444  0.32686063962736256  0.05776416474037653  1.0000
  C   C60       1.0  0.8134877085596912  0.4202356264279742  0.11622425961824943  1.0000
  C   C61       1.0  0.90462660573656  0.45806823895782844  0.17446813892756535  1.0000
  C   C62       1.0  0.9595158675765347  0.4041938200069026  0.17724989876343494  1.0000
  C   C63       1.0  0.9223209841081896  0.3132699130897833  0.1215872686101703  1.0000
  C   C64       1.0  0.8288108337035639  0.2722775865845009  0.06051564880163334  1.0000
  C   C65       1.0  0.12121793061899672  0.11357255612308849  0.2649315662385163  1.0000
  C   C66       1.0  0.1790711883312426  0.17160586222815505  0.3799099255897147  1.0000
  C   C67       1.0  0.1970129861277101  0.2624696684701036  0.4313371821187033  1.0000
  C   C68       1.0  0.16381576717678573  0.3068071543046997  0.3764170724853956  1.0000
  C   C69       1.0  0.14359288338187776  0.3899194608335461  0.4338619780510199  1.0000
  C   C70       1.0  0.21775097909879554  0.4484681605428662  0.5456388697371324  1.0000
  C   C71       1.0  0.26848108180103486  0.4139979187958999  0.5939508352716913  1.0000
  C   C72       1.0  0.252900954631059  0.3183379137749469  0.5410044186118342  1.0000
  C   C73       1.0  0.28919943103347384  0.2801977658780004  0.5938441024980606  1.0000
  C   C74       1.0  0.3460662115853026  0.33829410765073215  0.7087447227579416  1.0000
  C   C75       1.0  0.271928277043301  0.18676144613255016  0.5421808316078439  1.0000
  C   C76       1.0  0.307979788929977  0.146647459877471  0.5950101443126955  1.0000
  C   C77       1.0  0.28915625732185646  0.0556670405232182  0.5422418734991368  1.0000
  C   C78       1.0  0.23311321970932403  0.0006520374573569014  0.4340420789135493  1.0000
  C   C79       1.0  0.19693909395390116  0.0375853084527051  0.3805090467139394  1.0000
  C   C80       1.0  0.21504163031085716  0.13088473641034426  0.43247582857095074  1.0000
  C   C81       1.0  0.11796605162762569  0.1183223216740643  0.9853222660402139  1.0000
  C   C82       1.0  0.17473514675157992  0.17650743670885297  0.9846060470101391  1.0000
  C   C83       1.0  0.19934592753566  0.1381550032340897  0.9169716474367747  1.0000
  C   C84       1.0  0.17441080940488973  0.03867052773663459  0.8451952767868249  1.0000
  C   C85       1.0  0.15965956593937855  0.009984722385162598  0.7434275464452327  1.0000
  C   C86       1.0  0.23368614155736372  0.0669357143159104  0.7610863510063267  1.0000
  C   C87       1.0  0.2779138569621438  0.152189748574088  0.8433744216287309  1.0000
  C   C88       1.0  0.25477243746878037  0.1938616726384126  0.9176496212339772  1.0000
  C   C89       1.0  0.28352256282223465  0.28560998128256887  0.9871016805614374  1.0000
  C   C90       1.0  0.34183412158856186  0.34383753273596074  0.9879730463248889  1.0000
  C   C91       1.0  0.2584820993507791  0.3263764388673068  0.057010440957966965  1.0000
  C   C92       1.0  0.2864146502217793  0.42009805193605126  0.12749983984604538  1.0000
  C   C93       1.0  0.2601347070574534  0.4571322857649491  0.1936159291573674  1.0000
  C   C94       1.0  0.20465120362160152  0.40200263547746556  0.19206859920299016  1.0000
  C   C95       1.0  0.1764847085443861  0.3106732116310695  0.1245234709148377  1.0000
  C   C96       1.0  0.20235438983127815  0.27054405710231316  0.05557320118235505  1.0000
  O   O1        1.0  0.9817480610261599  0.9800980336490566  0.987483613260771  1.0000
  O   O2        1.0  0.8570260293073276  0.9203193533561204  0.038575716767652854  1.0000
  O   O3        1.0  0.866411720857613  0.7990030545905994  0.9206216761606  1.0000
  O   O4        1.0  0.605327282304387  0.529339423120767  0.9278383756842034  1.0000
  O   O5        1.0  0.5909606817466013  0.6537804458432176  0.03619843611786421  1.0000
  O   O6        1.0  0.8628566727852558  0.9290638120346415  0.7538819436079294  1.0000
  O   O7        1.0  0.8644197324837537  0.8035692284112912  0.7498731713599441  1.0000
  O   O8        1.0  0.5903229930882361  0.5416324126860701  0.22315648058586393  1.0000
  O   O9        1.0  0.6051533340353574  0.6621159627068351  0.2192237170864998  1.0000
  O   O10       1.0  0.15972740739387353  0.9238869781769877  0.04848660046027207  1.0000
  O   O11       1.0  0.03650492139812667  0.8013921042707111  0.9133324055138915  1.0000
  O   O12       1.0  0.30386678841372133  0.5349169558422843  0.9174600673038782  1.0000
  O   O13       1.0  0.4264061277279865  0.6581103694808658  0.052716734323155226  1.0000
  O   O14       1.0  0.8602539268207323  0.09374198846576579  0.9292862841807049  1.0000
  O   O15       1.0  0.8747541957362089  0.10442252744879  0.06532213564145924  1.0000
  O   O16       1.0  0.6052948997010644  0.37350221283366375  0.06155735762994398  1.0000
  O   O17       1.0  0.593475258991795  0.35465900010982654  0.9230383979816635  1.0000
  O   O18       1.0  0.1607819343572032  0.09826797328660317  0.2201796782926877  1.0000
  O   O19       1.0  0.03782039700212889  0.08495375322073778  0.22228356085515344  1.0000
  O   O20       1.0  0.305072899194606  0.3593276798348271  0.7522704911341407  1.0000
  O   O21       1.0  0.42997902062652577  0.36105012142943577  0.752477560694686  1.0000
  O   O22       1.0  0.1587686714701633  0.09416960138171497  0.0442518174489379  1.0000
  O   O23       1.0  0.034203822508942494  0.09879639189390589  0.9272297421985627  1.0000
  O   O24       1.0  0.3026442954904881  0.3673597052680719  0.9280772501933329  1.0000
  O   O25       1.0  0.42533644072921123  0.36441194552148903  0.0488574457797171  1.0000
  O   O26       1.0  0.481860974190127  0.47956172781901063  0.9868026515804401  1.0000
