data_image0
_chemical_formula_structural       Er2H12C16N2O16
_chemical_formula_sum              "Er2 H12 C16 N2 O16"
_cell_length_a       7.645835010756958
_cell_length_b       7.687558323581848
_cell_length_c       9.793186268154972
_cell_angle_alpha    111.1381260936563
_cell_angle_beta     97.8796053304449
_cell_angle_gamma    91.69413850616924

_space_group_name_H-M_alt    "P 1"
_space_group_IT_number       1

loop_
  _space_group_symop_operation_xyz
  'x, y, z'

loop_
  _atom_site_type_symbol
  _atom_site_label
  _atom_site_symmetry_multiplicity
  _atom_site_fract_x
  _atom_site_fract_y
  _atom_site_fract_z
  _atom_site_occupancy
  Er  Er1       1.0  0.3587483292636974  0.5329347871278359  0.6999777120769225  1.0000
  Er  Er2       1.0  0.641255160106276  0.46706653177923846  0.3000229452370178  1.0000
  H   H1        1.0  0.5820900821529732  0.942293126130366  0.8962770887360066  1.0000
  H   H2        1.0  0.4179170306356426  0.05771638948764488  0.1037324614535819  1.0000
  H   H3        1.0  0.026493488940161607  0.36374910514013703  0.09403928889736332  1.0000
  H   H4        1.0  0.9735057062821325  0.636260790398225  0.9059644477147516  1.0000
  H   H5        1.0  0.9868462414431318  0.020575621777588506  0.649643408723648  1.0000
  H   H6        1.0  0.013159017916038464  0.9794410677677877  0.3503629366813643  1.0000
  H   H7        1.0  0.12415959222016679  0.2641267197772165  0.8650265552990106  1.0000
  H   H8        1.0  0.8758379220007128  0.7358805722350609  0.13496705728092462  1.0000
  H   H9        1.0  0.53851490079564  0.1969937202988419  0.6242056200915158  1.0000
  H   H10       1.0  0.46147855325870074  0.8030010345794879  0.3757869790427082  1.0000
  H   H11       1.0  0.6786217964407228  0.3427324299575787  0.611872187431274  1.0000
  H   H12       1.0  0.321376472799308  0.6572578165894427  0.3881267426419157  1.0000
  C   C1        1.0  0.6821824226167053  0.7989787120737476  0.623363003807228  1.0000
  C   C2        1.0  0.3178134800181525  0.2010257523111179  0.37663472328987524  1.0000
  C   C3        1.0  0.7715977373196522  0.9599350913215404  0.7573292435565409  1.0000
  C   C4        1.0  0.22840310129232214  0.04006639157587699  0.24266710280669201  1.0000
  C   C5        1.0  0.7037002849881375  0.014475541304626893  0.8901020347549463  1.0000
  C   C6        1.0  0.29630847614839695  0.9855255456652047  0.10990114222499882  1.0000
  C   C7        1.0  0.7912708753241943  0.16169662336384502  0.01931886670061543  1.0000
  C   C8        1.0  0.20873425042302074  0.8383074431344539  0.980682761292357  1.0000
  C   C9        1.0  0.9481107802290366  0.24990025953972156  0.002552388862540145  1.0000
  C   C10       1.0  0.05189616218573433  0.7501078893068042  0.9974547026074988  1.0000
  C   C11       1.0  0.9264154224559956  0.05401343297656779  0.7491222851882853  1.0000
  C   C12       1.0  0.07358540914353283  0.9459992101530191  0.25088242210285483  1.0000
  C   C13       1.0  0.9551885785362089  0.4556947727261261  0.5474718111560222  1.0000
  C   C14       1.0  0.04481183324433862  0.5443023377337965  0.4525344487156104  1.0000
  C   C15       1.0  0.4217657322487085  0.4268263681297101  0.9867084809515064  1.0000
  C   C16       1.0  0.5782193893785744  0.5731532179920791  0.013280874224967957  1.0000
  N   N1        1.0  0.007079491362809204  0.19389942502350271  0.8712929130701498  1.0000
  N   N2        1.0  0.9929230084176053  0.8061047254289522  0.12870948916830846  1.0000
  O   O1        1.0  0.5580734857683537  0.6973272800516883  0.6388627376097205  1.0000
  O   O2        1.0  0.4419364274692937  0.30266122993379707  0.36112974111963336  1.0000
  O   O3        1.0  0.7356743665403017  0.7699962612360025  0.5002805732251332  1.0000
  O   O4        1.0  0.264314435689748  0.23001552897729743  0.49971651461758176  1.0000
  O   O5        1.0  0.7320116448147187  0.21157824024302843  0.14517016154633922  1.0000
  O   O6        1.0  0.2679874217538655  0.7884190162410151  0.8548298746929819  1.0000
  O   O7        1.0  0.044369878388380406  0.4552638717590227  0.664840183306886  1.0000
  O   O8        1.0  0.9556402994296959  0.5447257008604255  0.3351740778875581  1.0000
  O   O9        1.0  0.7939293359588075  0.39045191222297865  0.49710562371957684  1.0000
  O   O10       1.0  0.20607585424554029  0.6095519461812272  0.5029092257835047  1.0000
  O   O11       1.0  0.3117541049509001  0.38989170349645247  0.866292420279045  1.0000
  O   O12       1.0  0.6882364063303256  0.6100780493142608  0.13368134788420602  1.0000
  O   O13       1.0  0.41210710410343404  0.35652264089445407  0.08245234820820002  1.0000
  O   O14       1.0  0.5878804194259856  0.6434779430239391  0.9175423595451593  1.0000
  O   O15       1.0  0.5949060151153063  0.32307707588237383  0.6770972131108125  1.0000
  O   O16       1.0  0.4050889297336369  0.6769189797795151  0.3228989831790798  1.0000
