data_image0
_chemical_formula_structural       Gd2P2H38C48N2O16
_chemical_formula_sum              "Gd2 P2 H38 C48 N2 O16"
_cell_length_a       10.722460708612145
_cell_length_b       11.889767324078365
_cell_length_c       14.4039608100637
_cell_angle_alpha    74.39466312973416
_cell_angle_beta     74.63222973444678
_cell_angle_gamma    64.85689234067767

_space_group_name_H-M_alt    "P 1"
_space_group_IT_number       1

loop_
  _space_group_symop_operation_xyz
  'x, y, z'

loop_
  _atom_site_type_symbol
  _atom_site_label
  _atom_site_symmetry_multiplicity
  _atom_site_fract_x
  _atom_site_fract_y
  _atom_site_fract_z
  _atom_site_occupancy
  Gd  Gd1       1.0  0.996724670542477  0.5503169072196669  0.6274912873678816  1.0000
  Gd  Gd2       1.0  0.0032746429920820423  0.44967639002455667  0.3725127871016199  1.0000
  P   P1        1.0  0.14895657115329905  0.7163047496051786  0.7305905210022632  1.0000
  P   P2        1.0  0.851047791010096  0.28369690950857057  0.2693987966946096  1.0000
  H   H1        1.0  0.504174533738329  0.6305666259977867  0.43753792759761734  1.0000
  H   H2        1.0  0.4958361177337949  0.3694217718393277  0.562455809005705  1.0000
  H   H3        1.0  0.9543000370799318  0.89284029638015  0.6106662051500255  1.0000
  H   H4        1.0  0.045698004052738404  0.10715969635707265  0.3893178866465875  1.0000
  H   H5        1.0  0.2635171331958902  0.6739783529526944  0.5375971936691503  1.0000
  H   H6        1.0  0.7364956468425347  0.3260016283997088  0.4623903420576668  1.0000
  H   H7        1.0  0.9603832212389349  0.8327841247911891  0.8922917602875775  1.0000
  H   H8        1.0  0.039636347922751725  0.16721426883848514  0.10770755696304243  1.0000
  H   H9        1.0  0.6624202991620011  0.6052915231775698  0.6904029270936719  1.0000
  H   H10       1.0  0.33757372592650364  0.39474870432717074  0.3095820092821669  1.0000
  H   H11       1.0  0.42369522795078757  0.6563064962757109  0.7890449750027033  1.0000
  H   H12       1.0  0.576293388577497  0.3437226726037608  0.21094012309016116  1.0000
  H   H13       1.0  0.19950825899875482  0.9085570831426679  0.7972955479453676  1.0000
  H   H14       1.0  0.8004864246398709  0.09144480052189861  0.2026985549616072  1.0000
  H   H15       1.0  0.2734008122408795  0.4042668548553507  0.03164379835995847  1.0000
  H   H16       1.0  0.7265943188047714  0.5957108046929703  0.9683417617777439  1.0000
  H   H17       1.0  0.9184849154653209  0.7474287180593178  0.07191700880640886  1.0000
  H   H18       1.0  0.08151551990619052  0.2525636610810905  0.9280800891127899  1.0000
  H   H19       1.0  0.8823374404869497  0.127388821377231  0.5517912657713211  1.0000
  H   H20       1.0  0.1176560678556485  0.8726056632631864  0.4481971102387591  1.0000
  H   H21       1.0  0.11695532571465607  0.1439092765494649  0.7431043543729178  1.0000
  H   H22       1.0  0.8830225569061554  0.856098618298155  0.25689474851402866  1.0000
  H   H23       1.0  0.3087348821184293  0.48167379968143825  0.8506441493218093  1.0000
  H   H24       1.0  0.6912670480259993  0.5183167173094815  0.14934610478466226  1.0000
  H   H25       1.0  0.6722772445966001  0.7912939050352819  0.7422036785057672  1.0000
  H   H26       1.0  0.3277355133594569  0.20871106803182463  0.25781644192357334  1.0000
  H   H27       1.0  0.6857886437476707  0.09289965054696837  0.5385473311544828  1.0000
  H   H28       1.0  0.3141859091743058  0.9071073527693155  0.46145892977019565  1.0000
  H   H29       1.0  0.5658184457730399  0.05720193410464699  0.49880884382914575  1.0000
  H   H30       1.0  0.4341562568161378  0.9427834957438462  0.5012133414892619  1.0000
  H   H31       1.0  0.7448086710914836  0.9479983493312645  0.49511071520903743  1.0000
  H   H32       1.0  0.2551740972949261  0.05199812622382889  0.5049024132166053  1.0000
  H   H33       1.0  0.4038726941772239  0.04765745694992061  0.6655025468785214  1.0000
  H   H34       1.0  0.5961385084277638  0.9523577206013979  0.3345336672863298  1.0000
  H   H35       1.0  0.5040266960410021  0.10634959669874886  0.7062197608584672  1.0000
  H   H36       1.0  0.4960053603451158  0.8936585781508413  0.29380387005894437  1.0000
  H   H37       1.0  0.48749485935541514  0.9602709571983749  0.7691739537364841  1.0000
  H   H38       1.0  0.5125277724169166  0.039739300780432495  0.23085468538171489  1.0000
  C   C1        1.0  0.13906662571146458  0.6633582309552253  0.8604948466941312  1.0000
  C   C2        1.0  0.8609410214241962  0.33663303283814366  0.13950096828923356  1.0000
  C   C3        1.0  0.4837339564177584  0.6382005863755181  0.5143005760924028  1.0000
  C   C4        1.0  0.5162827176295864  0.36179423482624873  0.48568557626223463  1.0000
  C   C5        1.0  0.08159728016006089  0.886864049596667  0.7066085679151545  1.0000
  C   C6        1.0  0.9183965505158583  0.11313227849809945  0.2933821032002514  1.0000
  C   C7        1.0  0.32834630742097914  0.6706402130757423  0.6689013616807744  1.0000
  C   C8        1.0  0.6716418329979419  0.3293730732870657  0.3310880993290723  1.0000
  C   C9        1.0  0.9894565941329744  0.9485354193652069  0.6391869264299218  1.0000
  C   C10       1.0  0.010541606651820206  0.051464538082576894  0.3608020003008577  1.0000
  C   C11       1.0  0.35041044269295435  0.6628278632509818  0.5698120455760293  1.0000
  C   C12       1.0  0.6496016966056289  0.3371661413045643  0.4301745600065914  1.0000
  C   C13       1.0  0.5961142137710805  0.6194567079218417  0.5567178249111749  1.0000
  C   C14       1.0  0.40388545987691055  0.3805571884963825  0.4432746021314459  1.0000
  C   C15       1.0  0.028657910820918158  0.7386613925500782  0.9226901176619651  1.0000
  C   C16       1.0  0.9713494754573162  0.2613354815328178  0.07730518712274655  1.0000
  C   C17       1.0  0.5743517389298987  0.624867978382042  0.6560975716680562  1.0000
  C   C18       1.0  0.42564885717351325  0.3751580639657703  0.34388915353228106  1.0000
  C   C19       1.0  0.4404153210454568  0.6518341634308057  0.7118133244793584  1.0000
  C   C20       1.0  0.5595935630441602  0.34818985554885973  0.2881637598250891  1.0000
  C   C21       1.0  0.12797423666901153  0.9565419025626408  0.7446739647366062  1.0000
  C   C22       1.0  0.8720195225555046  0.04345252662292858  0.255322009027168  1.0000
  C   C23       1.0  0.09458342499031866  0.5722606256920882  0.061794913278866694  1.0000
  C   C24       1.0  0.9054112288850077  0.4277216388687393  0.9382022136197891  1.0000
  C   C25       1.0  0.06475055216812114  0.5256651543602827  0.16978766861125655  1.0000
  C   C26       1.0  0.93525139080824  0.47433091242395875  0.8302103637551286  1.0000
  C   C27       1.0  0.20558253269927462  0.49773941737922184  0.9999996883102827  1.0000
  C   C28       1.0  0.7944025008740566  0.5022470775929831  0.9999928231436859  1.0000
  C   C29       1.0  0.005574823906648901  0.6923092120756422  0.02245588589103425  1.0000
  C   C30       1.0  0.994426892953939  0.30768221367150517  0.9775390704120357  1.0000
  C   C31       1.0  0.9959962175482175  0.14818380125002045  0.6439820058762535  1.0000
  C   C32       1.0  0.0039928016605159985  0.8518098566614682  0.35600820477156975  1.0000
  C   C33       1.0  0.9485917039167261  0.07846137366513517  0.6074846516726781  1.0000
  C   C34       1.0  0.05140596623867575  0.9215348716671911  0.3925031383718507  1.0000
  C   C35       1.0  0.0832838916026617  0.0870304072799755  0.7146267750360737  1.0000
  C   C36       1.0  0.916699400639331  0.9129680586637364  0.2853649622898898  1.0000
  C   C37       1.0  0.9632751018879586  0.28614180170852416  0.601587693120351  1.0000
  C   C38       1.0  0.036710782913452575  0.7138564741341538  0.3984229794641579  1.0000
  C   C39       1.0  0.7389675947789413  0.5878741541838153  0.4953361072017658  1.0000
  C   C40       1.0  0.2610473236380599  0.4121281394569749  0.5046563787669387  1.0000
  C   C41       1.0  0.22631435929816487  0.541784437367518  0.8993807540518478  1.0000
  C   C42       1.0  0.7736815671610985  0.4582090341185676  0.10061011303720582  1.0000
  C   C43       1.0  0.7070254067302387  0.8316852288534731  0.6660443492460575  1.0000
  C   C44       1.0  0.292979519561186  0.16831247616003248  0.333976985598838  1.0000
  C   C45       1.0  0.6568476401481718  0.015704602333514093  0.5359366877504146  1.0000
  C   C46       1.0  0.3431410376645515  0.9842870248585528  0.4640804396361276  1.0000
  C   C47       1.0  0.4977826614147033  0.0200407429480833  0.6970884743831506  1.0000
  C   C48       1.0  0.5022390509312727  0.9799592831343844  0.3029384918143237  1.0000
  N   N1        1.0  0.6224002216938302  0.9507079803963947  0.6342846605301278  1.0000
  N   N2        1.0  0.3776101042432742  0.04928585054787499  0.3657363963088188  1.0000
  O   O1        1.0  0.9402119405785427  0.5727989931020757  0.21420563290129024  1.0000
  O   O2        1.0  0.05979425936718741  0.4272165243205208  0.7857982363855173  1.0000
  O   O3        1.0  0.7560416259080681  0.5672494891971454  0.4099247965904882  1.0000
  O   O4        1.0  0.24397348690271775  0.43274251782758444  0.5900699584477211  1.0000
  O   O5        1.0  0.9263273114617689  0.32376466171523777  0.5179429364846584  1.0000
  O   O6        1.0  0.07366018411788389  0.6762541283336249  0.4820641748924929  1.0000
  O   O7        1.0  0.163651271001676  0.44092453674192456  0.21396618511059273  1.0000
  O   O8        1.0  0.8363472947022573  0.5590753400442594  0.7860337928982731  1.0000
  O   O9        1.0  0.9796953485824389  0.3509939716309701  0.6508204528790884  1.0000
  O   O10       1.0  0.020282066661515365  0.6489950709762267  0.3492093716962545  1.0000
  O   O11       1.0  0.8401871914147775  0.578875958466284  0.5311995739560518  1.0000
  O   O12       1.0  0.15981930715909706  0.4211256113734194  0.4687948649017459  1.0000
  O   O13       1.0  0.06810448531443578  0.6716752414134175  0.6879451609253737  1.0000
  O   O14       1.0  0.9319015966672736  0.32832259110408296  0.3120515947705869  1.0000
  O   O15       1.0  0.8160680198211026  0.7705669345808984  0.6150135572947805  1.0000
  O   O16       1.0  0.18392561129122947  0.2294245551290075  0.38500463101112115  1.0000
