data_image0
_chemical_formula_structural       Al6H80C90Cl6O34
_chemical_formula_sum              "Al6 H80 C90 Cl6 O34"
_cell_length_a       13.910921123171276
_cell_length_b       13.84310939951882
_cell_length_c       28.062247949179593
_cell_angle_alpha    90.17813990117
_cell_angle_beta     90.3302636172169
_cell_angle_gamma    60.1786626615203

_space_group_name_H-M_alt    "P 1"
_space_group_IT_number       1

loop_
  _space_group_symop_operation_xyz
  'x, y, z'

loop_
  _atom_site_type_symbol
  _atom_site_label
  _atom_site_symmetry_multiplicity
  _atom_site_fract_x
  _atom_site_fract_y
  _atom_site_fract_z
  _atom_site_occupancy
  Al  Al1       1.0  0.7465267641998494  0.7617657862655421  0.7513710161358272  1.0000
  Al  Al2       1.0  0.7513377136830643  0.5276330116214681  0.7519136111282233  1.0000
  Al  Al3       1.0  0.5300163361831453  0.7357066858427928  0.7492650134171012  1.0000
  Al  Al4       1.0  0.26080825902243987  0.51000143243769  0.2490028949218298  1.0000
  Al  Al5       1.0  0.253346445385681  0.281837967573054  0.2494662269359153  1.0000
  Al  Al6       1.0  0.47571350480658486  0.26597758766685337  0.2498024163232414  1.0000
  H   H1        1.0  0.6732767960632131  0.3786456144097843  0.043317095549838286  1.0000
  H   H2        1.0  0.3808379508271786  0.9528011708332187  0.051747219584598284  1.0000
  H   H3        1.0  0.9468949839351097  0.6602216134196511  0.047886500650839985  1.0000
  H   H4        1.0  0.33719964494030563  0.10591082943204812  0.948520255838687  1.0000
  H   H5        1.0  0.5521673365440948  0.3420591561361164  0.94220641072539  1.0000
  H   H6        1.0  0.11235028728457058  0.5383922911219088  0.9492243891249498  1.0000
  H   H7        1.0  0.4648045689102533  0.33853821861146827  0.5009737354594817  1.0000
  H   H8        1.0  0.3661548938689592  0.1814553618052202  0.4960154715976798  1.0000
  H   H9        1.0  0.20123649442326305  0.43890358013473474  0.5022005791161914  1.0000
  H   H10       1.0  0.5455908893248562  0.7940166794777355  0.49342373250412636  1.0000
  H   H11       1.0  0.6483460122800437  0.5422629356106726  0.5064268393301388  1.0000
  H   H12       1.0  0.8145244150370912  0.6319413430454405  0.5018821634850636  1.0000
  H   H13       1.0  0.6540730850572416  0.28861681913704024  0.5501720733200839  1.0000
  H   H14       1.0  0.30628622979418907  0.04603470407434428  0.5423979017361729  1.0000
  H   H15       1.0  0.059783015152731885  0.6325437072980976  0.5515764018798917  1.0000
  H   H16       1.0  0.3558568734020114  0.9390877655312764  0.44683887280609697  1.0000
  H   H17       1.0  0.7077481164836215  0.3501110307719771  0.4567182581918414  1.0000
  H   H18       1.0  0.9567757862123403  0.6888767504073386  0.4554971278775283  1.0000
  H   H19       1.0  0.6897679522872906  0.4077699935656726  0.9623227119899691  1.0000
  H   H20       1.0  0.3998103429979664  0.9044491155412475  0.9709375822951425  1.0000
  H   H21       1.0  0.9089951682493551  0.6777085664597706  0.9658190777452087  1.0000
  H   H22       1.0  0.318570819135509  0.15301992391604102  0.029426815062429088  1.0000
  H   H23       1.0  0.5350601029064492  0.3144656375079364  0.023256848836005893  1.0000
  H   H24       1.0  0.14883688464439623  0.5213758295258231  0.031352058975272684  1.0000
  H   H25       1.0  0.40899527192603813  0.4396485431746413  0.9393044947102845  1.0000
  H   H26       1.0  0.4364593019114197  0.14915238386822693  0.9424608435295166  1.0000
  H   H27       1.0  0.1569264512331259  0.3947409180540333  0.9459254861375184  1.0000
  H   H28       1.0  0.5228058498533272  0.8571767040511205  0.06095133810094918  1.0000
  H   H29       1.0  0.6257733474786205  0.520787911258303  0.05471989569670649  1.0000
  H   H30       1.0  0.8509301859553772  0.6134380291238274  0.055966963792805274  1.0000
  H   H31       1.0  0.392014409308494  0.41276997462884435  0.02036675648250249  1.0000
  H   H32       1.0  0.41723590462064664  0.1970600667690618  0.023208759288110087  1.0000
  H   H33       1.0  0.19357570765970425  0.37776478670633656  0.027917702773393685  1.0000
  H   H34       1.0  0.5420763460360407  0.8095367361484663  0.9801399258853958  1.0000
  H   H35       1.0  0.640947637561851  0.5501619823792226  0.973687047363931  1.0000
  H   H36       1.0  0.8141564887074751  0.6296124442158516  0.973914752064523  1.0000
  H   H37       1.0  0.4348555074439988  0.6895789623253422  0.9691470870050974  1.0000
  H   H38       1.0  0.6836735018303913  0.872455495343722  0.970986791488158  1.0000
  H   H39       1.0  0.8789895601600579  0.42335872376068556  0.9686531969491978  1.0000
  H   H40       1.0  0.6215775281626891  0.05989340733499661  0.03634188193369429  1.0000
  H   H41       1.0  0.32417287950244855  0.6165147635916385  0.03674709342303119  1.0000
  H   H42       1.0  0.05571284549256455  0.31012103007851277  0.03964301662706048  1.0000
  H   H43       1.0  0.34004684387604567  0.6439026789906351  0.9554213663452483  1.0000
  H   H44       1.0  0.6406343005837413  0.0113739278510678  0.9554731083779867  1.0000
  H   H45       1.0  0.019509284985140634  0.32708820347364315  0.9574595016213576  1.0000
  H   H46       1.0  0.6654729550804391  0.9206563537831302  0.051823323099199584  1.0000
  H   H47       1.0  0.4194089185432404  0.6615442729251841  0.050371145374903385  1.0000
  H   H48       1.0  0.9152087640397967  0.4065099224979536  0.05077233166392148  1.0000
  H   H49       1.0  0.42203479020306395  0.6056792446382175  0.46513594049685725  1.0000
  H   H50       1.0  0.6215894031008201  0.95041338947798  0.4556429597809667  1.0000
  H   H51       1.0  0.9745925438396058  0.4062362864544723  0.4596023014432688  1.0000
  H   H52       1.0  0.5930226384083284  0.012622865357336404  0.5346704716918393  1.0000
  H   H53       1.0  0.38973056461374966  0.5679128608674874  0.5426985867342535  1.0000
  H   H54       1.0  0.04032539215803146  0.3688536901860859  0.5393181744954558  1.0000
  H   H55       1.0  0.5145778175749882  0.642236052716143  0.526665146361246  1.0000
  H   H56       1.0  0.6526571727442203  0.8179127799557551  0.5144442943771208  1.0000
  H   H57       1.0  0.8454177894135527  0.4970844489786047  0.5203958184988051  1.0000
  H   H58       1.0  0.49978025962057154  0.1477230581181033  0.4756159511400852  1.0000
  H   H59       1.0  0.35944410470297344  0.4711356828818721  0.48107009188122135  1.0000
  H   H60       1.0  0.17120910263844982  0.3365507975062485  0.48006942510582445  1.0000
  H   H61       1.0  0.5645505721488461  0.3233706971263858  0.6163368969780334  1.0000
  H   H62       1.0  0.5104102944280626  0.26617487302460324  0.5726531146689735  1.0000
  H   H63       1.0  0.4432809768351476  0.31569875493387667  0.6282458582270604  1.0000
  H   H64       1.0  0.3486990914265676  0.09245894231708723  0.6090235217827453  1.0000
  H   H65       1.0  0.2976700093300479  0.20745347747952542  0.5675759990989275  1.0000
  H   H66       1.0  0.3534903055514463  0.2148512433431763  0.6236015864141675  1.0000
  H   H67       1.0  0.11480618226845951  0.5366053663468408  0.6168193647220334  1.0000
  H   H68       1.0  0.2261123553623605  0.4803083771024248  0.5738609871670162  1.0000
  H   H69       1.0  0.24057958927936346  0.4114119699778343  0.6288507198044042  1.0000
  H   H70       1.0  0.4418282459552998  0.8924428531304329  0.37926489586578765  1.0000
  H   H71       1.0  0.49645776749298404  0.7753747602420664  0.4199021506305057  1.0000
  H   H72       1.0  0.5615570322669258  0.7647024652423299  0.3643310164294532  1.0000
  H   H73       1.0  0.667722199722597  0.44479956323623787  0.3907237948904338  1.0000
  H   H74       1.0  0.7189883328922304  0.5022052831800607  0.4355202152905448  1.0000
  H   H75       1.0  0.6667597772279238  0.5719490429252333  0.38050300901360845  1.0000
  H   H76       1.0  0.8992582340068368  0.6584152715956505  0.3887201996594312  1.0000
  H   H77       1.0  0.7921282561234904  0.7073711056008491  0.43345590623307806  1.0000
  H   H78       1.0  0.771080940372137  0.6631171235272505  0.3770098019185679  1.0000
  H   H79       1.0  0.8505795175829363  0.8409402625560393  0.7244731908502968  1.0000
  H   H80       1.0  0.15520457952199956  0.6940305327412659  0.27521251378254147  1.0000
  C   C1        1.0  0.8748088879049551  0.5675535451671011  0.8176087887996314  1.0000
  C   C2        1.0  0.5776284300955793  0.5623149055033494  0.8156393129966941  1.0000
  C   C3        1.0  0.5515836235087477  0.8684739041264325  0.8174109889691291  1.0000
  C   C4        1.0  0.12835788580713364  0.44455780060032885  0.18439536770367934  1.0000
  C   C5        1.0  0.4232557532359992  0.14234138470047242  0.18400329445538685  1.0000
  C   C6        1.0  0.45318530720967953  0.4201659783798278  0.18173034502659385  1.0000
  C   C7        1.0  0.45011395818221445  0.4781800740315705  0.5432102569376693  1.0000
  C   C8        1.0  0.5026987029713155  0.047187324312318396  0.5357012284433009  1.0000
  C   C9        1.0  0.07175766476123616  0.4276815863501255  0.541324409659907  1.0000
  C   C10       1.0  0.5603876710647809  0.9221223658420217  0.4541224082254584  1.0000
  C   C11       1.0  0.5122451359070156  0.5491580779386496  0.4644553379001335  1.0000
  C   C12       1.0  0.9438442476034083  0.4964281682996159  0.46023770134015496  1.0000
  C   C13       1.0  0.4822804717982408  0.4141761487873694  0.3690002979262203  1.0000
  C   C14       1.0  0.42704326662425274  0.10387803608225712  0.362857519988509  1.0000
  C   C15       1.0  0.11505072099750896  0.4623847092418388  0.36890113285383547  1.0000
  C   C16       1.0  0.5319229104240007  0.878894234145932  0.6282360192623171  1.0000
  C   C17       1.0  0.5810197846807841  0.5207010158270222  0.6375636815527911  1.0000
  C   C18       1.0  0.8991722967113064  0.5612099286084629  0.6340799467541698  1.0000
  C   C19       1.0  0.5672214754203467  0.47060645209603535  0.5473411404820252  1.0000
  C   C20       1.0  0.4864656589812953  0.9417735691610645  0.5377840647557546  1.0000
  C   C21       1.0  0.9642980118883812  0.5465973787070197  0.5445155625062269  1.0000
  C   C22       1.0  0.4439307247978875  0.03285468875444761  0.4519933171450105  1.0000
  C   C23       1.0  0.527181020776922  0.4284117928074096  0.45995372855738725  1.0000
  C   C24       1.0  0.05201570130586216  0.5071260457395824  0.4589301744087562  1.0000
  C   C25       1.0  0.6456265823295766  0.3407878313575806  0.4766393059837595  1.0000
  C   C26       1.0  0.3523263213561023  0.0070921582674686  0.4680137439148593  1.0000
  C   C27       1.0  0.024270249684995863  0.6244548750849788  0.47659558116377077  1.0000
  C   C28       1.0  0.36695560581681236  0.9759339829942992  0.5212760536569545  1.0000
  C   C29       1.0  0.6587432156470002  0.3539875604006469  0.5304260645429719  1.0000
  C   C30       1.0  0.9922814608859982  0.6377605571565043  0.5296227008961905  1.0000
  C   C31       1.0  0.5042252505462199  0.4132076686877539  0.41100878426495757  1.0000
  C   C32       1.0  0.4281491067144074  0.07639249474496522  0.4040298698326054  1.0000
  C   C33       1.0  0.09271428666884428  0.4842733194947968  0.4106864524030625  1.0000
  C   C34       1.0  0.5103302113886058  0.9000494664914812  0.5862131754676124  1.0000
  C   C35       1.0  0.5814678496511477  0.49548861654122334  0.5960406286729805  1.0000
  C   C36       1.0  0.9231408874018925  0.560950370026845  0.592572280366525  1.0000
  C   C37       1.0  0.8642120015899194  0.5727446064227095  0.6827507918506013  1.0000
  C   C38       1.0  0.5886427738083101  0.5543646973377464  0.6850560343791655  1.0000
  C   C39       1.0  0.5598055524491627  0.8517653683032621  0.6777728776637557  1.0000
  C   C40       1.0  0.146639582232467  0.43991365349106104  0.3197800639174062  1.0000
  C   C41       1.0  0.41804874017920923  0.1453728193473509  0.3153640897333999  1.0000
  C   C42       1.0  0.4519900560156602  0.4133793714591362  0.31996992508875605  1.0000
  C   C43       1.0  0.6221541197128246  0.48258407065194586  0.9789137418004042  1.0000
  C   C44       1.0  0.4769066913862118  0.8965310775020189  0.9855050154138064  1.0000
  C   C45       1.0  0.8996662410901236  0.6101010082635412  0.981373033172694  1.0000
  C   C46       1.0  0.40267025261091766  0.1269727585144551  0.016814598310574493  1.0000
  C   C47       1.0  0.47485674654302557  0.3999179205010535  0.012355948892633296  1.0000
  C   C48       1.0  0.12478761873985184  0.4609577439356656  0.018933192236048092  1.0000
  C   C49       1.0  0.48596534185075757  0.41801946428022774  0.9587056618862914  1.0000
  C   C50       1.0  0.4151098789691972  0.09545475352165769  0.9633283968406228  1.0000
  C   C51       1.0  0.10063251981630829  0.4722195911495321  0.9647663578653929  1.0000
  C   C52       1.0  0.46447896560329127  0.9280799478515862  0.03897415685175789  1.0000
  C   C53       1.0  0.6115845403488508  0.4635675617313382  0.032444173871510884  1.0000
  C   C54       1.0  0.9240510777996463  0.5989389607685355  0.03547264134916619  1.0000
  C   C55       1.0  0.47759750049156924  0.44264433031211337  0.13461431727397866  1.0000
  C   C56       1.0  0.4528795853224708  0.08854072042721843  0.13835988658771464  1.0000
  C   C57       1.0  0.07436915529721229  0.463435684320693  0.13886692091686825  1.0000
  C   C58       1.0  0.5264801799501838  0.9153244601167503  0.8646957943918421  1.0000
  C   C59       1.0  0.5454653377634315  0.5393778642963839  0.8607971297699561  1.0000
  C   C60       1.0  0.9276621881747648  0.5338091781171669  0.8633874025181707  1.0000
  C   C61       1.0  0.5124080882711368  0.5136171064697878  0.9522241488557908  1.0000
  C   C62       1.0  0.5074480246245515  0.9726392289961295  0.9565069743939031  1.0000
  C   C63       1.0  0.9797132248852874  0.49971535329475364  0.9555014438464366  1.0000
  C   C64       1.0  0.4868647744723873  0.026040302206084196  0.047148921794267586  1.0000
  C   C65       1.0  0.49424620962317795  0.4823854510419708  0.04298940098584578  1.0000
  C   C66       1.0  0.02050210487634977  0.48055898017597093  0.04694213360237848  1.0000
  C   C67       1.0  0.4071525602735662  0.6027046243201754  0.028365177445905894  1.0000
  C   C68       1.0  0.6054753827531839  0.9908187279315896  0.02996450733577659  1.0000
  C   C69       1.0  0.9879943624940919  0.3937519750887972  0.03048723816695539  1.0000
  C   C70       1.0  0.617723710599137  0.9590299694518195  0.9764307215954982  1.0000
  C   C71       1.0  0.41753854336501905  0.6211208418153833  0.9746090993688408  1.0000
  C   C72       1.0  0.9640744738148687  0.4048826598821407  0.9762430300651415  1.0000
  C   C73       1.0  0.4850172923286493  0.4623199664651168  0.09303215172533898  1.0000
  C   C74       1.0  0.4714060402453982  0.0580702225737681  0.09704158133111918  1.0000
  C   C75       1.0  0.04663907475283921  0.4706826953870335  0.09731605762024736  1.0000
  C   C76       1.0  0.5177716970174159  0.942537239491742  0.9063901390931048  1.0000
  C   C77       1.0  0.5265716621324402  0.5288229410485956  0.9021449477965285  1.0000
  C   C78       1.0  0.9545875996719108  0.5141920363428057  0.9050238221785915  1.0000
  C   C79       1.0  0.5635706791460321  0.5580416566405121  0.5119406406396718  1.0000
  C   C80       1.0  0.5675593577589525  0.8588219044330571  0.500478906334578  1.0000
  C   C81       1.0  0.8821065608072303  0.5460726440603453  0.5072736641282345  1.0000
  C   C82       1.0  0.45023761509970933  0.1122509440585588  0.48931544840816327  1.0000
  C   C83       1.0  0.44394295057311695  0.42545857982781143  0.4955859232492868  1.0000
  C   C84       1.0  0.13401126484334475  0.4207740379874636  0.49507478698495777  1.0000
  C   C85       1.0  0.48900746676207535  0.33031745869191553  0.6001988559304222  1.0000
  C   C86       1.0  0.36168047294647465  0.1587337800204125  0.5943462204241496  1.0000
  C   C87       1.0  0.18146319497141417  0.4600580748089982  0.6006650482843696  1.0000
  C   C88       1.0  0.5174139945552555  0.8212267197402383  0.39389777964792205  1.0000
  C   C89       1.0  0.6558880273929759  0.5217321101424802  0.4077204537016853  1.0000
  C   C90       1.0  0.8333706205055976  0.6469012706748956  0.4045537819064931  1.0000
  Cl  Cl1       1.0  0.7952454209691807  0.3314411749874822  0.5432201699818079  1.0000
  Cl  Cl2       1.0  0.3347279957196604  0.8669757850717661  0.5315934806285154  1.0000
  Cl  Cl3       1.0  0.8779313314060533  0.7753673701310431  0.5406024959098301  1.0000
  Cl  Cl4       1.0  0.2157518214656804  0.12257139048512045  0.45709087442216384  1.0000
  Cl  Cl5       1.0  0.6756448252335119  0.2010757648853243  0.4639294774856565  1.0000
  Cl  Cl6       1.0  0.13832440254353873  0.6491862360767657  0.46769694727503697  1.0000
  O   O1        1.0  0.6379005417968814  0.8579541986705124  0.7980144603689252  1.0000
  O   O2        1.0  0.8663994691732101  0.4919578242949784  0.7935315061710991  1.0000
  O   O3        1.0  0.5044208326659926  0.645734361019592  0.7918768072277299  1.0000
  O   O4        1.0  0.3678912081922051  0.4963969821898004  0.20167465239564555  1.0000
  O   O5        1.0  0.13626544702237453  0.36156225571985356  0.20888603349143142  1.0000
  O   O6        1.0  0.49829540374868486  0.1505977396962237  0.20740258318484442  1.0000
  O   O7        1.0  0.8372686706520869  0.6676163470597845  0.8054629481288056  1.0000
  O   O8        1.0  0.678955572420719  0.5005567539257426  0.8035502334859782  1.0000
  O   O9        1.0  0.48553617547299394  0.8373570609586525  0.7994932704419921  1.0000
  O   O10       1.0  0.1673821152248038  0.5063315490487312  0.1959496159477822  1.0000
  O   O11       1.0  0.32253265459964814  0.18247493716268082  0.19706516596929183  1.0000
  O   O12       1.0  0.5185243272510506  0.322284100927412  0.19885927659717584  1.0000
  O   O13       1.0  0.6532967133021828  0.8338093862864187  0.6919778525714049  1.0000
  O   O14       1.0  0.8431081385086685  0.49829277616311896  0.6988386005041815  1.0000
  O   O15       1.0  0.5147880234278759  0.6518932305424914  0.6979740600141964  1.0000
  O   O16       1.0  0.3582865288503214  0.48939957005141826  0.3063028433422516  1.0000
  O   O17       1.0  0.16491169254110355  0.3452816470475356  0.3034455575521162  1.0000
  O   O18       1.0  0.4917768700399209  0.16848333086460343  0.30177903974514914  1.0000
  O   O19       1.0  0.8544441763593728  0.6562132243746889  0.7053793781911819  1.0000
  O   O20       1.0  0.6713123861230984  0.48579175707541106  0.7105111869685243  1.0000
  O   O21       1.0  0.48590174111588175  0.8463321059425514  0.7038154952120974  1.0000
  O   O22       1.0  0.15625503411045827  0.5132553937637354  0.2970071037908041  1.0000
  O   O23       1.0  0.3343932247409144  0.15977910634838113  0.2904435161719902  1.0000
  O   O24       1.0  0.5236767950519836  0.3320240405000945  0.2940010782851558  1.0000
  O   O25       1.0  0.6754010143454324  0.6742244761365938  0.7508329464280405  1.0000
  O   O26       1.0  0.33052643786142977  0.35120876586244526  0.24947947212164212  1.0000
  O   O27       1.0  0.4163734027634263  0.440495703143661  0.5830901883727291  1.0000
  O   O28       1.0  0.47180963677648435  0.11523901638932443  0.576769729056984  1.0000
  O   O29       1.0  0.14032070861929916  0.39104803262710425  0.5823083356535644  1.0000
  O   O30       1.0  0.5919204478022734  0.8550435361077577  0.41274042125041865  1.0000
  O   O31       1.0  0.5453263562831835  0.5882800464801435  0.4248472617584297  1.0000
  O   O32       1.0  0.8747043904687716  0.5344294161598953  0.4194401968019576  1.0000
  O   O33       1.0  0.8049206615567074  0.8481398989201665  0.7515954122150104  1.0000
  O   O34       1.0  0.2016772980403232  0.6548709676410314  0.24834735872345692  1.0000
