data_image0
_chemical_formula_structural       Cd4H20C40N12O16
_chemical_formula_sum              "Cd4 H20 C40 N12 O16"
_cell_length_a       7.480362232355445
_cell_length_b       12.129129998393754
_cell_length_c       13.179227453516068
_cell_angle_alpha    84.97875299018706
_cell_angle_beta     73.51549682692833
_cell_angle_gamma    72.01919718125552

_space_group_name_H-M_alt    "P 1"
_space_group_IT_number       1

loop_
  _space_group_symop_operation_xyz
  'x, y, z'

loop_
  _atom_site_type_symbol
  _atom_site_label
  _atom_site_symmetry_multiplicity
  _atom_site_fract_x
  _atom_site_fract_y
  _atom_site_fract_z
  _atom_site_occupancy
  Cd  Cd1       1.0  0.13465108844124465  0.985042619528983  0.6479581751740257  1.0000
  Cd  Cd2       1.0  0.7677224462637113  0.015061267698193603  0.3517489826297506  1.0000
  Cd  Cd3       1.0  0.8703429407233255  0.5148436206140375  0.1480838761817012  1.0000
  Cd  Cd4       1.0  0.5327837441130754  0.48506939052796844  0.8518880473615554  1.0000
  H   H1        1.0  0.7500905177792767  0.7765588367947135  0.9333142117151212  1.0000
  H   H2        1.0  0.45988489550419576  0.22405410866681316  0.06659121857200029  1.0000
  H   H3        1.0  0.2772861124736678  0.7235011344218666  0.4333814881474538  1.0000
  H   H4        1.0  0.4329543984886468  0.2763682122915442  0.5667707120140619  1.0000
  H   H5        1.0  0.5576128798303512  0.8716188228638376  0.6251972929217616  1.0000
  H   H6        1.0  0.05514555913143224  0.1278777331071339  0.3745408138680304  1.0000
  H   H7        1.0  0.180103519189629  0.6281468939368297  0.1255335982023595  1.0000
  H   H8        1.0  0.9328259975284036  0.37184878170824487  0.8745382476057345  1.0000
  H   H9        1.0  0.9138332452695577  0.8227802663065593  0.5437467289859441  1.0000
  H   H10       1.0  0.2802785514768613  0.17681000003935315  0.4564641073937921  1.0000
  H   H11       1.0  0.4872738660667579  0.6771366539220056  0.04373028232789271  1.0000
  H   H12       1.0  0.20724556715627054  0.32293298290287004  0.9561283138581729  1.0000
  H   H13       1.0  0.13390808545371868  0.6335474886453769  0.592883726088921  1.0000
  H   H14       1.0  0.3595539001796552  0.36619674883658615  0.40799415321119886  1.0000
  H   H15       1.0  0.5177003546064183  0.8665382797531794  0.09252972560230428  1.0000
  H   H16       1.0  0.47611474189642417  0.13355252420679886  0.9073850456757668  1.0000
  H   H17       1.0  0.9829256671440306  0.503084042459321  0.7198186009396181  1.0000
  H   H18       1.0  0.20500382692285501  0.49697496731722185  0.2810865858999421  1.0000
  H   H19       1.0  0.23586903223868894  0.9972874220565379  0.21924641601174244  1.0000
  H   H20       1.0  0.45211024653574555  0.0028566388808073007  0.780517240432694  1.0000
  C   C1        1.0  0.8591892157320589  0.8724080226645298  0.819587138795967  1.0000
  C   C2        1.0  0.551430985520092  0.12789850251763107  0.1800841548100607  1.0000
  C   C3        1.0  0.48263386927509094  0.6274347816886988  0.31980023918933403  1.0000
  C   C4        1.0  0.4287016413489722  0.3724401205718523  0.6802168838274625  1.0000
  C   C5        1.0  0.05561896233745502  0.7985814045882409  0.8211477178628783  1.0000
  C   C6        1.0  0.675594054342497  0.20164004176561431  0.1786327573066231  1.0000
  C   C7        1.0  0.6050828971202833  0.7013316317150213  0.3212265770968657  1.0000
  C   C8        1.0  0.6266552379595967  0.2984944139183484  0.6787067282648422  1.0000
  C   C9        1.0  0.11770196187233475  0.6983743022058989  0.8799298611102487  1.0000
  C   C10       1.0  0.6962152850469323  0.30189833590985427  0.119959983592409  1.0000
  C   C11       1.0  0.5665181908993875  0.8016759624030956  0.3798971152422581  1.0000
  C   C12       1.0  0.7474022594504529  0.19821173769092582  0.6199786364272413  1.0000
  C   C13       1.0  0.007215721929313259  0.6359751023308178  0.962111287195988  1.0000
  C   C14       1.0  0.605436494173965  0.364505219824821  0.03786380964900359  1.0000
  C   C15       1.0  0.39336399709256387  0.8641872501227255  0.46196614766149946  1.0000
  C   C16       1.0  0.7190630305863547  0.13572441148740216  0.5378685823558058  1.0000
  C   C17       1.0  0.3716067097368024  0.734585971897829  0.7713915935070332  1.0000
  C   C18       1.0  0.8781526084707566  0.26529694874080434  0.2283871148643116  1.0000
  C   C19       1.0  0.8568788136839769  0.7653931471695474  0.271548923399493  1.0000
  C   C20       1.0  0.8929331581053289  0.234492262674742  0.7284392761868332  1.0000
  C   C21       1.0  0.5794795709091218  0.7130371388046657  0.7168059560760511  1.0000
  C   C22       1.0  0.009715658828255863  0.2867455408631869  0.2831892374433238  1.0000
  C   C23       1.0  0.04313047364733075  0.7869684805269658  0.21684489438873564  1.0000
  C   C24       1.0  0.04599883773978745  0.2129373866591138  0.7831981959587041  1.0000
  C   C25       1.0  0.6538420920081264  0.7902079795854605  0.6448747778600606  1.0000
  C   C26       1.0  0.08916777541530498  0.20944352668681182  0.35512935070382673  1.0000
  C   C27       1.0  0.194700613036474  0.7096953971870976  0.1449636051329648  1.0000
  C   C28       1.0  0.04838490905627396  0.2902699652681946  0.8550221966922892  1.0000
  C   C29       1.0  0.8542931452157985  0.762182710990942  0.5983517857023132  1.0000
  C   C30       1.0  0.21479189354230496  0.2374600221428196  0.4018641419534888  1.0000
  C   C31       1.0  0.36703404630569736  0.7377483540659147  0.09830885321192542  1.0000
  C   C32       1.0  0.20222207050446867  0.26223162938820377  0.9016347789052048  1.0000
  C   C33       1.0  0.9762260605662902  0.6583357148133545  0.6254861942751759  1.0000
  C   C34       1.0  0.2595948752759935  0.3414517184006059  0.37510910265707764  1.0000
  C   C35       1.0  0.384875250161947  0.8417520551100143  0.125237593549798  1.0000
  C   C36       1.0  0.3511354145969038  0.1582772885027595  0.8747146521394953  1.0000
  C   C37       1.0  0.8917723481252934  0.5850828590862847  0.6971461645824706  1.0000
  C   C38       1.0  0.17355713861415015  0.414843725612741  0.3034883710043559  1.0000
  C   C39       1.0  0.2270213882242871  0.9151116373451202  0.1967932057543678  1.0000
  C   C40       1.0  0.33836938968122615  0.08492252789999102  0.8031063483991119  1.0000
  N   N1        1.0  0.21774654918835504  0.8204142754030671  0.7530771724138746  1.0000
  N   N2        1.0  0.791573078418736  0.17962274832017044  0.24670012722982904  1.0000
  N   N3        1.0  0.789157409061424  0.6794736523773752  0.25324178272715875  1.0000
  N   N4        1.0  0.7207466192764682  0.3203439122670986  0.7467756688185007  1.0000
  N   N5        1.0  0.3154223270938274  0.6610637278247751  0.8480076585118467  1.0000
  N   N6        1.0  0.825069889474605  0.3389287914296376  0.1518280497564746  1.0000
  N   N7        1.0  0.7269210639121937  0.839013832609702  0.34804301161810974  1.0000
  N   N8        1.0  0.9133063146466752  0.16094221040173556  0.6518520279861093  1.0000
  N   N9        1.0  0.6989244114114399  0.6109352176962659  0.7413295489177685  1.0000
  N   N10       1.0  0.0512096101049764  0.3889564239628316  0.2589752349446073  1.0000
  N   N11       1.0  0.06015949962048232  0.8892076102595469  0.24112958969445938  1.0000
  N   N12       1.0  0.18985748721281218  0.11077862695346855  0.7588075949520174  1.0000
  O   O1        1.0  0.8363868210677546  0.9544887558405437  0.7556948706083091  1.0000
  O   O2        1.0  0.5469318312617445  0.045688287803606904  0.24385336835199914  1.0000
  O   O3        1.0  0.541939502331708  0.5453080021187235  0.255928967821454  1.0000
  O   O4        1.0  0.34226207055017704  0.4546696874399103  0.7439555181558077  1.0000
  O   O5        1.0  0.7062756826965854  0.8497117019320726  0.8860585901693697  1.0000
  O   O6        1.0  0.44204024513843615  0.15081557033157372  0.11371806874571892  1.0000
  O   O7        1.0  0.30702198303526984  0.6501646218778775  0.38626483586900656  1.0000
  O   O8        1.0  0.3420661953697888  0.3496189918122568  0.6139056751703508  1.0000
  O   O9        1.0  0.8210396804091573  0.6766982619046403  0.9939559833378979  1.0000
  O   O10       1.0  0.49145150127854714  0.32400434075238144  0.006138332934334327  1.0000
  O   O11       1.0  0.2478838740812107  0.8235202322402344  0.49375802166186133  1.0000
  O   O12       1.0  0.5646239663794219  0.17643533857641813  0.5061137770073714  1.0000
  O   O13       1.0  0.10170518154146169  0.5441271490933632  0.001607144256908609  1.0000
  O   O14       1.0  0.6479011718041147  0.4562152656468542  0.9982934153647847  1.0000
  O   O15       1.0  0.39580012770488787  0.9560459922085445  0.5015208930460915  1.0000
  O   O16       1.0  0.8530137965491137  0.04385350368132631  0.4983687315818628  1.0000
