data_image0
_chemical_formula_structural       Zn2H36C30N12Cl4O2
_chemical_formula_sum              "Zn2 H36 C30 N12 Cl4 O2"
_cell_length_a       7.8696888207411035
_cell_length_b       8.884711276099475
_cell_length_c       13.856392542813806
_cell_angle_alpha    104.28556974396237
_cell_angle_beta     100.11297459076886
_cell_angle_gamma    106.75612989544952

_space_group_name_H-M_alt    "P 1"
_space_group_IT_number       1

loop_
  _space_group_symop_operation_xyz
  'x, y, z'

loop_
  _atom_site_type_symbol
  _atom_site_label
  _atom_site_symmetry_multiplicity
  _atom_site_fract_x
  _atom_site_fract_y
  _atom_site_fract_z
  _atom_site_occupancy
  Zn  Zn1       1.0  0.3475665817395636  0.4548947469233156  0.210308175704462  1.0000
  Zn  Zn2       1.0  0.6524355581564906  0.5451056230609054  0.7896918423288993  1.0000
  H   H1        1.0  0.2899816337065886  0.243959402811619  0.32848208659435574  1.0000
  H   H2        1.0  0.7100179290858436  0.7560409665708508  0.6715184011871145  1.0000
  H   H3        1.0  0.8605986525129481  0.5212644372218023  0.002642575377294053  1.0000
  H   H4        1.0  0.13940396495756602  0.478737171449751  0.9973576855700728  1.0000
  H   H5        1.0  0.41252162264882486  0.2861640249306702  0.9949864353902242  1.0000
  H   H6        1.0  0.5874801762260163  0.7138388203295706  0.005013219775598511  1.0000
  H   H7        1.0  0.2641457830966161  0.13769370117022817  0.4658173457947753  1.0000
  H   H8        1.0  0.7358524886045643  0.8623066673121045  0.5341830156708838  1.0000
  H   H9        1.0  0.13073516287801115  0.9366742690075968  0.3785715715651889  1.0000
  H   H10       1.0  0.8692652083523243  0.0633248613891482  0.621428077238356  1.0000
  H   H11       1.0  0.7927211273442155  0.8573145900134592  0.3173977071320024  1.0000
  H   H12       1.0  0.20727829889496263  0.14268206540565131  0.682602900602994  1.0000
  H   H13       1.0  0.5112670562315673  0.9168628530821297  0.34051058599158074  1.0000
  H   H14       1.0  0.48872965127184653  0.0831300865733553  0.6594898890653269  1.0000
  H   H15       1.0  0.539049861114826  0.1987436344208362  0.45035589613041777  1.0000
  H   H16       1.0  0.4609478015375216  0.8012517826093201  0.5496450647544933  1.0000
  H   H17       1.0  0.8444107430083321  0.4127192787013954  0.5353367375615434  1.0000
  H   H18       1.0  0.1555847997993141  0.5872773716202743  0.4646620464665503  1.0000
  H   H19       1.0  0.12868634114489202  0.35131232289716513  0.5128047979421737  1.0000
  H   H20       1.0  0.8713096741583327  0.6486855649133217  0.4871935066201942  1.0000
  H   H21       1.0  0.3440308490063232  0.0509383017840577  0.8405708885546446  1.0000
  H   H22       1.0  0.6559674125370876  0.9490620643012379  0.1594280281515452  1.0000
  H   H23       1.0  0.13313640658938652  0.8859865831269786  0.8188833366193364  1.0000
  H   H24       1.0  0.8668623376073797  0.11401502284417121  0.18111654538059702  1.0000
  H   H25       1.0  0.34777437805755085  0.8665998985807591  0.8696651301528249  1.0000
  H   H26       1.0  0.6522243661392153  0.13340170739039078  0.13033475184710847  1.0000
  H   H27       1.0  0.7283264250685663  0.41968658128553227  0.1134673729858733  1.0000
  H   H28       1.0  0.27167619240194807  0.5803150273860211  0.8865328879614935  1.0000
  H   H29       1.0  0.7872015800578042  0.622665877880671  0.1987671393299379  1.0000
  H   H30       1.0  0.21279974124257003  0.3773357286922377  0.8012322729218865  1.0000
  H   H31       1.0  0.09571095676093941  0.6255335715560765  0.2767629684401811  1.0000
  H   H32       1.0  0.9042899022016399  0.3744667999250453  0.7232383680368316  1.0000
  H   H33       1.0  0.9166979265450408  0.4580100855352925  0.2868301647456803  1.0000
  H   H34       1.0  0.0833029222597617  0.5419902835487918  0.7131697269718701  1.0000
  H   H35       1.0  0.9977358076402397  0.3299875790523289  0.10710445457733901  1.0000
  H   H36       1.0  0.002265996313489892  0.6700152674064271  0.892895922968215  1.0000
  C   C1        1.0  0.026798885188299062  0.7540912719962448  0.09529656824761902  1.0000
  C   C2        1.0  0.9732037272033267  0.24591033547679333  0.9047029703200168  1.0000
  C   C3        1.0  0.18743173581029285  0.9506667434619018  0.03805785182666445  1.0000
  C   C4        1.0  0.8125695905689696  0.04933486430952171  0.9619422828048909  1.0000
  C   C5        1.0  0.22994799943841573  0.07355288033079431  0.1329989024997502  1.0000
  C   C6        1.0  0.7700559142022385  0.926448730439418  0.8670022071431589  1.0000
  C   C7        1.0  0.16995548484438672  0.020099341312288705  0.21424646833639832  1.0000
  C   C8        1.0  0.8300479410640308  0.9799010283735472  0.7857529536330433  1.0000
  C   C9        1.0  0.34689189352794614  0.1945634120126485  0.02896615353474631  1.0000
  C   C10       1.0  0.6531094328513235  0.805438195758768  0.9710339810968092  1.0000
  C   C11       1.0  0.151327262529442  0.06878863887061469  0.39531785641397477  1.0000
  C   C12       1.0  0.8486705315972717  0.9312104909243859  0.604682262137672  1.0000
  C   C13       1.0  0.9786449528460182  0.1019170381570547  0.4112472419393285  1.0000
  C   C14       1.0  0.021353167065242887  0.8980796127663738  0.5887510723406564  1.0000
  C   C15       1.0  0.8043552752496765  0.9800077117568833  0.36415138235300754  1.0000
  C   C16       1.0  0.19564285481936136  0.0199889415635752  0.6358483766864466  1.0000
  C   C17       1.0  0.6457122944902736  0.013797659324779901  0.3774566324629446  1.0000
  C   C18       1.0  0.3542844079342515  0.9861952791321897  0.6225431202142246  1.0000
  C   C19       1.0  0.6607671817553467  0.1702389150588317  0.43847579109989704  1.0000
  C   C20       1.0  0.33922918980574934  0.829756501071188  0.561525043469203  1.0000
  C   C21       1.0  0.834187624443878  0.2918994499575192  0.4867241963878897  1.0000
  C   C22       1.0  0.1658069682937225  0.7080947241880013  0.5132748241919245  1.0000
  C   C23       1.0  0.9924882446948898  0.2578397494138898  0.4735207784255309  1.0000
  C   C24       1.0  0.007508589204008004  0.742156901807917  0.526478131918374  1.0000
  C   C25       1.0  0.2726943671543297  0.953355073731835  0.8694117848515431  1.0000
  C   C26       1.0  0.7273043770424296  0.04664653223931481  0.130588097148383  1.0000
  C   C27       1.0  0.8433588955755127  0.5361636615976908  0.15527226720217868  1.0000
  C   C28       1.0  0.156643716816113  0.46383794587534777  0.844727271365457  1.0000
  C   C29       1.0  0.9844229670375597  0.507678097595054  0.23247222786906718  1.0000
  C   C30       1.0  0.015578364420598192  0.49232351137488456  0.7675286291422195  1.0000
  N   N1        1.0  0.06711330747765497  0.8594075893374581  0.1912207086082489  1.0000
  N   N2        1.0  0.9328914146008956  0.14059278244702966  0.8087795620567417  1.0000
  N   N3        1.0  0.08607086891576195  0.7898920905582472  0.013741752394345504  1.0000
  N   N4        1.0  0.9139291663722561  0.21010951631303953  0.986258255921399  1.0000
  N   N5        1.0  0.21090290348070795  0.12177627341442593  0.3109686494842805  1.0000
  N   N6        1.0  0.7890997241475831  0.8782253376541648  0.6890330562225557  1.0000
  N   N7        1.0  0.3279489444553861  0.2257368509936128  0.1247494333426502  1.0000
  N   N8        1.0  0.6720536730151281  0.7742647576779403  0.8752508276047165  1.0000
  N   N9        1.0  0.9155883601609462  0.5962873238833879  0.07731726330949583  1.0000
  N   N10       1.0  0.08441425730957525  0.40371428478817256  0.9226829976378708  1.0000
  N   N11       1.0  0.2669586104229822  0.0298426092435378  0.9741357988462056  1.0000
  N   N12       1.0  0.7330414248650285  0.9701589976277492  0.025864209469531833  1.0000
  Cl  Cl1       1.0  0.4733098504117166  0.517186766447665  0.376407125856744  1.0000
  Cl  Cl2       1.0  0.5266909983930789  0.48281360263641915  0.6235927658608061  1.0000
  Cl  Cl3       1.0  0.4225715314842945  0.6443830979139165  0.13026117791916653  1.0000
  Cl  Cl4       1.0  0.5774315686395752  0.3556197506434912  0.8697400483219366  1.0000
  O   O1        1.0  0.06599545650934151  0.3936006689836091  0.18364697744125638  1.0000
  O   O2        1.0  0.9340076385356398  0.6064021783752763  0.8163535264201158  1.0000
