data_image0
_chemical_formula_structural       Zn16H96C96N64
_chemical_formula_sum              "Zn16 H96 C96 N64"
_cell_length_a       15.409083880000239
_cell_length_b       15.42977888000007
_cell_length_c       18.448995893000294
_cell_angle_alpha    89.99999200130321
_cell_angle_beta     90.00001885894854
_cell_angle_gamma    90.00000717892172

_space_group_name_H-M_alt    "P 1"
_space_group_IT_number       1

loop_
  _space_group_symop_operation_xyz
  'x, y, z'

loop_
  _atom_site_type_symbol
  _atom_site_label
  _atom_site_symmetry_multiplicity
  _atom_site_fract_x
  _atom_site_fract_y
  _atom_site_fract_z
  _atom_site_occupancy
  Zn  Zn1       1.0  0.2027999455022425  0.13858329959983706  0.40728939444552037  1.0000
  Zn  Zn2       1.0  0.29719960176127813  0.8614153980164544  0.9072894765759827  1.0000
  Zn  Zn3       1.0  0.7971999503033302  0.638583399078108  0.0927102670140201  1.0000
  Zn  Zn4       1.0  0.7027998702085014  0.3614167093805136  0.592710381504709  1.0000
  Zn  Zn5       1.0  0.7972000628694005  0.8614167515350672  0.5927103653246066  1.0000
  Zn  Zn6       1.0  0.7027997576424737  0.1385840050209879  0.09271028319408711  1.0000
  Zn  Zn7       1.0  0.2028000580683056  0.3614166520567962  0.9072894927561066  1.0000
  Zn  Zn8       1.0  0.2972007871309899  0.6385833417544334  0.4072893782654958  1.0000
  Zn  Zn9       1.0  0.5093068048582552  0.33620184223639166  0.3127693758416186  1.0000
  Zn  Zn10      1.0  0.9906931023399252  0.6637982294549118  0.8127689922046599  1.0000
  Zn  Zn11      1.0  0.4906931159301848  0.8362025359590605  0.18723080460141261  1.0000
  Zn  Zn12      1.0  0.0093069936151693  0.16379814271679294  0.6872314309623562  1.0000
  Zn  Zn13      1.0  0.4906932035134943  0.6637982088984699  0.6872309259634264  1.0000
  Zn  Zn14      1.0  0.0093069060317106  0.3362018216799996  0.1872307675654596  1.0000
  Zn  Zn15      1.0  0.5093068924415648  0.16379751517580837  0.8127694972036323  1.0000
  Zn  Zn16      1.0  0.9906930147565801  0.8362019084180687  0.3127688708426817  1.0000
  H   H1        1.0  0.31704359317258485  0.28708381992839094  0.3430620578022285  1.0000
  H   H2        1.0  0.1829565777580981  0.712916184613917  0.8430615837994964  1.0000
  H   H3        1.0  0.6829563214063654  0.7870838944892852  0.1569381283702569  1.0000
  H   H4        1.0  0.8170435244063371  0.21291620323817986  0.6569382916031827  1.0000
  H   H5        1.0  0.682956415199051  0.7129162312065205  0.6569377019678981  1.0000
  H   H6        1.0  0.8170434306135449  0.28708386652098744  0.1569381759706232  1.0000
  H   H7        1.0  0.3170436869652775  0.21291615664562616  0.8430616313998698  1.0000
  H   H8        1.0  0.18295713293329638  0.7870844959941505  0.3430620102019049  1.0000
  H   H9        1.0  0.3955524800284991  0.046174986232521996  0.4279165651951685  1.0000
  H   H10       1.0  0.1044483732962718  0.9538243560349072  0.9279165835342766  1.0000
  H   H11       1.0  0.6044467551271069  0.546175713319414  0.0720831070432908  1.0000
  H   H12       1.0  0.8955517593235172  0.4538243985855034  0.5720832637674534  1.0000
  H   H13       1.0  0.6044475283431013  0.9538244168049632  0.5720831945749866  1.0000
  H   H14       1.0  0.8955522840432195  0.04617569510003959  0.0720831762359282  1.0000
  H   H15       1.0  0.3955532532445361  0.4538243378154903  0.9279166527268289  1.0000
  H   H16       1.0  0.10444824904812582  0.5461756525494083  0.4279164960026663  1.0000
  H   H17       1.0  0.5410939004727596  0.13838306046854854  0.383708753848282  1.0000
  H   H18       1.0  0.9589060346702069  0.8616169993701986  0.8837088804291325  1.0000
  H   H19       1.0  0.4589053463396838  0.6383837620965522  0.116290907634486  1.0000
  H   H20       1.0  0.0410940862928157  0.36161692843190724  0.6162909776282177  1.0000
  H   H21       1.0  0.4589061078988763  0.8616169906663558  0.6162910059218449  1.0000
  H   H22       1.0  0.041093973701436  0.1383830517647127  0.11629087934098689  1.0000
  H   H23       1.0  0.5410946620319521  0.3616162890383521  0.8837088521356337  1.0000
  H   H24       1.0  0.9589059220788627  0.6383837708004308  0.3837087821418663  1.0000
  H   H25       1.0  0.054269401559878395  0.19282773959910318  0.5182666843037609  1.0000
  H   H26       1.0  0.44573064142640106  0.8071729673072454  0.0182665909979605  1.0000
  H   H27       1.0  0.9457300490972145  0.6928271444259763  0.9817337354770218  1.0000
  H   H28       1.0  0.5542692756921923  0.30717289903478934  0.481733592831212  1.0000
  H   H29       1.0  0.9457306068118  0.8071729596332345  0.48173307546632316  1.0000
  H   H30       1.0  0.5542693669453483  0.19282708382761632  0.9817337108070775  1.0000
  H   H31       1.0  0.054269959274535005  0.30717290670888536  0.018266566328016202  1.0000
  H   H32       1.0  0.44573073267945074  0.6928271521001151  0.5182661669389149  1.0000
  H   H33       1.0  0.2797857256218705  0.0434775872716457  0.5509676907072887  1.0000
  H   H34       1.0  0.22021368127819577  0.9565224660735724  0.050967517956934216  1.0000
  H   H35       1.0  0.7202137061545811  0.5434776176560163  0.9490327464945382  1.0000
  H   H36       1.0  0.7797862547210032  0.45652243126844644  0.44903264845122953  1.0000
  H   H37       1.0  0.720213633781917  0.9565224638632233  0.4490320690627385  1.0000
  H   H38       1.0  0.7797863270935536  0.043477585061289396  0.9490327838481037  1.0000
  H   H39       1.0  0.27978630221716827  0.45652243347884536  0.0509675553104998  1.0000
  H   H40       1.0  0.22021375365063992  0.543477619866458  0.5509671113188972  1.0000
  H   H41       1.0  0.18937284953387493  0.05759896564096321  0.6810414231394404  1.0000
  H   H42       1.0  0.3106266086051903  0.9424010659716445  0.18104073486749434  1.0000
  H   H43       1.0  0.8106265840277871  0.5575990289850525  0.8189590124151849  1.0000
  H   H44       1.0  0.6893733256087984  0.4424010416720209  0.31895943318787096  1.0000
  H   H45       1.0  0.8106265098699835  0.9424004373964295  0.31895887866554773  1.0000
  H   H46       1.0  0.6893727507986043  0.05759898516322439  0.8189590249025329  1.0000
  H   H47       1.0  0.18937342434385576  0.44240102214985194  0.18104074735493472  1.0000
  H   H48       1.0  0.31062668276295113  0.557599009462841  0.6810408686171741  1.0000
  H   H49       1.0  0.0579062465950813  0.990148960971233  0.4107263682780129  1.0000
  H   H50       1.0  0.44209330202228614  0.0098484398759453  0.9107265895901051  1.0000
  H   H51       1.0  0.9420930446872972  0.4901490064290003  0.0892737942076636  1.0000
  H   H52       1.0  0.5579067744708226  0.5098511026037897  0.5892738515343581  1.0000
  H   H53       1.0  0.9420931128088128  0.0098510901635862  0.5892739335269398  1.0000
  H   H54       1.0  0.5579067063494207  0.9901509631614902  0.0892737122149683  1.0000
  H   H55       1.0  0.0579069636843457  0.5098510447059043  0.9107259655624561  1.0000
  H   H56       1.0  0.4420938828686687  0.49014894853115715  0.4107259082358539  1.0000
  H   H57       1.0  0.24754234864162328  0.04595917517205811  0.253478325090704  1.0000
  H   H58       1.0  0.2524571380322271  0.9540414924351951  0.7534783841113821  1.0000
  H   H59       1.0  0.7524575354545107  0.5459592433957353  0.2465213471730578  1.0000
  H   H60       1.0  0.7475423456472255  0.4540408393641684  0.7465220051998925  1.0000
  H   H61       1.0  0.7524576597300197  0.9540408759628536  0.7465214346794227  1.0000
  H   H62       1.0  0.747542870339565  0.0459592067970931  0.2465219176936273  1.0000
  H   H63       1.0  0.24754247291713227  0.45404080773916883  0.7534784125970617  1.0000
  H   H64       1.0  0.2524576627245239  0.5459592117706933  0.2534782966051452  1.0000
  H   H65       1.0  0.1423343219780691  0.9113889436113424  0.20384520665835032  1.0000
  H   H66       1.0  0.3576657941121084  0.0886117322885696  0.7038459375980892  1.0000
  H   H67       1.0  0.857665608315351  0.41138829592222237  0.29615496501448757  1.0000
  H   H68       1.0  0.6423342923381129  0.5886117785449728  0.7961550363740315  1.0000
  H   H69       1.0  0.8576656863936734  0.0886111075235192  0.7961550951466876  1.0000
  H   H70       1.0  0.6423342142595345  0.9113883188463349  0.29615382217203035  1.0000
  H   H71       1.0  0.1423344000563915  0.5886117552126394  0.7038453367905504  1.0000
  H   H72       1.0  0.3576650670657884  0.41138827258985333  0.20384526543092107  1.0000
  H   H73       1.0  0.09574229078828721  0.17884700531764247  0.268673161358315  1.0000
  H   H74       1.0  0.40425849980668727  0.8211523635561306  0.7686727355944925  1.0000
  H   H75       1.0  0.9042576101074856  0.6788470949298712  0.23132703743954863  1.0000
  H   H76       1.0  0.5957416160408471  0.32115234227126876  0.7313271271828867  1.0000
  H   H77       1.0  0.9042577175834197  0.8211523977197928  0.7313271404467656  1.0000
  H   H78       1.0  0.595742157532804  0.1788476875788163  0.23132702417571946  1.0000
  H   H79       1.0  0.0957423982642567  0.32115295620499035  0.7686732643654963  1.0000
  H   H80       1.0  0.40425839233089533  0.6788477088635927  0.2686731746221582  1.0000
  H   H81       1.0  0.054725606089739594  0.4349925988424631  0.3396829674163797  1.0000
  H   H82       1.0  0.4452745635100753  0.5650074062643214  0.8396836668813705  1.0000
  H   H83       1.0  0.9452749761554244  0.9349927054123341  0.1603166594683145  1.0000
  H   H84       1.0  0.5547261689238425  0.06500739175073278  0.6603167678092774  1.0000
  H   H85       1.0  0.9452744022819034  0.5650074522924414  0.66031679235374  1.0000
  H   H86       1.0  0.5547260938295224  0.43499264487058287  0.1603166349237597  1.0000
  H   H87       1.0  0.05472568118416629  0.0650073457225702  0.8396836423368158  1.0000
  H   H88       1.0  0.44527383944789983  0.9349926593841289  0.3396835339957677  1.0000
  H   H89       1.0  0.14641893730122044  0.34409369101316406  0.44525458452385885  1.0000
  H   H90       1.0  0.3535812738857659  0.6559069445521997  0.9452552481675484  1.0000
  H   H91       1.0  0.8535803355168671  0.8440931557383139  0.054745052963681894  1.0000
  H   H92       1.0  0.6464188210717268  0.15590695906347918  0.5547451759199475  1.0000
  H   H93       1.0  0.8535810710704226  0.6559063601217403  0.554745175246268  1.0000
  H   H94       1.0  0.6464193834538251  0.3440931065827045  0.054745053637582  1.0000
  H   H95       1.0  0.14641967285473362  0.15590624729916408  0.9452547068064733  1.0000
  H   H96       1.0  0.3535811873000156  0.8440930920713825  0.44525512588509736  1.0000
  C   C1        1.0  0.35837440841733326  0.2337078131535719  0.35984075752573125  1.0000
  C   C2        1.0  0.14162576912297448  0.7662921885853179  0.8598408079646802  1.0000
  C   C3        1.0  0.6416254994137702  0.7337078853856128  0.1401588928379169  1.0000
  C   C4        1.0  0.8583736908213098  0.26629156704784407  0.6401590612118611  1.0000
  C   C5        1.0  0.6416255999543026  0.7662922379813396  0.6401590022443884  1.0000
  C   C6        1.0  0.8583742392487039  0.2337085106470198  0.1401589518054038  1.0000
  C   C7        1.0  0.35837450895786566  0.26629216574929154  0.8598408669322026  1.0000
  C   C8        1.0  0.1416263175503971  0.7337078359895911  0.3598412405932194  1.0000
  C   C9        1.0  0.4006851659661947  0.10992055536683411  0.40355263459561297  1.0000
  C   C10       1.0  0.0993150287930931  0.890078790971316  0.903552116923734  1.0000
  C   C11       1.0  0.5993140772481595  0.6099212777456201  0.0964475722421128  1.0000
  C   C12       1.0  0.900685095768047  0.39007883008853383  0.596447737813655  1.0000
  C   C13       1.0  0.5993148424054056  0.8900788476706437  0.5964471251745493  1.0000
  C   C14       1.0  0.9006856285463555  0.10992061206620461  0.0964476428465133  1.0000
  C   C15       1.0  0.40068593112359  0.39007877338924146  0.9035527295629323  1.0000
  C   C16       1.0  0.09931491260370251  0.6099212210463276  0.4035525639913828  1.0000
  C   C17       1.0  0.47291269007963166  0.15567364769326286  0.3814587565139433  1.0000
  C   C18       1.0  0.027088144944251304  0.8443263504337893  0.8814582243144004  1.0000
  C   C19       1.0  0.5270872078865878  0.6556737093143353  0.1185414449869953  1.0000
  C   C20       1.0  0.9729119738329146  0.34432639482837857  0.6185416357598257  1.0000
  C   C21       1.0  0.527087318292118  0.8443264034416061  0.6185415452910945  1.0000
  C   C22       1.0  0.97291251239524  0.15567370070115777  0.1185415354558117  1.0000
  C   C23       1.0  0.472912800485048  0.3443263418205689  0.8814583147831314  1.0000
  C   C24       1.0  0.0270880345388349  0.6556736563064829  0.3814586660452192  1.0000
  C   C25       1.0  0.10315680122567979  0.1533087035748579  0.5448291145515611  1.0000
  C   C26       1.0  0.39684325222394534  0.8466919988935472  0.0448279191207632  1.0000
  C   C27       1.0  0.8968432934034565  0.6533087548665718  0.9551718518739208  1.0000
  C   C28       1.0  0.6031566698904952  0.34669194112960616  0.4551717180637525  1.0000
  C   C29       1.0  0.8968432071461051  0.8466919956574375  0.45517118725344125  1.0000
  C   C30       1.0  0.6031567561476975  0.153308052241357  0.9551718406493563  1.0000
  C   C31       1.0  0.10315671496833549  0.34669194436571615  0.0448284499310816  1.0000
  C   C32       1.0  0.3968433384811476  0.6533081100053054  0.5448280417063672  1.0000
  C   C33       1.0  0.2191987408159051  0.07607882738099651  0.5632691629677922  1.0000
  C   C34       1.0  0.2808013198978543  0.923921223908941  0.0632690106834843  1.0000
  C   C35       1.0  0.780801344049806  0.5760788673441509  0.9367312704313235  1.0000
  C   C36       1.0  0.7191986119800333  0.42392118363559217  0.436731701562401  1.0000
  C   C37       1.0  0.7808012675558443  0.9239212237538651  0.4367311388372456  1.0000
  C   C38       1.0  0.7191986884738953  0.07607882722592049  0.9367312911215605  1.0000
  C   C39       1.0  0.21919866432183707  0.4239211837907604  0.063268489338796  1.0000
  C   C40       1.0  0.2808013963917091  0.5760788674992697  0.5632686002426368  1.0000
  C   C41       1.0  0.17443684559826522  0.08276653657701159  0.6276677831492776  1.0000
  C   C42       1.0  0.3255625915157339  0.9172328558557653  0.12766764395581023  1.0000
  C   C43       1.0  0.8255632401128564  0.5827659447607589  0.872332649469783  1.0000
  C   C44       1.0  0.6744373395165936  0.4172341169787614  0.37233252703524766  1.0000
  C   C45       1.0  0.8255631627734772  0.9172335145578502  0.3723325186557603  1.0000
  C   C46       1.0  0.6744367678880607  0.08276719527910362  0.8723321158142241  1.0000
  C   C47       1.0  0.17443676825888593  0.417234106374103  0.127667652335262  1.0000
  C   C48       1.0  0.3255626688550493  0.582765934156143  0.627667232734872  1.0000
  C   C49       1.0  0.0953601179844625  0.9870024544439886  0.3609518490077122  1.0000
  C   C50       1.0  0.4046394110255704  0.0129968990118172  0.8609515176168543  1.0000
  C   C51       1.0  0.9046398218679457  0.48700183883721576  0.13904831384512312  1.0000
  C   C52       1.0  0.5953606658653285  0.5129976137818845  0.6390483811055461  1.0000
  C   C53       1.0  0.9046398903871804  0.012997596690915702  0.6390479107624147  1.0000
  C   C54       1.0  0.5953605973460725  0.9870031521230873  0.13904824215326528  1.0000
  C   C55       1.0  0.09536018650376121  0.5129975642002194  0.8609519879599575  1.0000
  C   C56       1.0  0.40463999147416263  0.48700243735306253  0.3609513786646588  1.0000
  C   C57       1.0  0.19238852112639654  0.014291185042822004  0.2786379542023099  1.0000
  C   C58       1.0  0.307611624426336  0.9857088302633413  0.7786385667329724  1.0000
  C   C59       1.0  0.8076113589662625  0.5142906162214799  0.22136172175542873  1.0000
  C   C60       1.0  0.6923885122243973  0.4857094707421226  0.7213618188844535  1.0000
  C   C61       1.0  0.8076114872452466  0.9857088660920895  0.7213618055678099  1.0000
  C   C62       1.0  0.6923883839454136  0.0142912208715202  0.22136173507207246  1.0000
  C   C63       1.0  0.19238864940533773  0.4857087868159979  0.7786380380147335  1.0000
  C   C64       1.0  0.3076114961472456  0.5142905803927819  0.2786379408856732  1.0000
  C   C65       1.0  0.14002465760297866  0.947993481985783  0.2540121620916835  1.0000
  C   C66       1.0  0.3599754782490622  0.05200588933740141  0.754012897936498  1.0000
  C   C67       1.0  0.8599752773179931  0.44799349106276753  0.24598800531134657  1.0000
  C   C68       1.0  0.6400246035735719  0.5520072398837215  0.745988080305473  1.0000
  C   C69       1.0  0.8599753507686643  0.0520065691491212  0.745987597678436  1.0000
  C   C70       1.0  0.6400245301226447  0.9479935137000338  0.24598740386858253  1.0000
  C   C71       1.0  0.1400240820859011  0.5520065600720514  0.754012296493606  1.0000
  C   C72       1.0  0.3599754047981776  0.44799281125114027  0.2540122214995648  1.0000
  C   C73       1.0  0.09722194776890089  0.23653804320462507  0.3023920664567896  1.0000
  C   C74       1.0  0.40277820714104007  0.763461968132752  0.802392189050245  1.0000
  C   C75       1.0  0.9027779604201099  0.7365381382668517  0.1976081256116444  1.0000
  C   C76       1.0  0.5972225503811899  0.2634619526655797  0.6976076804565708  1.0000
  C   C77       1.0  0.9027774116348937  0.7634620079302438  0.6976076933132376  1.0000
  C   C78       1.0  0.5972230991662997  0.23653808300223741  0.19760757072005936  1.0000
  C   C79       1.0  0.0972226969194878  0.26346191286805265  0.8023921761934858  1.0000
  C   C80       1.0  0.4027774579904531  0.7365380984693316  0.3023920793135488  1.0000
  C   C81       1.0  0.07687292779851872  0.3682690256773212  0.3406440022653854  1.0000
  C   C82       1.0  0.42312789114764376  0.6317316273664061  0.8406441458213295  1.0000
  C   C83       1.0  0.9231269970437809  0.8682691296575201  0.15935617443717123  1.0000
  C   C84       1.0  0.5768728497213971  0.13173031956851838  0.6593562810862821  1.0000
  C   C85       1.0  0.9231270805731243  0.6317310254575831  0.6593557575047413  1.0000
  C   C86       1.0  0.5768727661920322  0.36826971996335095  0.1593561559837227  1.0000
  C   C87       1.0  0.07687301132781951  0.13173027337996504  0.8406435853329839  1.0000
  C   C88       1.0  0.42312715865035244  0.8682697315663431  0.3406440207187558  1.0000
  C   C89       1.0  0.1225083542673318  0.3232236605499565  0.392779639880807  1.0000
  C   C90       1.0  0.3774918362484385  0.6767769837829362  0.8927797656312677  1.0000
  C   C91       1.0  0.8774909159125387  0.8232237675741061  0.1072205420760142  1.0000
  C   C92       1.0  0.6225076123793656  0.1767769865575843  0.6072195719518946  1.0000
  C   C93       1.0  0.8774910051365693  0.6767763905848623  0.6072206619241456  1.0000
  C   C94       1.0  0.6225081721232044  0.32322306735196804  0.1072199941388519  1.0000
  C   C95       1.0  0.12250909245921092  0.17677628356075556  0.8927797597290237  1.0000
  C   C96       1.0  0.37749239599227735  0.8232230645773198  0.3927801878182251  1.0000
  N   N1        1.0  0.4453971018021435  0.2341738011196597  0.3537043921440386  1.0000
  N   N2        1.0  0.0546024243529502  0.7658262016444938  0.853703876668611  1.0000
  N   N3        1.0  0.5546028060880204  0.7341745096177449  0.1462958002001429  1.0000
  N   N4        1.0  0.9453970355324232  0.2658255898878324  0.646295992562287  1.0000
  N   N5        1.0  0.5546029065695635  0.7658256019177756  0.6462959096610419  1.0000
  N   N6        1.0  0.9453975840187282  0.23417449758784414  0.1462958831014731  1.0000
  N   N7        1.0  0.4453978512515704  0.2658255415171595  0.8537045016049873  1.0000
  N   N8        1.0  0.054602972839326504  0.7341744612470292  0.3537043092427581  1.0000
  N   N9        1.0  0.3283077292350285  0.1599523772515781  0.389601726971776  1.0000
  N   N10       1.0  0.17169181106098114  0.8400476195148202  0.8896017770765567  1.0000
  N   N11       1.0  0.6716915203042575  0.6599524581895296  0.1103984740299779  1.0000
  N   N12       1.0  0.8283076582075354  0.34004764731371756  0.6103986255315945  1.0000
  N   N13       1.0  0.6716922791367209  0.8400476738832837  0.610398574833269  1.0000
  N   N14       1.0  0.8283081973107683  0.15995243162004155  0.1103985247284882  1.0000
  N   N15       1.0  0.32830848806748486  0.34004759294533227  0.88960182777506  1.0000
  N   N16       1.0  0.1716923501642142  0.6599524038211441  0.3896016762734433  1.0000
  N   N17       1.0  0.10099704879362288  0.13180158440114545  0.6155251039282703  1.0000
  N   N18       1.0  0.3990036814727204  0.868198458157977  0.1155244486177978  1.0000
  N   N19       1.0  0.899003043116501  0.6318016477729458  0.8844753229710209  1.0000
  N   N20       1.0  0.6009968923284249  0.3681990600351668  0.3844751860581326  1.0000
  N   N21       1.0  0.8990029595780558  0.8681991148311923  0.3844746558418137  1.0000
  N   N22       1.0  0.6009963268988799  0.131800944879501  0.8844753111523644  1.0000
  N   N23       1.0  0.1009969652551845  0.3681990514593849  0.1155244367990633  1.0000
  N   N24       1.0  0.3990031160432109  0.6318009910997374  0.615524573711987  1.0000
  N   N25       1.0  0.17355942049749729  0.12101401596051178  0.5109530277301317  1.0000
  N   N26       1.0  0.32644061960771603  0.8789860440703735  0.0109528932394412  1.0000
  N   N27       1.0  0.8264400210809201  0.6210140528500006  0.9890468583924701  1.0000
  N   N28       1.0  0.6735593065894108  0.37898598938884487  0.4890472822130292  1.0000
  N   N29       1.0  0.8264405878741456  0.8789860351743999  0.4890467320399878  1.0000
  N   N30       1.0  0.6735593887640335  0.12101400706448832  0.9890474085656039  1.0000
  N   N31       1.0  0.1735599872907159  0.37898599828490387  0.0109529013776495  1.0000
  N   N32       1.0  0.32644070178223217  0.6210140617460667  0.5109524775570904  1.0000
  N   N33       1.0  0.07852977160113278  0.9311850669858899  0.3066572961524443  1.0000
  N   N34       1.0  0.4214703849889503  0.06881429554142218  0.8066575049145541  1.0000
  N   N35       1.0  0.9214701611948328  0.43118509249499937  0.1933423311763036  1.0000
  N   N36       1.0  0.5785303479261685  0.5688149991501205  0.693342387297072  1.0000
  N   N37       1.0  0.9214702367705029  0.06881498414901442  0.6933424636176824  1.0000
  N   N38       1.0  0.5785296233826926  0.9311857555934893  0.1933422548555725  1.0000
  N   N39       1.0  0.0785298471768101  0.5688149586399122  0.8066574285938232  1.0000
  N   N40       1.0  0.4214696604454673  0.43118505198479085  0.3066573724730475  1.0000
  N   N41       1.0  0.16366521909965573  0.0384807659701139  0.3465782317312645  1.0000
  N   N42       1.0  0.3363356021839365  0.9615185898873193  0.8465777709135622  1.0000
  N   N43       1.0  0.8363346640511651  0.5384808601643198  0.1534219834397348  1.0000
  N   N44       1.0  0.6636651803764266  0.46151923815062196  0.6534220754907238  1.0000
  N   N45       1.0  0.8363347892720939  0.9615192851647478  0.6534220700737734  1.0000
  N   N46       1.0  0.6636644061876994  0.038481461247585  0.1534219888565573  1.0000
  N   N47       1.0  0.1636653443204708  0.46151919097058425  0.8465777763303848  1.0000
  N   N48       1.0  0.3363354769630575  0.538480812984325  0.34657768427948804  1.0000
  N   N49       1.0  0.06117502975860838  0.31264282726938564  0.2834918414601546  1.0000
  N   N50       1.0  0.43882576667397893  0.6873578353232972  0.7834919828449003  1.0000
  N   N51       1.0  0.938825537019298  0.8126422755525341  0.2165083417310996  1.0000
  N   N52       1.0  0.5611749812271967  0.18735716412463432  0.7165078955391948  1.0000
  N   N53       1.0  0.9388249786130345  0.6873572238655185  0.7165079183099722  1.0000
  N   N54       1.0  0.5611755396333963  0.3126428639091189  0.2165077769253685  1.0000
  N   N55       1.0  0.061175120320257285  0.18735712748494393  0.7834919600740662  1.0000
  N   N56       1.0  0.4388250271445457  0.8126428870102277  0.2834924062658501  1.0000
  N   N57       1.0  0.13520864488776144  0.2396165028601587  0.3680362944724394  1.0000
  N   N58       1.0  0.3647915358809755  0.760383497509416  0.8680364069775592  1.0000
  N   N59       1.0  0.8647906147225797  0.7396166041731362  0.1319638972368153  1.0000
  N   N60       1.0  0.6352085722842631  0.2603841458244462  0.6319634628882156  1.0000
  N   N61       1.0  0.8647913634839881  0.7603835482747031  0.6319640073325985  1.0000
  N   N62       1.0  0.6352084724906604  0.2396165536254884  0.1319633527925603  1.0000
  N   N63       1.0  0.13520874468132152  0.26038344696168997  0.8680364045681374  1.0000
  N   N64       1.0  0.36479143608737996  0.7396159053104583  0.368036296881904  1.0000
