data_image0
_chemical_formula_structural       Li8H32C36O20
_chemical_formula_sum              "Li8 H32 C36 O20"
_cell_length_a       7.472235790128251
_cell_length_b       9.996481941451663
_cell_length_c       13.479329839830449
_cell_angle_alpha    106.678823562215
_cell_angle_beta     91.21153915727027
_cell_angle_gamma    103.51336168820558

_space_group_name_H-M_alt    "P 1"
_space_group_IT_number       1

loop_
  _space_group_symop_operation_xyz
  'x, y, z'

loop_
  _atom_site_type_symbol
  _atom_site_label
  _atom_site_symmetry_multiplicity
  _atom_site_fract_x
  _atom_site_fract_y
  _atom_site_fract_z
  _atom_site_occupancy
  Li  Li1       1.0  0.3202107243872375  0.6875748784227581  0.6121295043855497  1.0000
  Li  Li2       1.0  0.6797903243776418  0.31242487505788563  0.3878709671706346  1.0000
  Li  Li3       1.0  0.18432241598343066  0.36676271320126114  0.4955352526617958  1.0000
  Li  Li4       1.0  0.815679312023974  0.6332391959259239  0.5044649416269067  1.0000
  Li  Li5       1.0  0.8556972941194019  0.09948960306201116  0.5600808034151612  1.0000
  Li  Li6       1.0  0.1443017550884491  0.9005122994029264  0.4399208420870552  1.0000
  Li  Li7       1.0  0.4303326727603363  0.17101876564831994  0.5429269567901684  1.0000
  Li  Li8       1.0  0.5696666951071165  0.8289799027152114  0.4570725234514796  1.0000
  H   H1        1.0  0.01691218306860513  0.724645334755344  0.6947805249198282  1.0000
  H   H2        1.0  0.9830878632908195  0.2753554876696426  0.30521793583232437  1.0000
  H   H3        1.0  0.2969731840382721  0.2782592047248043  0.3298800978664715  1.0000
  H   H4        1.0  0.703028203972586  0.7217416257865634  0.6701198639449615  1.0000
  H   H5        1.0  0.14820591984334186  0.13437306046598954  0.33768821906267016  1.0000
  H   H6        1.0  0.8517961481606021  0.8656299272770126  0.6623122077032946  1.0000
  H   H7        1.0  0.47403505554468955  0.5068303889504832  0.8536754573555356  1.0000
  H   H8        1.0  0.5259663324661686  0.49317044156088485  0.14632450445589743  1.0000
  H   H9        1.0  0.6827720067977197  0.4665285420338137  0.9822228084887927  1.0000
  H   H10       1.0  0.31722602016885293  0.5334701198284222  0.017775912915581685  1.0000
  H   H11       1.0  0.9697110356819892  0.3903615288761556  0.9273508771134472  1.0000
  H   H12       1.0  0.030288332936017046  0.6096371410724614  0.07264934535021443  1.0000
  H   H13       1.0  0.043039208523296645  0.35404805482175306  0.7429927806361717  1.0000
  H   H14       1.0  0.9569642003815204  0.6459549394225519  0.2570084049670669  1.0000
  H   H15       1.0  0.07712660090225398  0.16223708198111095  0.8605472679296753  1.0000
  H   H16       1.0  0.9228731062111848  0.8377626634131515  0.13945170256722156  1.0000
  H   H17       1.0  0.2880416482087327  0.2078464094018315  0.020440175328381795  1.0000
  H   H18       1.0  0.711955718600592  0.7921544047758147  0.979558994415278  1.0000
  H   H19       1.0  0.5924121654302182  0.1472682155873386  0.0019031751900157952  1.0000
  H   H20       1.0  0.4075858836238381  0.8527347605771992  0.9980986861742167  1.0000
  H   H21       1.0  0.6915332244213486  0.051197927695120896  0.8258836925118018  1.0000
  H   H22       1.0  0.308466826441389  0.9488029042403876  0.17411922157243248  1.0000
  H   H23       1.0  0.3141458306063852  0.8275238573514156  0.8389804109140115  1.0000
  H   H24       1.0  0.685853538011628  0.1724748125972084  0.1610198115496502  1.0000
  H   H25       1.0  0.21693479000111177  0.6452747531404484  0.8344278537405927  1.0000
  H   H26       1.0  0.7830632369654608  0.3547239087217874  0.1655708676637886  1.0000
  H   H27       1.0  0.004418579970561524  0.8818504567606665  0.8695608443102429  1.0000
  H   H28       1.0  0.9955814671394165  0.11815036724940595  0.1304383586639233  1.0000
  H   H29       1.0  0.07745039513407895  0.8123221545378952  0.9663162491261373  1.0000
  H   H30       1.0  0.9225462909316063  0.18767650082303786  0.0336817134409699  1.0000
  H   H31       1.0  0.9074264668628373  0.69829550926611  0.8638387765167864  1.0000
  H   H32       1.0  0.09257189934972837  0.30170422962684995  0.1361594351428437  1.0000
  C   C1        1.0  0.502175383226863  0.4762129069383648  0.6537601544943711  1.0000
  C   C2        1.0  0.4978263447805418  0.5237890021888206  0.3462400397943313  1.0000
  C   C3        1.0  0.6404932650743405  0.45345093640876394  0.7266452523853957  1.0000
  C   C4        1.0  0.3595111424831642  0.5465509809657545  0.27335423291179944  1.0000
  C   C5        1.0  0.5995545656044712  0.4734168102351505  0.8301458446270615  1.0000
  C   C6        1.0  0.4004485033038065  0.5265851053933304  0.1698551084989077  1.0000
  C   C7        1.0  0.7168566078852266  0.45089829758598654  0.9020971668617008  1.0000
  C   C8        1.0  0.28314309997876547  0.5491014493933546  0.09790254585720957  1.0000
  C   C9        1.0  0.8775400139530589  0.4081573711513967  0.8713127709132139  1.0000
  C   C10       1.0  0.12246037465456537  0.5918445346446717  0.12868814898224915  1.0000
  C   C11       1.0  0.919069116720067  0.3880675481492871  0.7687735405474285  1.0000
  C   C12       1.0  0.08093429218475727  0.6119354460950105  0.2312276450558031  1.0000
  C   C13       1.0  0.8021531404380439  0.4105677976041448  0.6956781183803215  1.0000
  C   C14       1.0  0.19784992546802727  0.5894341116839854  0.3043198658575932  1.0000
  C   C15       1.0  0.8510172726017231  0.3845805613952108  0.5854683774731981  1.0000
  C   C16       1.0  0.1489857948054548  0.6154213510630978  0.41453109120875103  1.0000
  C   C17       1.0  0.13700146161326643  0.05781846943146011  0.6613571607865865  1.0000
  C   C18       1.0  0.8629962268578736  0.9421791169851298  0.3386428125845524  1.0000
  C   C19       1.0  0.26630876524310304  0.08375644255562521  0.75524398253269  1.0000
  C   C20       1.0  0.7336906041254563  0.9162422289780847  0.2447569821529854  1.0000
  C   C21       1.0  0.2127967370058457  0.13910075143034106  0.8547952941169825  1.0000
  C   C22       1.0  0.787203311605239  0.8609000757499101  0.145205393301211  1.0000
  C   C23       1.0  0.3298630827043069  0.1634828345624229  0.9434228842902144  1.0000
  C   C24       1.0  0.6701339631937557  0.8365212089613718  0.056576224047979885  1.0000
  C   C25       1.0  0.50126266814668  0.13014782468736288  0.9329229450365446  1.0000
  C   C26       1.0  0.49873806045748376  0.8698551597245157  0.06707820733618064  1.0000
  C   C27       1.0  0.5564633148677485  0.07518244071560079  0.8344634295419056  1.0000
  C   C28       1.0  0.44353405419323616  0.9248183782173098  0.16553796686778813  1.0000
  C   C29       1.0  0.4405670705102764  0.052738456543501386  0.7452169820444823  1.0000
  C   C30       1.0  0.5594302787148705  0.9472580528423717  0.254783501071401  1.0000
  C   C31       1.0  0.5120459354249361  0.9981089428394225  0.6415769496987308  1.0000
  C   C32       1.0  0.4879534148583459  0.0018854207323286993  0.3584238439151406  1.0000
  C   C33       1.0  0.18599745756261396  0.7402601242705984  0.818617627722972  1.0000
  C   C34       1.0  0.8140005731567185  0.25973854551707376  0.1813848047914703  1.0000
  C   C35       1.0  0.03439570062053574  0.7857236428087403  0.8829948212077596  1.0000
  C   C36       1.0  0.9656023270965903  0.21427502063858125  0.1170046424186282  1.0000
  O   O1        1.0  0.4924675216740154  0.6053955149865826  0.6677487691402746  1.0000
  O   O2        1.0  0.5075321854394232  0.3946042304076726  0.33225020135662936  1.0000
  O   O3        1.0  0.3957415856070128  0.36593646776317706  0.5888476518520207  1.0000
  O   O4        1.0  0.604258123758086  0.63406328238635  0.4111535453109241  1.0000
  O   O5        1.0  0.7845809350785089  0.44558939015183086  0.527836079814314  1.0000
  O   O6        1.0  0.21542145308614377  0.5544103666599368  0.47216366613510985  1.0000
  O   O7        1.0  0.9543115828815303  0.2982746556047856  0.5538489979584611  1.0000
  O   O8        1.0  0.04568912513625623  0.7017240176749622  0.44615049889844033  1.0000
  O   O9        1.0  0.2045621269432445  0.05141441128629509  0.5743040473518377  1.0000
  O   O10       1.0  0.7954335619708671  0.9485853241145888  0.4256970999653404  1.0000
  O   O11       1.0  0.965322237468527  0.044250548496186995  0.6721604352817963  1.0000
  O   O12       1.0  0.03467513159245058  0.9557502704367306  0.3278409611278974  1.0000
  O   O13       1.0  0.6080972352617663  0.09299726300336887  0.6053104386785079  1.0000
  O   O14       1.0  0.39189909472432294  0.906996012120146  0.39469008922758064  1.0000
  O   O15       1.0  0.48356741915244317  0.8631413517497178  0.5988819318209266  1.0000
  O   O16       1.0  0.5164295900761714  0.1368540790203383  0.4011183188176873  1.0000
  O   O17       1.0  0.1368414651874587  0.702867126778706  0.7089288908537554  1.0000
  O   O18       1.0  0.8631585826730801  0.2971336988164595  0.2910710543424244  1.0000
  O   O19       1.0  0.17365683265563092  0.24031846076517385  0.35211269117725413  1.0000
  O   O20       1.0  0.8263445546046808  0.7596823681611081  0.6478865284121653  1.0000
