data_image0
_chemical_formula_structural       Cd2H18C12S2N10O12
_chemical_formula_sum              "Cd2 H18 C12 S2 N10 O12"
_cell_length_a       6.636242650378756
_cell_length_b       9.588308507051051
_cell_length_c       11.020258861695321
_cell_angle_alpha    108.36907743774692
_cell_angle_beta     108.58065149893666
_cell_angle_gamma    102.9755269752999

_space_group_name_H-M_alt    "P 1"
_space_group_IT_number       1

loop_
  _space_group_symop_operation_xyz
  'x, y, z'

loop_
  _atom_site_type_symbol
  _atom_site_label
  _atom_site_symmetry_multiplicity
  _atom_site_fract_x
  _atom_site_fract_y
  _atom_site_fract_z
  _atom_site_occupancy
  Cd  Cd1       1.0  0.018534489101348604  0.8188098145741662  0.6281266943624217  1.0000
  Cd  Cd2       1.0  0.9814667404056153  0.1811876659702918  0.3718779902604012  1.0000
  H   H1        1.0  0.8576700159474768  0.8611788872524853  0.14269176878452333  1.0000
  H   H2        1.0  0.1423260553348626  0.13881480020480552  0.8573037037089435  1.0000
  H   H3        1.0  0.7256510141251268  0.6510106457117998  0.9135692523029206  1.0000
  H   H4        1.0  0.2743318880816261  0.34898158385330175  0.08643069659715504  1.0000
  H   H5        1.0  0.6597363631726266  0.11979489378183669  0.8835541948336638  1.0000
  H   H6        1.0  0.34026814533415006  0.8802175123226234  0.11644236196011797  1.0000
  H   H7        1.0  0.6088428586199441  0.42435947090496734  0.6902149969907184  1.0000
  H   H8        1.0  0.39115214070682197  0.5756413846034147  0.3097949008425047  1.0000
  H   H9        1.0  0.7808951332857744  0.3347726428698081  0.12095487715676967  1.0000
  H   H10       1.0  0.2191060208339479  0.6652247993568494  0.8790479681700774  1.0000
  H   H11       1.0  0.0070719161647902285  0.5173721266620321  0.6419077735708001  1.0000
  H   H12       1.0  0.9929221942182023  0.4826239022739998  0.35809250540101795  1.0000
  H   H13       1.0  0.7742246193434994  0.49489460224096155  0.5218939252723659  1.0000
  H   H14       1.0  0.2257728124683922  0.5051024824041193  0.4780963475954677  1.0000
  H   H15       1.0  0.22552064383646814  0.0197105000727191  0.979003605551803  1.0000
  H   H16       1.0  0.7744770812848569  0.9802832608013929  0.020993095107222363  1.0000
  H   H17       1.0  0.9595165079277379  0.928670106131868  0.8726334170990313  1.0000
  H   H18       1.0  0.040492395915748595  0.07133091199645489  0.1273636233764677  1.0000
  C   C1        1.0  0.8403634685110006  0.640571105094061  0.17533812417305225  1.0000
  C   C2        1.0  0.15963072549877214  0.35942843920197026  0.8246649234874752  1.0000
  C   C3        1.0  0.768235869387489  0.5125255899960307  0.03849152079762766  1.0000
  C   C4        1.0  0.23176378990726929  0.4874753324915986  0.961514704348346  1.0000
  C   C5        1.0  0.7169866390211936  0.5366003193145019  0.9149497531925022  1.0000
  C   C6        1.0  0.28301674809277694  0.46339839258791216  0.08505565258465707  1.0000
  C   C7        1.0  0.6797913367724105  0.24028481965448378  0.8962704772800975  1.0000
  C   C8        1.0  0.320211395799049  0.7597126576711872  0.10373175691632495  1.0000
  C   C9        1.0  0.650280245355539  0.4079776121007228  0.7876309899722285  1.0000
  C   C10       1.0  0.34972566059849436  0.5920268895073661  0.21237188074881166  1.0000
  C   C11       1.0  0.7463455525211629  0.3597432000671716  0.02822499284980757  1.0000
  C   C12       1.0  0.25365551323630336  0.6402646158093431  0.9717778817112545  1.0000
  S   S1        1.0  0.5427751935698026  0.7923758608028492  0.6948971075327249  1.0000
  S   S2        1.0  0.4572352969649742  0.20762866946667913  0.30510025120508283  1.0000
  N   N1        1.0  0.9418386236770289  0.7742460355433635  0.39541021033903684  1.0000
  N   N2        1.0  0.0581705440218201  0.22575511669727888  0.6045932676723922  1.0000
  N   N3        1.0  0.8902868150603568  0.6293739663256375  0.29889821438096925  1.0000
  N   N4        1.0  0.1097018382771893  0.3706241614609809  0.7010998164981216  1.0000
  N   N5        1.0  0.8655272047521123  0.7924268480483788  0.20186087572535882  1.0000
  N   N6        1.0  0.13446865133619915  0.20757624670665814  0.7981443294934536  1.0000
  N   N7        1.0  0.6335018064613821  0.262299352813848  0.7771841084078019  1.0000
  N   N8        1.0  0.36648588527330606  0.7376999552915889  0.22281678553446227  1.0000
  N   N9        1.0  0.9281702279600665  0.8744884424879941  0.3388529913241315  1.0000
  N   N10       1.0  0.07184283481155522  0.1255175298874178  0.6611552046959089  1.0000
  O   O1        1.0  0.6764619900439044  0.8268932684814913  0.6149307160161754  1.0000
  O   O2        1.0  0.32354968001592965  0.17310671938044203  0.385068368153675  1.0000
  O   O3        1.0  0.9023305311835799  0.5724504475708655  0.6152584279264912  1.0000
  O   O4        1.0  0.09765795490039858  0.4275406494957679  0.3847340655751808  1.0000
  O   O5        1.0  0.11765405612555917  0.9761028237394385  0.8782698604484053  1.0000
  O   O6        1.0  0.8823426991533695  0.0238886404113003  0.12172877388105972  1.0000
  O   O7        1.0  0.7061366436467438  0.8521402703962763  0.8478923269662103  1.0000
  O   O8        1.0  0.2938610013518783  0.147867341169885  0.1521053323197705  1.0000
  O   O9        1.0  0.4149507234025549  0.6224499040863803  0.6401524673293579  1.0000
  O   O10       1.0  0.5850621269582561  0.3775568622110227  0.3598377483676387  1.0000
  O   O11       1.0  0.3879355163128578  0.8837720068619461  0.6887398410073543  1.0000
  O   O12       1.0  0.6120754779899328  0.1162336813487173  0.31125701071923106  1.0000
