data_image0
_chemical_formula_structural       Zn8H56C40N8O36
_chemical_formula_sum              "Zn8 H56 C40 N8 O36"
_cell_length_a       9.408627230000564
_cell_length_b       11.312314608001062
_cell_length_c       12.752275018000836
_cell_angle_alpha    90.00003625255904
_cell_angle_beta     90.0000202764217
_cell_angle_gamma    90.00003394859927

_space_group_name_H-M_alt    "P 1"
_space_group_IT_number       1

loop_
  _space_group_symop_operation_xyz
  'x, y, z'

loop_
  _atom_site_type_symbol
  _atom_site_label
  _atom_site_symmetry_multiplicity
  _atom_site_fract_x
  _atom_site_fract_y
  _atom_site_fract_z
  _atom_site_occupancy
  Zn  Zn1       1.0  0.39165458810941806  0.32171071251292466  0.42142376946611654  1.0000
  Zn  Zn2       1.0  0.8916554310716976  0.6782895532784253  0.5785755020569638  1.0000
  Zn  Zn3       1.0  0.39165465634135893  0.1782893138230577  0.9214239245405268  1.0000
  Zn  Zn4       1.0  0.8916542999854472  0.8217109519680293  0.0785753469824115  1.0000
  Zn  Zn5       1.0  0.9042554050037239  0.09833934191968302  0.7563506787741048  1.0000
  Zn  Zn6       1.0  0.4042548898608445  0.9016600460970282  0.2436493802305861  1.0000
  Zn  Zn7       1.0  0.9042543307999084  0.40166081965421796  0.2563505685889922  1.0000
  Zn  Zn8       1.0  0.40425490121079116  0.5983403363467231  0.7436487062422543  1.0000
  H   H1        1.0  0.4819090157826764  0.24096253530459677  0.6603270128252136  1.0000
  H   H2        1.0  0.9819087393823268  0.7590377750225985  0.3396738507408515  1.0000
  H   H3        1.0  0.4819078401059542  0.2590373493971398  0.1603268225615864  1.0000
  H   H4        1.0  0.9819077893497407  0.740962076936583  0.8396724726563533  1.0000
  H   H5        1.0  0.5562481780842815  0.10261861780813321  0.6290094345684949  1.0000
  H   H6        1.0  0.0562487834946452  0.8973814824794958  0.3709921014178477  1.0000
  H   H7        1.0  0.5562492265442104  0.3973812812458349  0.1290085378071026  1.0000
  H   H8        1.0  0.0562477350341553  0.6026188190409557  0.8709906456578338  1.0000
  H   H9        1.0  0.3528188821503946  0.060729660980165114  0.5073958018391097  1.0000
  H   H10       1.0  0.8528188069305144  0.939270585647968  0.4926042436616599  1.0000
  H   H11       1.0  0.3528188975592598  0.43927005097908284  0.007396496944466001  1.0000
  H   H12       1.0  0.8528187915213367  0.5607293116566581  0.9926035485560618  1.0000
  H   H13       1.0  0.30072949535831833  0.08476544826829982  0.6395643754051221  1.0000
  H   H14       1.0  0.8007304028464689  0.9152347726571223  0.3604364405939577  1.0000
  H   H15       1.0  0.30072949366647345  0.4152352162197489  0.1395642728415964  1.0000
  H   H16       1.0  0.800729341684132  0.5847658886975183  0.8604357589837832  1.0000
  H   H17       1.0  0.6191533028604681  0.39164700091386345  0.5855592377061214  1.0000
  H   H18       1.0  0.1191537233605473  0.6083540144057481  0.4144407464480437  1.0000
  H   H19       1.0  0.6191541456844831  0.10835378219163519  0.0855589628384337  1.0000
  H   H20       1.0  0.11915288053602777  0.8916463491353072  0.9144402371416831  1.0000
  H   H21       1.0  0.7307827273758392  0.3566338198922311  0.4787649647973851  1.0000
  H   H22       1.0  0.2307832237284516  0.6433663665179523  0.521235048663904  1.0000
  H   H23       1.0  0.7307827707607544  0.14336641467028244  0.9787643160898228  1.0000
  H   H24       1.0  0.23078318034334439  0.856633771739624  0.0212349131976595  1.0000
  H   H25       1.0  0.6712564065081496  0.06835769988060753  0.4794078985729584  1.0000
  H   H26       1.0  0.17125923336403304  0.9316424571574873  0.5205928834343112  1.0000
  H   H27       1.0  0.6712566549942593  0.4316425057674991  0.9794074117233579  1.0000
  H   H28       1.0  0.1712568591691195  0.5683576512697855  0.0205925861098279  1.0000
  H   H29       1.0  0.7200265601603206  0.18395913404354056  0.3941784392826335  1.0000
  H   H30       1.0  0.22002509400670087  0.8160410470588603  0.6058223555282609  1.0000
  H   H31       1.0  0.7200246006904151  0.3160419188904627  0.8941771033526252  1.0000
  H   H32       1.0  0.2200249277676107  0.6839582622108581  0.10582212311038573  1.0000
  H   H33       1.0  0.2262373025939226  0.26635693303985875  0.6925714290048431  1.0000
  H   H34       1.0  0.7262369927449797  0.7336432511272052  0.3074285832629755  1.0000
  H   H35       1.0  0.2262371717041844  0.23364284849377276  0.192572008656974  1.0000
  H   H36       1.0  0.7262371236349027  0.7663573356735754  0.8074287877846515  1.0000
  H   H37       1.0  0.0920328148283147  0.32177788952972003  0.6108095453582366  1.0000
  H   H38       1.0  0.5920335674043783  0.6782222284154005  0.3891912158492731  1.0000
  H   H39       1.0  0.09203477021647899  0.17822265147523814  0.1108085255461262  1.0000
  H   H40       1.0  0.5920337377246482  0.821777466470131  0.8891914514878608  1.0000
  H   H41       1.0  0.039729672198682  0.15553688593841739  0.5147529059766924  1.0000
  H   H42       1.0  0.5397305888706967  0.8444632061977588  0.4852470573252887  1.0000
  H   H43       1.0  0.03972962015503611  0.3444635607671174  0.0147543320247863  1.0000
  H   H44       1.0  0.5397295780604027  0.6555365313693572  0.9852471996246666  1.0000
  H   H45       1.0  0.16511030437590787  0.11011470139136044  0.4176251424226649  1.0000
  H   H46       1.0  0.6651102368410021  0.8898854526126957  0.5823740696230075  1.0000
  H   H47       1.0  0.16511052315309627  0.3898843264572918  0.917626984648905  1.0000
  H   H48       1.0  0.6651100180640553  0.6101149435552173  0.08237457991793211  1.0000
  H   H49       1.0  0.4138767944846435  0.5212304182155378  0.32704772700932233  1.0000
  H   H50       1.0  0.9138764776578086  0.4787698585412272  0.6729523345216606  1.0000
  H   H51       1.0  0.4138760136460817  0.978769144448954  0.8270472666198855  1.0000
  H   H52       1.0  0.9138761956415565  0.021230248314886103  0.1729520107368998  1.0000
  H   H53       1.0  0.5680778001038364  0.46330508298294143  0.3155674265112864  1.0000
  H   H54       1.0  0.0680782984091977  0.5366950231413696  0.6844325442332035  1.0000
  H   H55       1.0  0.5680788304492593  0.0366949549297502  0.8155675020850524  1.0000
  H   H56       1.0  0.0680783309180768  0.9633051511948166  0.18443246865957263  1.0000
  C   C1        1.0  0.4921113159339185  0.17533226853382192  0.5973484292592204  1.0000
  C   C2        1.0  0.9921121791233177  0.8246680468276467  0.402651652811727  1.0000
  C   C3        1.0  0.49211231266026806  0.3246675762975074  0.0973490600189919  1.0000
  C   C4        1.0  0.9921111823967763  0.6753327390636771  0.9026502378781558  1.0000
  C   C5        1.0  0.3455776944176918  0.12783796343352802  0.569476507204115  1.0000
  C   C6        1.0  0.8455786046932161  0.8721622796217118  0.4305235363956755  1.0000
  C   C7        1.0  0.34557872493501657  0.3721617892181258  0.0694771646304204  1.0000
  C   C8        1.0  0.8455775741758914  0.6278384538371213  0.9305228789693702  1.0000
  C   C9        1.0  0.6744610171797805  0.31849663047129445  0.5462580017630643  1.0000
  C   C10       1.0  0.17446150847123928  0.681503528147239  0.4537419969114396  1.0000
  C   C11       1.0  0.674460849193814  0.18150326790998147  0.046257767966622496  1.0000
  C   C12       1.0  0.1744616764570139  0.8184968907082747  0.9537414465340818  1.0000
  C   C13       1.0  0.7873021349201396  0.2717794555229958  0.6217472787971374  1.0000
  C   C14       1.0  0.2873015605858313  0.7282198747834554  0.37825196532865135  1.0000
  C   C15       1.0  0.787300937317994  0.22822055236485997  0.12174707123081421  1.0000
  C   C16       1.0  0.2873016953339729  0.7717796619337135  0.8782521728950884  1.0000
  C   C17       1.0  0.6293810264117354  0.14463826129885862  0.43629168627053627  1.0000
  C   C18       1.0  0.12938063099961994  0.8553618750749764  0.5637083005684786  1.0000
  C   C19       1.0  0.6293790949175105  0.3553618929424402  0.9362911565915084  1.0000
  C   C20       1.0  0.12937937393073176  0.6446382434303288  0.0637080460732875  1.0000
  C   C21       1.0  0.5237215819365916  0.10234005411069089  0.3539283176309027  1.0000
  C   C22       1.0  0.023718067343196505  0.8976591461326251  0.6460708572936582  1.0000
  C   C23       1.0  0.5237175548276839  0.3976591052735118  0.8539285958742298  1.0000
  C   C24       1.0  0.023717843035179  0.602340978961145  0.1460705790500185  1.0000
  C   C25       1.0  0.2072058285763489  0.3052490296530479  0.6146567125152417  1.0000
  C   C26       1.0  0.7072055282223673  0.6947502611306575  0.38534329475578494  1.0000
  C   C27       1.0  0.20720673287015498  0.1947506869344622  0.11465727033080242  1.0000
  C   C28       1.0  0.7072056867833753  0.8052494878421683  0.8853435211144145  1.0000
  C   C29       1.0  0.2834954270504609  0.4235122017116454  0.6136506607408735  1.0000
  C   C30       1.0  0.7834961058897605  0.576488010709383  0.3863493665597133  1.0000
  C   C31       1.0  0.2834951843486948  0.07648755180290581  0.11365115215525631  1.0000
  C   C32       1.0  0.7834952857372101  0.9235126606178597  0.8863488751451953  1.0000
  C   C33       1.0  0.13116383891235017  0.1844841063515972  0.4674303896055889  1.0000
  C   C34       1.0  0.6311647575624376  0.8155160309022804  0.5325695977016593  1.0000
  C   C35       1.0  0.1311629419231011  0.3155149402583389  0.9674314059018059  1.0000
  C   C36       1.0  0.6311645916971288  0.684483429011067  0.0325701497524093  1.0000
  C   C37       1.0  0.08780896607756011  0.28341165702978094  0.3924673169721872  1.0000
  C   C38       1.0  0.5878087872469421  0.7165884588305929  0.607532658952465  1.0000
  C   C39       1.0  0.08780906155844552  0.21658819872875062  0.8924682777240703  1.0000
  C   C40       1.0  0.5878086917662487  0.7834119171319076  0.1075324823743884  1.0000
  N   N1        1.0  0.5679374672592985  0.23274314107423077  0.508200440690004  1.0000
  N   N2        1.0  0.0679380377162815  0.7672578489732306  0.4917995300179001  1.0000
  N   N3        1.0  0.5679373602850717  0.2672575615998838  0.0082002550416789  1.0000
  N   N4        1.0  0.06793814469001089  0.7327425444549148  0.9917989314921769  1.0000
  N   N5        1.0  0.25213263119486845  0.22338247592664837  0.5310919982685149  1.0000
  N   N6        1.0  0.7521324289479948  0.7766168370259691  0.4689080207976701  1.0000
  N   N7        1.0  0.2521325308800257  0.27661631925312963  0.0310926020491706  1.0000
  N   N8        1.0  0.7521325292628376  0.7233829936994878  0.9689074170170145  1.0000
  O   O1        1.0  0.7960249429461258  0.15879374296822854  0.6339035105200496  1.0000
  O   O2        1.0  0.2960244431999755  0.8412064756348484  0.3660957358960957  1.0000
  O   O3        1.0  0.7960248885849737  0.34120627789216945  0.1339041505655914  1.0000
  O   O4        1.0  0.2960255604153089  0.6587930567190627  0.8660958800242469  1.0000
  O   O5        1.0  0.8657014942775093  0.3440582451853871  0.6686934424544901  1.0000
  O   O6        1.0  0.3657019089795668  0.6559420077994389  0.3313058222547625  1.0000
  O   O7        1.0  0.8657013081053504  0.1559418348626593  0.16869397847985823  1.0000
  O   O8        1.0  0.3657020951517254  0.8440584181221665  0.8313052862293944  1.0000
  O   O9        1.0  0.4233690209497993  0.1697797984963074  0.3255765195363978  1.0000
  O   O10       1.0  0.9233668291645285  0.8302204829441707  0.6744243286602369  1.0000
  O   O11       1.0  0.42336600871381347  0.3302201751464581  0.8255767599148031  1.0000
  O   O12       1.0  0.9233655899830923  0.6697801062926843  0.1744233041074779  1.0000
  O   O13       1.0  0.547264115156608  0.9991326442278922  0.3171868931077526  1.0000
  O   O14       1.0  0.04726210575311279  0.000867451625389  0.6828130721719532  1.0000
  O   O15       1.0  0.5472608685942504  0.5008669772243693  0.817186948564796  1.0000
  O   O16       1.0  0.047261100897735296  0.49913223463519774  0.1828122325403001  1.0000
  O   O17       1.0  0.37988461395763545  0.4458816296254398  0.5484732898491131  1.0000
  O   O18       1.0  0.8798853079715625  0.5541177463659251  0.45152676275739617  1.0000
  O   O19       1.0  0.37988541819471777  0.0541181249784941  0.0484729845301004  1.0000
  O   O20       1.0  0.8798845037346081  0.945882135004986  0.9515262839028509  1.0000
  O   O21       1.0  0.2447384880472541  0.4971558556935563  0.6857797669173636  1.0000
  O   O22       1.0  0.7447390800847202  0.5028443376030508  0.314220250207903  1.0000
  O   O23       1.0  0.24473819294971827  0.002843930126374501  0.18577943280936185  1.0000
  O   O24       1.0  0.7447393751822631  0.9971562631702255  0.8142205843159118  1.0000
  O   O25       1.0  0.18148577394700993  0.3544404569869216  0.360206438946797  1.0000
  O   O26       1.0  0.6814866228242591  0.6455597050980304  0.6397935615720415  1.0000
  O   O27       1.0  0.18148581889282414  0.14556030598508576  0.8602065756446962  1.0000
  O   O28       1.0  0.6814865778787577  0.8544407400922511  0.1397934248743908  1.0000
  O   O29       1.0  0.9571578885194398  0.2855608469812482  0.3643320598114599  1.0000
  O   O30       1.0  0.4571584900239358  0.7144385671401776  0.6356680130824799  1.0000
  O   O31       1.0  0.957157982470875  0.21443853369886776  0.8643322351827011  1.0000
  O   O32       1.0  0.45715839607250797  0.7855608804225584  0.1356678377112388  1.0000
  O   O33       1.0  0.46537949623221647  0.44350097745627454  0.3191338299271608  1.0000
  O   O34       1.0  0.9653792384831092  0.5564993247145151  0.680867029299229  1.0000
  O   O35       1.0  0.46537947781325073  0.056499012322909395  0.8191331324463533  1.0000
  O   O36       1.0  0.9653792569016987  0.943501289847326  0.1808661584324298  1.0000
