data_image0
_chemical_formula_structural       Cd4Cu4H48C24O48
_chemical_formula_sum              "Cd4 Cu4 H48 C24 O48"
_cell_length_a       6.686951268
_cell_length_b       13.369991605
_cell_length_c       13.958
_cell_angle_alpha    90.0
_cell_angle_beta     90.0
_cell_angle_gamma    90.0

_space_group_name_H-M_alt    "P 1"
_space_group_IT_number       1

loop_
  _space_group_symop_operation_xyz
  'x, y, z'

loop_
  _atom_site_type_symbol
  _atom_site_label
  _atom_site_symmetry_multiplicity
  _atom_site_fract_x
  _atom_site_fract_y
  _atom_site_fract_z
  _atom_site_occupancy
  Cd  Cd1       1.0  1.4954498084e-06  0.2500001569746715  0.7772374265654135  1.0000
  Cd  Cd2       1.0  0.500002148363194  0.7499997229803768  0.7227640063046294  1.0000
  Cd  Cd3       1.0  2.9908996168999995e-06  0.7500027147548849  0.2227625734345864  1.0000
  Cd  Cd4       1.0  0.500002148363194  0.2500001569746715  0.2772381430004316  1.0000
  Cu  Cu1       1.0  0.5000006529133856  0.49999059068220214  0.499994984954867  1.0000
  Cu  Cu2       1.0  1.1963598474599997e-05  0.9999968881805471  1.4328700359999998e-06  1.0000
  Cu  Cu3       1.0  0.9999938285777289  0.5000018098365899  3.582175097e-06  1.0000
  Cu  Cu4       1.0  0.5000036438130024  0.0  0.49999713425992093  1.0000
  H   H1        1.0  0.19122017624370358  0.3557930431475426  0.47909370970052817  1.0000
  H   H2        1.0  0.3087715039708314  0.8557903653223704  0.0209005588193136  1.0000
  H   H3        1.0  0.691220829157089  0.6442068368075127  0.0209034245593926  1.0000
  H   H4        1.0  0.8087676705347845  0.1442132543508023  0.4790951425705714  1.0000
  H   H5        1.0  0.8087601932857422  0.644204592976628  0.5208969766442166  1.0000
  H   H6        1.0  0.6912387745548043  0.1441997913655371  0.9790994411806864  1.0000
  H   H7        1.0  0.3087520631233076  0.3557952869784202  0.9791015904857403  1.0000
  H   H8        1.0  0.19122765349274565  0.8557963488713796  0.5209012752543316  1.0000
  H   H9        1.0  0.1004837590510732  0.4249927874206776  0.5589246310359641  1.0000
  H   H10       1.0  0.39950792116345457  0.9249901095955124  0.9410682046138417  1.0000
  H   H11       1.0  0.6004844119644659  0.5750085884216247  0.9410703539189028  1.0000
  H   H12       1.0  0.8995085740768402  0.0750105183031664  0.5589246310359641  1.0000
  H   H13       1.0  0.899501096827791  0.5750078404779941  0.4410653388737629  1.0000
  H   H14       1.0  0.6005038528119897  0.0749978032615246  0.0589296460810971  1.0000
  H   H15       1.0  0.3994944621151645  0.4249965271388092  0.0589325118211761  1.0000
  H   H16       1.0  0.100489740850314  0.9249938493136368  0.4410667717438059  1.0000
  H   H17       1.0  0.6397713739103636  0.3003988423222381  0.8917846396331868  1.0000
  H   H18       1.0  0.8602216121309424  0.8003961644970657  0.6082167932368563  1.0000
  H   H19       1.0  0.1397752073464034  0.699599541745563  0.6082153603668132  1.0000
  H   H20       1.0  0.3602134819685077  0.1996052113452293  0.8917853560682047  1.0000
  H   H21       1.0  0.3602239501171738  0.6996002896891866  0.10821822610689218  1.0000
  H   H22       1.0  0.1397722164467865  0.1995999757398508  0.3917810574580898  1.0000
  H   H23       1.0  0.8602216121309424  0.3003995902658616  0.3917781917180107  1.0000
  H   H24       1.0  0.6397653921111226  0.8004014001024515  0.1082139274967773  1.0000
  H   H25       1.0  0.8135157236800126  0.2991131272292193  0.9648545636910766  1.0000
  H   H26       1.0  0.6864757669114778  0.7991156850094397  0.5351483020490022  1.0000
  H   H27       1.0  0.3135225480156763  0.7008860047821982  0.5351461527439483  1.0000
  H   H28       1.0  0.18647212309847555  0.2008871867201165  0.9648552801260948  1.0000
  H   H29       1.0  0.1864796003475249  0.7008882486130759  0.0351490184840202  1.0000
  H   H30       1.0  0.3135165662164354  0.20088793466374  0.4648502650809547  1.0000
  H   H31       1.0  0.6864787578111018  0.2991161190037275  0.4648516979509977  1.0000
  H   H32       1.0  0.8135187145796293  0.7991119452913082  0.0351483020490022  1.0000
  H   H33       1.0  0.4120353042178024  0.3867010655464043  0.7304921908582926  1.0000
  H   H34       1.0  0.0879578714465339  0.8867043712702483  0.7695085255767324  1.0000
  H   H35       1.0  0.9120374525809964  0.613301806183145  0.7695099584467684  1.0000
  H   H36       1.0  0.5879824515568757  0.1132962566284306  0.7304900415532316  1.0000
  H   H37       1.0  0.5879839470066841  0.6132950746905124  0.2695049434016354  1.0000
  H   H38       1.0  0.9120284798821388  0.11330149223380909  0.2304964894684076  1.0000
  H   H39       1.0  0.0879743213944408  0.386709292926291  0.2304921908582926  1.0000
  H   H40       1.0  0.412030817868377  0.8867006315521166  0.2695070927066894  1.0000
  H   H41       1.0  0.6498237875299537  0.4039651003206473  0.7857314801547516  1.0000
  H   H42       1.0  0.8501647121619199  0.903963918382729  0.7142706691503091  1.0000
  H   H43       1.0  0.1498246300663766  0.5960362755216551  0.7142656541051764  1.0000
  H   H44       1.0  0.3501954636945328  0.0960389533468202  0.7857343458948305  1.0000
  H   H45       1.0  0.3501954636945328  0.5960355275780316  0.21425920619000036  1.0000
  H   H46       1.0  0.14981565736751887  0.0960374574595733  0.2857415102450176  1.0000
  H   H47       1.0  0.8501916302584931  0.4039673441515248  0.2857379280699206  1.0000
  H   H48       1.0  0.649814814831096  0.9039616745518515  0.21426207193007937  1.0000
  C   C1        1.0  0.6499823052097682  0.3513584853892695  0.639837369250607  1.0000
  C   C2        1.0  0.8500151671809703  0.8513565555077278  0.860166929359508  1.0000
  C   C3        1.0  0.1499891295454248  0.6486384027912777  0.860164063619429  1.0000
  C   C4        1.0  0.3500204960668185  0.148644072390951  0.6398416678607217  1.0000
  C   C5        1.0  0.3500249824162437  0.6486369069040236  0.360155466399199  1.0000
  C   C6        1.0  0.14998314774619095  0.1486410806164429  0.139842384295747  1.0000
  C   C7        1.0  0.850024139879821  0.3513644689382716  0.139842384295747  1.0000
  C   C8        1.0  0.6499823052097682  0.8513632870003605  0.3601619143143751  1.0000
  C   C9        1.0  0.5650661786757922  0.4158805902256972  0.7197356354778605  1.0000
  C   C10       1.0  0.9349283028153224  0.9158861397804117  0.7802643645221394  1.0000
  C   C11       1.0  0.0650640303125982  0.5841133061803419  0.7802629316520961  1.0000
  C   C12       1.0  0.4349515770988858  0.0841152360618835  0.7197363519128785  1.0000
  C   C13       1.0  0.4349560634483183  0.5841088185185868  0.2802572001719454  1.0000
  C   C14       1.0  0.0650535621639321  0.0841144881182601  0.2197442326980976  1.0000
  C   C15       1.0  0.9349447527632292  0.415894801154586  0.2197399340879755  1.0000
  C   C16       1.0  0.5650587014267429  0.9158838959495341  0.2802607823470424  1.0000
  C   C17       1.0  0.541100100028423  0.5269599419467994  0.7045787362086244  1.0000
  C   C18       1.0  0.9589018587117337  0.0269633677155952  0.7954226966614115  1.0000
  C   C19       1.0  0.04109047441617968  0.47303769417737124  0.7954226966614115  1.0000
  C   C20       1.0  0.4589116739470142  0.9730387560703306  0.7045801690786675  1.0000
  C   C21       1.0  0.4589086830473974  0.4730324585719856  0.2954148158761995  1.0000
  C   C22       1.0  0.0411024380146543  0.9730372601830837  0.20458088551368545  1.0000
  C   C23       1.0  0.9589078405109744  0.5269696652139402  0.20458231838372135  1.0000
  C   C24       1.0  0.541103090928047  0.0269618718283411  0.29541338300616354  1.0000
  O   O1        1.0  0.7478490270941833  0.2743741438572158  0.6619479868175944  1.0000
  O   O2        1.0  0.7521514361961719  0.7743744578065517  0.8380606104026354  1.0000
  O   O3        1.0  0.2478498696306062  0.725624988154209  0.8380563117925206  1.0000
  O   O4        1.0  0.2521642423310695  0.225623178317619  0.6619436882074794  1.0000
  O   O5        1.0  0.2521702241303103  0.7256175087179528  0.3380534460524416  1.0000
  O   O6        1.0  0.24783192423289074  0.2256291618666282  0.1619530018627344  1.0000
  O   O7        1.0  0.7521753633931212  0.2743771356317168  0.1619501361226554  1.0000
  O   O8        1.0  0.7478430452949423  0.7743759536937986  0.3380534460524416  1.0000
  O   O9        1.0  0.6090802574695857  0.37229342747968264  0.5518942541911471  1.0000
  O   O10       1.0  0.8909276830698118  0.872295985259896  0.9481100444189678  1.0000
  O   O11       1.0  0.10909605450409997  0.627702712757241  0.9481086115489319  1.0000
  O   O12       1.0  0.3909120756583349  0.1277001549770205  0.5518921048860861  1.0000
  O   O13       1.0  0.39090609385909386  0.6276937374337237  0.4481050293738348  1.0000
  O   O14       1.0  0.10909754995390838  0.1276986590897735  0.0518964034962011  1.0000
  O   O15       1.0  0.8909067467724796  0.3723009069159389  0.05189282132110409  1.0000
  O   O16       1.0  0.6090907256182518  0.8723019688089053  0.4481071786788959  1.0000
  O   O17       1.0  0.478877424353918  0.5620549527637522  0.6248022639346615  1.0000
  O   O18       1.0  0.021127714908899992  0.0620561347016633  0.8751977360653383  1.0000
  O   O19       1.0  0.9788735909178783  0.4379441792476726  0.8751984525003564  1.0000
  O   O20       1.0  0.5211223860230447  0.9379422493661309  0.6248051296747406  1.0000
  O   O21       1.0  0.5211178996736193  0.4379322121496543  0.3751898552801265  1.0000
  O   O22       1.0  0.978887049966161  0.9379392575916299  0.1248087118498376  1.0000
  O   O23       1.0  0.0211007968123269  0.5620661719181399  0.12480441323972258  1.0000
  O   O24       1.0  0.4788834061531588  0.0620621182506724  0.3751912881501624  1.0000
  O   O25       1.0  0.573564819943293  0.5851402327787767  0.7747779051440062  1.0000
  O   O26       1.0  0.9264206888489638  0.0851384229421868  0.7252235277260368  1.0000
  O   O27       1.0  0.07354921253180889  0.4148633868944032  0.7252185126808968  1.0000
  O   O28       1.0  0.4264484494819527  0.9148629529001083  0.774780770884078  1.0000
  O   O29       1.0  0.4264484494819527  0.41486114306352556  0.22521063189568474  1.0000
  O   O30       1.0  0.07354921253180889  0.9148629529001083  0.2747879352342721  1.0000
  O   O31       1.0  0.9264491023953452  0.5851439724969083  0.2747872187992542  1.0000
  O   O32       1.0  0.5735498654452016  0.0851361791113092  0.22521063189568474  1.0000
  O   O33       1.0  0.1565661178076923  0.4254729672285363  0.4943150881215104  1.0000
  O   O34       1.0  0.3434345351056933  0.9254695414597478  0.0056784639633207  1.0000
  O   O35       1.0  0.6565622843716524  0.5745284086137588  0.0056806132683746985  1.0000
  O   O36       1.0  0.8434292062198381  0.0745340782134321  0.4943143716864852  1.0000
  O   O37       1.0  0.8434232244206044  0.5745276606701353  0.5056748817882237  1.0000
  O   O38       1.0  0.6565951842674593  0.0745206152281668  0.9943229689067221  1.0000
  O   O39       1.0  0.3434135988083611  0.4254744631157905  0.9943236853417403  1.0000
  O   O40       1.0  0.1565676132575007  0.9254747770651264  0.5056770310932777  1.0000
  O   O41       1.0  0.7542615158774025  0.2592170662772801  0.9097857859292162  1.0000
  O   O42       1.0  0.7457239929148543  0.7592203720011241  0.5902170798108628  1.0000
  O   O43       1.0  0.2542698356628748  0.74077982190326  0.5902149305058015  1.0000
  O   O44       1.0  0.24571287185280255  0.2407795079539241  0.909786502364234  1.0000
  O   O45       1.0  0.24573530359994314  0.7407820657341375  0.0902170798108628  1.0000
  O   O46       1.0  0.2542608629640171  0.24078100384117818  0.4097814873191012  1.0000
  O   O47       1.0  0.7457284792642795  0.2592223018826658  0.4097807708840833  1.0000
  O   O48       1.0  0.7542585249777858  0.7592203720011241  0.0902185126808988  1.0000
