data_image0
_chemical_formula_structural       Cu2H10C12I2N2O2
_chemical_formula_sum              "Cu2 H10 C12 I2 N2 O2"
_cell_length_a       4.048173112419461
_cell_length_b       7.5658377086221975
_cell_length_c       12.099282751012348
_cell_angle_alpha    96.91238798094462
_cell_angle_beta     91.16799909021418
_cell_angle_gamma    100.17331546564645

_space_group_name_H-M_alt    "P 1"
_space_group_IT_number       1

loop_
  _space_group_symop_operation_xyz
  'x, y, z'

loop_
  _atom_site_type_symbol
  _atom_site_label
  _atom_site_symmetry_multiplicity
  _atom_site_fract_x
  _atom_site_fract_y
  _atom_site_fract_z
  _atom_site_occupancy
  Cu  Cu1       1.0  0.2755939652167783  0.08630827011485563  0.4581852727039645  1.0000
  Cu  Cu2       1.0  0.7244233529864986  0.9136996198787986  0.5418147398873215  1.0000
  H   H1        1.0  0.8914340255559099  0.9312326722003025  0.24765087152445628  1.0000
  H   H2        1.0  0.10859362177389191  0.06876976524925031  0.7523529807613369  1.0000
  H   H3        1.0  0.7395419993030928  0.037267978186662304  0.06971022837196018  1.0000
  H   H4        1.0  0.260451823127795  0.9627223726481662  0.9302923728939161  1.0000
  H   H5        1.0  0.009117233972475035  0.34981095106714133  0.0312548588950463  1.0000
  H   H6        1.0  0.9908576798897571  0.6501889464551881  0.9687474201750985  1.0000
  H   H7        1.0  0.5692241046781136  0.40420905457541073  0.3460790209695188  1.0000
  H   H8        1.0  0.4307693969995086  0.5958083977166597  0.6539197919905745  1.0000
  H   H9        1.0  0.6887209759079909  0.6422047575843169  0.23795811766348854  1.0000
  H   H10       1.0  0.31127582027261264  0.3577937127302918  0.7620401553153184  1.0000
  C   C1        1.0  0.008168850780975805  0.0636778851064079  0.22716171732935203  1.0000
  C   C2        1.0  0.9918500172948512  0.9363205151358331  0.7728409172486577  1.0000
  C   C3        1.0  0.9242357547030051  0.12479190486384084  0.12802927282697135  1.0000
  C   C4        1.0  0.07577145407178432  0.8752011118461173  0.8719703610085927  1.0000
  C   C5        1.0  0.0744737789745997  0.29697589061844815  0.10705340272338758  1.0000
  C   C6        1.0  0.9255428892019992  0.7030157398554382  0.8929445759680374  1.0000
  C   C7        1.0  0.31036918002068603  0.40073182344210084  0.1864492156852151  1.0000
  C   C8        1.0  0.6896524517580289  0.5992597907138234  0.813547987883176  1.0000
  C   C9        1.0  0.3842270854017471  0.32773527382492773  0.2829793547981366  1.0000
  C   C10       1.0  0.6157868747170807  0.6722631420282286  0.7170224023444048  1.0000
  C   C11       1.0  0.48380793128798427  0.5853137065835698  0.17377793304368788  1.0000
  C   C12       1.0  0.5161764800336073  0.4146915785645434  0.8262182321190678  1.0000
  I   I1        1.0  0.16825568741462157  0.7346881972350733  0.4368771782021169  1.0000
  I   I2        1.0  0.8317180609098002  0.2653225446993731  0.5631250626171178  1.0000
  N   N1        1.0  0.233394162001396  0.16334012132967504  0.3044692176880232  1.0000
  N   N2        1.0  0.7666112464978597  0.8366623883133716  0.6955352306740463  1.0000
  O   O1        1.0  0.41826958314037194  0.6732342982582367  0.09964791924733868  1.0000
  O   O2        1.0  0.5816909304865304  0.32675886763922807  0.9003454446494457  1.0000
