data_image0
_chemical_formula_structural       Zn8H16C80N8Cl32O26
_chemical_formula_sum              "Zn8 H16 C80 N8 Cl32 O26"
_cell_length_a       23.72250400529167
_cell_length_b       23.72412837210946
_cell_length_c       23.722413770228854
_cell_angle_alpha    67.1551601242394
_cell_angle_beta     72.19544028227659
_cell_angle_gamma    107.81514181168191

_space_group_name_H-M_alt    "P 1"
_space_group_IT_number       1

loop_
  _space_group_symop_operation_xyz
  'x, y, z'

loop_
  _atom_site_type_symbol
  _atom_site_label
  _atom_site_symmetry_multiplicity
  _atom_site_fract_x
  _atom_site_fract_y
  _atom_site_fract_z
  _atom_site_occupancy
  Zn  Zn1       1.0  0.05376510425275433  0.9535684600300979  0.4878244479946829  1.0000
  Zn  Zn2       1.0  0.05377235074293204  0.1001748715664732  0.458420077180591  1.0000
  Zn  Zn3       1.0  0.9462367070674209  0.9878089156571832  0.45356534473413024  1.0000
  Zn  Zn4       1.0  0.9462211126446364  0.9584280858674672  0.600178667894113  1.0000
  Zn  Zn5       1.0  0.9413857428230018  0.5415603398034745  0.012210996370782807  1.0000
  Zn  Zn6       1.0  0.058615388861660844  0.5121847042100143  0.041588287426904506  1.0000
  Zn  Zn7       1.0  0.9413938544120909  0.39981577549836783  0.04640783923716909  1.0000
  Zn  Zn8       1.0  0.05860751101260317  0.546419855371063  0.8998185762427581  1.0000
  H   H1        1.0  0.9151490969435374  0.8415202912714079  0.7501271034200839  1.0000
  H   H2        1.0  0.9085985638785773  0.8031589710676099  0.8315746781310834  1.0000
  H   H3        1.0  0.09158781660273976  0.6652595899840746  0.7498963054521752  1.0000
  H   H4        1.0  0.13468710456026406  0.740161615291697  0.6684696967270085  1.0000
  H   H5        1.0  0.9083416465937548  0.6584653792402833  0.9263713859283905  1.0000
  H   H6        1.0  0.8652576136058631  0.6968280397341927  0.894557150809767  1.0000
  H   H7        1.0  0.08484424451450676  0.834754023660224  0.5736612914378016  1.0000
  H   H8        1.0  0.09136682212316324  0.7598500250569769  0.6054645709145774  1.0000
  H   H9        1.0  0.9151400503832149  0.07366131606434574  0.33471608575604256  1.0000
  H   H10       1.0  0.9086090024081702  0.10547847529860392  0.259811051483595  1.0000
  H   H11       1.0  0.09161352319225118  0.42635857792281234  0.1585248660738969  1.0000
  H   H12       1.0  0.13471342831714145  0.3945539252902748  0.19686482630483945  1.0000
  H   H13       1.0  0.9083789050745921  0.24990615182152684  0.16524803683375922  1.0000
  H   H14       1.0  0.8652837626705933  0.16846976702655794  0.24014199974702413  1.0000
  H   H15       1.0  0.08485189731316478  0.2501069774330631  0.34152856848287877  1.0000
  H   H16       1.0  0.09139305688908916  0.3315451679093114  0.3031903929348373  1.0000
  C   C1        1.0  0.17534336680930102  0.08764730730824508  0.4123236484689342  1.0000
  C   C2        1.0  1.3813384925207466e-06  0.13930349189769228  0.36068809191095846  1.0000
  C   C3        1.0  0.9999950453950885  0.9090835045603778  0.40912597787752986  1.0000
  C   C4        1.0  0.8246553115283393  0.9123235504427213  0.5876277650824732  1.0000
  C   C5        1.0  5.4293203391525295e-06  0.8607192632212485  0.6393162312130087  1.0000
  C   C6        1.0  1.6852490532271632e-06  0.09091071505224589  0.59087588968314  1.0000
  C   C7        1.0  3.227020423686393e-05  0.5876608385898052  0.0876887823206118  1.0000
  C   C8        1.0  0.9999985639727174  0.36071029354112477  0.13931433832486556  1.0000
  C   C9        1.0  0.818206053589961  0.4090916705586309  0.0909051338857266  1.0000
  C   C10       1.0  1.5010104654301962e-05  0.41233652604077514  0.9123195114536599  1.0000
  C   C11       1.0  0.999977407206224  0.6392877006395707  0.8607127551941143  1.0000
  C   C12       1.0  0.18178767953248362  0.5908605461824905  0.9091457197045046  1.0000
  C   C13       1.0  0.9999845494822284  0.8046548706884876  0.6953703033002084  1.0000
  C   C14       1.0  0.9999776589255804  0.695342322430683  0.804664305723797  1.0000
  C   C15       1.0  0.9563494772749127  0.7772917253017156  0.7670364509709272  1.0000
  C   C16       1.0  0.04429055984137903  0.7233844808953264  0.7329954814075066  1.0000
  C   C17       1.0  0.9556636773120529  0.7226955210668745  0.8209428849344536  1.0000
  C   C18       1.0  0.0436188678950489  0.7766221386698219  0.6790889397455189  1.0000
  C   C19       1.0  0.9999974075713993  0.19535430437894508  0.30464890320423177  1.0000
  C   C20       1.0  0.9999927268261433  0.304656360996603  0.19536295092002823  1.0000
  C   C21       1.0  0.9563608454319168  0.1790842539129828  0.2766100028675423  1.0000
  C   C22       1.0  0.044304974288884705  0.32093278630189553  0.22272925656551473  1.0000
  C   C23       1.0  0.9556808131303426  0.23299613784912032  0.22338437474986966  1.0000
  C   C24       1.0  0.04362872202921865  0.2670197845830558  0.27731102145993  1.0000
  C   C25       1.0  3.314701372404406e-05  0.6257335122315764  0.12574693754005042  1.0000
  C   C26       1.0  0.9867233039785006  0.6822459254163743  0.10498470061750009  1.0000
  C   C27       1.0  0.9861595604923397  0.7174532194765106  0.14075205049079623  1.0000
  C   C28       1.0  0.9999978833277583  0.6972501458516192  0.19728811037049354  1.0000
  C   C29       1.0  0.0138495212292257  0.6407313318675775  0.21749275235723076  1.0000
  C   C30       1.0  0.013329163741510034  0.6049797138148563  0.18227119049942084  1.0000
  C   C31       1.0  0.9999788962353479  0.7329260436165582  0.2329739242510056  1.0000
  C   C32       1.0  0.9999889761400526  0.7637699684213075  0.26378315674352837  1.0000
  C   C33       1.0  0.9999937505240697  0.7994528460390953  0.29945690486717064  1.0000
  C   C34       1.0  0.9404445045426544  0.8000012457341724  0.3352222318222502  1.0000
  C   C35       1.0  0.9404356833632691  0.8350807209128702  0.3711314990551955  1.0000
  C   C36       1.0  0.9999893132307496  0.8710001074596079  0.3710401985026832  1.0000
  C   C37       1.0  0.05954556812328369  0.8710944819789858  0.33511639852712694  1.0000
  C   C38       1.0  0.05953983623688712  0.835205039259776  0.3000288960254736  1.0000
  C   C39       1.0  1.539639374937357e-05  0.37426143663731887  0.8742568603580098  1.0000
  C   C40       1.0  0.013322338975960801  0.40831710070582966  0.8044314249881308  1.0000
  C   C41       1.0  0.013857465588188303  0.37309225109790123  0.7686834471005141  1.0000
  C   C42       1.0  2.745139681840615e-06  0.30271879219422704  0.8027372330821123  1.0000
  C   C43       1.0  0.9861572092953921  0.2686809330906356  0.8731162464948808  1.0000
  C   C44       1.0  0.9867027467120693  0.30443888234172045  0.9083314672315765  1.0000
  C   C45       1.0  0.9999975586074046  0.26704004933876035  0.7670604642826433  1.0000
  C   C46       1.0  0.9999942414288655  0.23621585789074118  0.7362275325029657  1.0000
  C   C47       1.0  0.9999975585081416  0.20054364538270142  0.7005441947854151  1.0000
  C   C48       1.0  0.059545349611383434  0.22432462652859897  0.6404489475838772  1.0000
  C   C49       1.0  0.059553648259701254  0.18843714830388336  0.6053517733222549  1.0000
  C   C50       1.0  0.9999957004963705  0.12899218431584086  0.6289619311514656  1.0000
  C   C51       1.0  0.9404380133864906  0.10536445225772445  0.6884098113581698  1.0000
  C   C52       1.0  0.9404479669724566  0.1404537629654781  0.7243069881323193  1.0000
  C   C53       1.0  0.7420350356531814  0.3710082800813907  0.12898586595888156  1.0000
  C   C54       1.0  0.7062119117225409  0.39463741739775315  0.16491477286123774  1.0000
  C   C55       1.0  0.6352254893183727  0.35954832927652797  0.19998987910072688  1.0000
  C   C56       1.0  0.5989055944754542  0.2994462636817019  0.20054167551555208  1.0000
  C   C57       1.0  0.635226720328653  0.27567841257558007  0.1647585527814854  1.0000
  C   C58       1.0  0.7062115583895617  0.31156553254963626  0.12886620570714066  1.0000
  C   C59       1.0  0.5275457997012014  0.2637677658849143  0.23620995219336988  1.0000
  C   C60       1.0  0.46589233018517023  0.23295972681022192  0.26700573192729843  1.0000
  C   C61       1.0  0.3945347079356054  0.19728450677464338  0.3026880825340541  1.0000
  C   C62       1.0  0.35819278481689304  0.23131417392267645  0.2825038794168435  1.0000
  C   C63       1.0  0.2872207747448883  0.19555309482578306  0.31772115805541995  1.0000
  C   C64       1.0  0.2514744884819393  0.1257325834972391  0.37423238467861347  1.0000
  C   C65       1.0  0.28725391193043504  0.0916854575642034  0.3949700133342232  1.0000
  C   C66       1.0  0.35822530345910053  0.12691814061582102  0.3592024589781246  1.0000
  C   C67       1.0  0.25795942882017203  0.6289430358483797  0.8710499426660334  1.0000
  C   C68       1.0  0.2937955596575321  0.6648741157778699  0.8946717885636276  1.0000
  C   C69       1.0  0.3647834902620205  0.6999708626788884  0.8595675084782215  1.0000
  C   C70       1.0  0.40109268595071507  0.7005338207162877  0.7994602013235265  1.0000
  C   C71       1.0  0.3647602609290815  0.6647499535921069  0.7756912510536509  1.0000
  C   C72       1.0  0.29377437820346597  0.6288393455540342  0.8115926979997639  1.0000
  C   C73       1.0  0.47245731339248953  0.7362180972459171  0.763768378574447  1.0000
  C   C74       1.0  0.5340997447083778  0.7670243799217997  0.7329420757275572  1.0000
  C   C75       1.0  0.6054655682663823  0.8027026073776042  0.6972678569142018  1.0000
  C   C76       1.0  0.6418056105467403  0.7825068926567695  0.7313035530664109  1.0000
  C   C77       1.0  0.7127793728975365  0.8177330500696981  0.6955340412140317  1.0000
  C   C78       1.0  0.7485195353425312  0.8742388156905319  0.6257113791221088  1.0000
  C   C79       1.0  0.7127433439133884  0.8949899678398835  0.5916634969306003  1.0000
  C   C80       1.0  0.6417734608655011  0.8592227132228485  0.6268956168054133  1.0000
  N   N1        1.0  0.9112178702403569  0.7997912563839689  0.7894280202531831  1.0000
  N   N2        1.0  0.08916985810967788  0.7006441396865313  0.7106034014323085  1.0000
  N   N3        1.0  0.9107696142180616  0.7001938572958932  0.8885730770140864  1.0000
  N   N4        1.0  0.08874739719485103  0.7993650983957818  0.6114661779049654  1.0000
  N   N5        1.0  0.9112245361110568  0.1114641757409556  0.2993397275622272  1.0000
  N   N6        1.0  0.08919421334195489  0.3885562177726881  0.20024362604707596  1.0000
  N   N7        1.0  0.9107982487469927  0.21061445844638627  0.2006306575845754  1.0000
  N   N8        1.0  0.08876358847210508  0.2894054025441619  0.2998132459493092  1.0000
  Cl  Cl1       1.0  0.9736621990787313  0.7107575597150626  0.03396906918829493  1.0000
  Cl  Cl2       1.0  0.026407139638188214  0.5339842386470933  0.21078501130999427  1.0000
  Cl  Cl3       1.0  0.030631650777025003  0.6165591221032328  0.28588130997288624  1.0000
  Cl  Cl4       1.0  0.9693121569620405  0.7857847530583513  0.11661869559335952  1.0000
  Cl  Cl5       1.0  0.8686047547511964  0.756819995139871  0.3341753209209202  1.0000
  Cl  Cl6       1.0  0.13133967495272003  0.8341194084399955  0.25687786302550825  1.0000
  Cl  Cl7       1.0  0.1336935372846429  0.9173049767970127  0.3313495409667054  1.0000
  Cl  Cl8       1.0  0.8662861304142594  0.8313011648232371  0.4173479597515596  1.0000
  Cl  Cl9       1.0  0.02640391140018054  0.4923936515530655  0.7628389905415817  1.0000
  Cl  Cl10      1.0  0.9736259390346476  0.2628697951235351  0.9924010264185201  1.0000
  Cl  Cl11      1.0  0.969328797949032  0.18350518638384716  0.9140981256163059  1.0000
  Cl  Cl12      1.0  0.03067902008504568  0.4140545658047328  0.6835046694902118  1.0000
  Cl  Cl13      1.0  0.13136945293871355  0.29719450034193057  0.6118253217704251  1.0000
  Cl  Cl14      1.0  0.8686002911724842  0.11182089886331413  0.797164197728648  1.0000
  Cl  Cl15      1.0  0.8662816733791133  0.03501484974312767  0.7163138729217735  1.0000
  Cl  Cl16      1.0  0.13370995401233898  0.21635580031805546  0.5350070359933027  1.0000
  Cl  Cl17      1.0  0.7486428403646883  0.4649769370871296  0.1687276439361086  1.0000
  Cl  Cl18      1.0  0.7486480375007718  0.28365420537730285  0.08262741586549534  1.0000
  Cl  Cl19      1.0  0.5909980242373365  0.20283210799983212  0.1657544983963817  1.0000
  Cl  Cl20      1.0  0.59098917415637  0.3881862314195671  0.24315959450862581  1.0000
  Cl  Cl21      1.0  0.4023771988052405  0.316490007882642  0.21413985483286518  1.0000
  Cl  Cl22      1.0  0.40245188688147954  0.08596283749717767  0.3833399831648875  1.0000
  Cl  Cl23      1.0  0.2447828958736551  0.007603115396946678  0.4659678520585118  1.0000
  Cl  Cl24      1.0  0.244705788917024  0.23710463236797344  0.2892195952504224  1.0000
  Cl  Cl25      1.0  0.2513801690601414  0.6686658050284392  0.965034570503647  1.0000
  Cl  Cl26      1.0  0.25131712793609773  0.5826018024582282  0.7836841588514643  1.0000
  Cl  Cl27      1.0  0.4089723266079235  0.6657752318116293  0.7028252232722706  1.0000
  Cl  Cl28      1.0  0.4090358586540363  0.743145820683992  0.8882042249106803  1.0000
  Cl  Cl29      1.0  0.597624289957885  0.7141479901480848  0.8164696984711312  1.0000
  Cl  Cl30      1.0  0.5975461334225403  0.8833602456990022  0.5859437832060692  1.0000
  Cl  Cl31      1.0  0.755217108573966  0.9659927774229043  0.5075902699942816  1.0000
  Cl  Cl32      1.0  0.7552971045666937  0.7892413834317366  0.7370967923447296  1.0000
  O   O1        1.0  1.4062226228342342e-06  0.9999892598292914  0.4999953586271673  1.0000
  O   O2        1.0  0.14682789534643353  0.030279570686566608  0.41628468567393634  1.0000
  O   O3        1.0  0.04734356430358131  0.15513175139468416  0.3769159374212165  1.0000
  O   O4        1.0  0.9799917463347116  0.9541233766591118  0.39294582605675976  1.0000
  O   O5        1.0  0.14683708976680523  0.11651559074864078  0.4368850298497406  1.0000
  O   O6        1.0  0.019996872842959732  0.8929281261139791  0.45415195626583227  1.0000
  O   O7        1.0  0.9526723005943295  0.07574038404276004  0.39217474364061633  1.0000
  O   O8        1.0  0.8531618514068812  0.9162835073730307  0.5302524069949043  1.0000
  O   O9        1.0  0.9526665450731785  0.8769478299719533  0.6551461528397908  1.0000
  O   O10       1.0  0.853163209401579  0.9368923914039153  0.6164941915382159  1.0000
  O   O11       1.0  0.04735248497732431  0.8922313505160558  0.5757684500917293  1.0000
  O   O12       1.0  0.020032706685796608  0.1270748014125402  0.5258427261051964  1.0000
  O   O13       1.0  0.9799601220767684  0.02586162601012606  0.6270637055824153  1.0000
  O   O14       1.0  3.888252017287301e-06  0.49999924305724613  4.957520737000664e-06  1.0000
  O   O15       1.0  0.946601071709587  0.563085498648803  0.08374314499199925  1.0000
  O   O16       1.0  0.032040423956530756  0.42425896536980195  0.12310831913828928  1.0000
  O   O17       1.0  0.8470763650973439  0.37292339535058244  0.10704366748248617  1.0000
  O   O18       1.0  0.053444281662777524  0.58370581019453  0.06313835586923489  1.0000
  O   O19       1.0  0.847070000630005  0.474133738373929  0.04589692744929858  1.0000
  O   O20       1.0  0.9679532631800286  0.3448767945026177  0.10779208534465559  1.0000
  O   O21       1.0  0.9465839707917781  0.3834637809618328  0.9696917039685997  1.0000
  O   O22       1.0  0.03204811212969366  0.6077986496904514  0.8448703956883392  1.0000
  O   O23       1.0  0.05342803471202023  0.46970695654478317  0.883468240527087  1.0000
  O   O24       1.0  0.9678996613377681  0.6230367454618959  0.9242824937607206  1.0000
  O   O25       1.0  0.15292493425540263  0.5458432185689901  0.9741726521281959  1.0000
  O   O26       1.0  0.15291938348853756  0.6070307188331155  0.8729631331214591  1.0000
