data_image0
_chemical_formula_structural       P4H48Au4C60Cl4
_chemical_formula_sum              "P4 H48 Au4 C60 Cl4"
_cell_length_a       10.951934030079101
_cell_length_b       10.951969631237148
_cell_length_c       11.68534261607842
_cell_angle_alpha    79.3225872390721
_cell_angle_beta     79.32294677688319
_cell_angle_gamma    74.80280858952256

_space_group_name_H-M_alt    "P 1"
_space_group_IT_number       1

loop_
  _space_group_symop_operation_xyz
  'x, y, z'

loop_
  _atom_site_type_symbol
  _atom_site_label
  _atom_site_symmetry_multiplicity
  _atom_site_fract_x
  _atom_site_fract_y
  _atom_site_fract_z
  _atom_site_occupancy
  P   P1        1.0  0.30557706100461957  0.031024013284096  0.2405231847884225  1.0000
  P   P2        1.0  0.9689756254228357  0.6944283770013014  0.2594810729256665  1.0000
  P   P3        1.0  0.6944291552328609  0.9689759402467287  0.7594757503418069  1.0000
  P   P4        1.0  0.03101893045027281  0.30556979472901696  0.740522008567183  1.0000
  H   H1        1.0  0.5347059099880836  0.8420867831229868  0.1801739914039261  1.0000
  H   H2        1.0  0.1579173631450814  0.46529472482739465  0.3198267400745465  1.0000
  H   H3        1.0  0.46529573253531703  0.15791704944159327  0.8198276369940134  1.0000
  H   H4        1.0  0.8420819801984506  0.5347023599210273  0.6801636897083158  1.0000
  H   H5        1.0  0.902003338658588  0.3669342367618568  0.2708344964697461  1.0000
  H   H6        1.0  0.6330671653344737  0.09800102924106109  0.22914993235463751  1.0000
  H   H7        1.0  0.09800021513161283  0.6330647025106301  0.729153123148713  1.0000
  H   H8        1.0  0.36693532594415507  0.9019989606515466  0.7708496708746966  1.0000
  H   H9        1.0  0.3066290806258394  0.18043247137704543  0.9997771739927402  1.0000
  H   H10       1.0  0.8195719588100302  0.6933753478080644  0.5002174359930295  1.0000
  H   H11       1.0  0.6933694689249207  0.8195685109682601  0.0002229634225371727  1.0000
  H   H12       1.0  0.18042279860555516  0.3066256037685662  0.4997739798433615  1.0000
  H   H13       1.0  0.3726114904110317  0.024709482642840896  0.4732675514331819  1.0000
  H   H14       1.0  0.9753053571256415  0.6273845057310367  0.026747024284404102  1.0000
  H   H15       1.0  0.6273770446355441  0.9753030821336353  0.5267374368648561  1.0000
  H   H16       1.0  0.024686569997300022  0.3726213604336692  0.9732602745704285  1.0000
  H   H17       1.0  0.35993143934268795  0.2823853822251792  0.14509113927252323  1.0000
  H   H18       1.0  0.7176059242969544  0.640081824142875  0.3549040195638114  1.0000
  H   H19       1.0  0.6400813932156667  0.7176096813834788  0.8548997808110529  1.0000
  H   H20       1.0  0.28238619516724134  0.35992306151984366  0.6450999987758339  1.0000
  H   H21       1.0  0.15186131664270872  0.98741332958339  0.08175383094494042  1.0000
  H   H22       1.0  0.012582746856153931  0.8481484500245813  0.4182450125773586  1.0000
  H   H23       1.0  0.8481449972376537  0.012581797658384604  0.9182382583120801  1.0000
  H   H24       1.0  0.9874154119051609  0.15185448722193937  0.5817608322612176  1.0000
  H   H25       1.0  0.8097071906360469  0.2867467933208587  0.12711923365976932  1.0000
  H   H26       1.0  0.7132495818809235  0.19029917197683222  0.3728699845846678  1.0000
  H   H27       1.0  0.19029513567360112  0.7132455294086951  0.8728766532819139  1.0000
  H   H28       1.0  0.2867508606839593  0.8097018227014273  0.6271340868165114  1.0000
  H   H29       1.0  0.481109049109719  0.3820056831084456  0.4385007812252583  1.0000
  H   H30       1.0  0.6180055831373963  0.518900916751832  0.061488861438235294  1.0000
  H   H31       1.0  0.5188928193839147  0.618000953713519  0.5614925959445856  1.0000
  H   H32       1.0  0.3819924472965752  0.48109438994824655  0.9385183887552347  1.0000
  H   H33       1.0  0.11929359497723621  0.2580892806064554  0.3176624647743084  1.0000
  H   H34       1.0  0.7419167867253265  0.8807066244207816  0.18233425610394957  1.0000
  H   H35       1.0  0.880707265899133  0.7419135378272017  0.6823300748835807  1.0000
  H   H36       1.0  0.25808475189848684  0.11928960200842909  0.8176721920772466  1.0000
  H   H37       1.0  0.45234754041975134  0.17607797314759918  0.5579674355617358  1.0000
  H   H38       1.0  0.8239450102009728  0.5476497931270216  0.9420349948383874  1.0000
  H   H39       1.0  0.5476451867526678  0.823936427844643  0.44203218175062636  1.0000
  H   H40       1.0  0.1760520828863434  0.45234551656073296  0.05797156877277133  1.0000
  H   H41       1.0  0.43148770284845744  0.4358619982828244  0.23196822526936967  1.0000
  H   H42       1.0  0.5641377545757962  0.5685259913342832  0.26801564871751543  1.0000
  H   H43       1.0  0.5685242443130323  0.5641368713811942  0.7680195983402669  1.0000
  H   H44       1.0  0.4358634970083912  0.4314673698098587  0.7319905146208683  1.0000
  H   H45       1.0  0.9334800268235169  0.09831913443524336  0.034305930881664955  1.0000
  H   H46       1.0  0.9016717479372927  0.06652757617887059  0.4656944738340627  1.0000
  H   H47       1.0  0.06652251625514083  0.9016722322033954  0.965690089973187  1.0000
  H   H48       1.0  0.09832124772254501  0.933469743080181  0.5343210261207787  1.0000
  Au  Au1       1.0  0.3028625651020749  0.8394164344145022  0.34804239903073864  1.0000
  Au  Au2       1.0  0.160583069077525  0.697142379061006  0.15196022457695346  1.0000
  Au  Au3       1.0  0.6971371629921066  0.16058361326328446  0.6519619733083815  1.0000
  Au  Au4       1.0  0.8394123997144759  0.3028557652705572  0.848040129069851  1.0000
  C   C1        1.0  0.5206254151186158  0.9122370323547029  0.10147130948072917  1.0000
  C   C2        1.0  0.08776305808642357  0.4793727841183112  0.39853203899956924  1.0000
  C   C3        1.0  0.4793822605949529  0.0877648456909128  0.8985312918090644  1.0000
  C   C4        1.0  0.9122323465419129  0.5206215449400416  0.6014690173246748  1.0000
  C   C5        1.0  0.9572277634226796  0.285370564589499  0.22768904174852628  1.0000
  C   C6        1.0  0.7146282817083217  0.042771740068126  0.2723040167550366  1.0000
  C   C7        1.0  0.04277001058798654  0.7146294097276494  0.7723028605337917  1.0000
  C   C8        1.0  0.28537397749313703  0.9572254394643305  0.7277029840953023  1.0000
  C   C9        1.0  0.4118389560349769  0.0137444890784764  0.1024067491491536  1.0000
  C   C10       1.0  0.9862615288369482  0.5881631632822886  0.3975956392002261  1.0000
  C   C11       1.0  0.5881647596299188  0.9862583631115316  0.8975938255053111  1.0000
  C   C12       1.0  0.013733564324006457  0.41182827607991596  0.6024017178528425  1.0000
  C   C13       1.0  0.3910182687932249  0.10126571476012458  0.00019390376961330022  1.0000
  C   C14       1.0  0.8987341462943378  0.6089806873137461  0.49980126670124764  1.0000
  C   C15       1.0  0.6089835202285768  0.898733340337543  0.9998077076118507  1.0000
  C   C16       1.0  0.10126587178398691  0.3910135535729962  0.5001929792494694  1.0000
  C   C17       1.0  0.3604989271297114  0.14331013448824587  0.3042266051785704  1.0000
  C   C18       1.0  0.856690937842032  0.6395056869046271  0.19577650214181122  1.0000
  C   C19       1.0  0.6394998911398561  0.8566936948338292  0.6957712562582545  1.0000
  C   C20       1.0  0.14329988100811158  0.36050493530358807  0.8042267127188298  1.0000
  C   C21       1.0  0.38667468627897955  0.11424127572063007  0.42035041025639697  1.0000
  C   C22       1.0  0.8857740096719767  0.6133313455771725  0.07965004325636471  1.0000
  C   C23       1.0  0.6133200498712698  0.8857683296238147  0.5796488559899305  1.0000
  C   C24       1.0  0.1142227659907889  0.3866734946333209  0.9203531399593888  1.0000
  C   C25       1.0  0.37817356543400393  0.2592803685548688  0.23618641283459849  1.0000
  C   C26       1.0  0.7407157052983707  0.6218404801835221  0.26380787358470315  1.0000
  C   C27       1.0  0.6218374627016561  0.7407185224051247  0.7638032850139994  1.0000
  C   C28       1.0  0.2592760812833533  0.37815774322920953  0.7361991234108418  1.0000
  C   C29       1.0  0.15018149707874784  0.11742883842047998  0.2012666873368049  1.0000
  C   C30       1.0  0.8825709192341475  0.8498220324846316  0.29873027171547767  1.0000
  C   C31       1.0  0.8498202247667238  0.8825701495467371  0.7987255343666535  1.0000
  C   C32       1.0  0.11742993854794291  0.1501770317034854  0.7012715066907661  1.0000
  C   C33       1.0  0.09728770249214588  0.0714711670189487  0.12190415524980122  1.0000
  C   C34       1.0  0.9285228189341412  0.90271422270596  0.37810010826533597  1.0000
  C   C35       1.0  0.9027126209466162  0.9285259574611758  0.8780929363650074  1.0000
  C   C36       1.0  0.0714768449963685  0.09728200969860978  0.6219049667512311  1.0000
  C   C37       1.0  0.9053776514197978  0.24025400813453499  0.14803475942321845  1.0000
  C   C38       1.0  0.7597429233261863  0.09462518614535746  0.3519571645744222  1.0000
  C   C39       1.0  0.09462580457775972  0.7597373311053487  0.8519585335855809  1.0000
  C   C40       1.0  0.2402607342819748  0.9053738568741921  0.64804496636458  1.0000
  C   C41       1.0  0.4467582674293738  0.3156528048547854  0.40075078120529645  1.0000
  C   C42       1.0  0.6843605033829621  0.5532484276571663  0.099239186767818  1.0000
  C   C43       1.0  0.5532452467746722  0.6843547698772028  0.5992421280018264  1.0000
  C   C44       1.0  0.31563681258030846  0.44674593204243945  0.9007683643636001  1.0000
  C   C45       1.0  0.07940567207013775  0.22384745628102812  0.2545124302923655  1.0000
  C   C46       1.0  0.7761498033977933  0.9205996728912424  0.2454857951831428  1.0000
  C   C47       1.0  0.9205965535839623  0.7761534408803498  0.7454802101670739  1.0000
  C   C48       1.0  0.22385023616376293  0.07940326448269269  0.7545222764271529  1.0000
  C   C49       1.0  0.43034353490072874  0.20016138559871163  0.4679206189925011  1.0000
  C   C50       1.0  0.7998558456795166  0.5696582953967989  0.03207668418180997  1.0000
  C   C51       1.0  0.5696551185496262  0.7998472028819565  0.5320746986395264  1.0000
  C   C52       1.0  0.20013901555402916  0.43034275992690135  0.9679292429751245  1.0000
  C   C53       1.0  0.42015073425918803  0.3452816291618177  0.284810863669975  1.0000
  C   C54       1.0  0.654724564240695  0.5798654783911275  0.21517506526922872  1.0000
  C   C55       1.0  0.5798573536589303  0.6547220665364151  0.715179352269438  1.0000
  C   C56       1.0  0.3452719824391793  0.4201403057047415  0.7848262768191747  1.0000
  C   C57       1.0  0.9754436499085058  0.13339687332393166  0.09553532213451635  1.0000
  C   C58       1.0  0.8665990982448334  0.024559723043218202  0.40446238163124815  1.0000
  C   C59       1.0  0.024559653483706378  0.8665992372800913  0.904457134283675  1.0000
  C   C60       1.0  0.13340158551681477  0.9754403399551916  0.5955452381114554  1.0000
  Cl  Cl1       1.0  0.29537050983213226  0.6431243379839555  0.4574242678102254  1.0000
  Cl  Cl2       1.0  0.35688240796270776  0.7046266093197174  0.04257564416150935  1.0000
  Cl  Cl3       1.0  0.7046221195476363  0.35688246297568327  0.5425810228924844  1.0000
  Cl  Cl4       1.0  0.6431218816316715  0.29536954711878133  0.957424327695712  1.0000
