data_image0
_chemical_formula_structural       Ca2Cu2H36C22S2N4O24
_chemical_formula_sum              "Ca2 Cu2 H36 C22 S2 N4 O24"
_cell_length_a       8.853646411438806
_cell_length_b       9.142591878122605
_cell_length_c       12.539290770475434
_cell_angle_alpha    95.49270789710778
_cell_angle_beta     97.29973151684948
_cell_angle_gamma    105.95184463677634

_space_group_name_H-M_alt    "P 1"
_space_group_IT_number       1

loop_
  _space_group_symop_operation_xyz
  'x, y, z'

loop_
  _atom_site_type_symbol
  _atom_site_label
  _atom_site_symmetry_multiplicity
  _atom_site_fract_x
  _atom_site_fract_y
  _atom_site_fract_z
  _atom_site_occupancy
  Ca  Ca1       1.0  0.5319865714112099  0.8186924763621736  0.8894079238265606  1.0000
  Ca  Ca2       1.0  0.4680122477285309  0.18131345510719402  0.11059281406736694  1.0000
  Cu  Cu1       1.0  0.6447733346534006  0.09937734953734179  0.6404363061444158  1.0000
  Cu  Cu2       1.0  0.3552332067177559  0.9006196174178956  0.3595661506571517  1.0000
  H   H1        1.0  0.816204589167782  0.6955528721143198  0.5606965942419039  1.0000
  H   H2        1.0  0.1837954248924945  0.3044451464925474  0.4393069526072183  1.0000
  H   H3        1.0  0.9161820913699542  0.6231101362074369  0.3924699134241935  1.0000
  H   H4        1.0  0.08381252199404089  0.37688090002166064  0.6075311384910549  1.0000
  H   H5        1.0  0.8514314306932248  0.028663171041571907  0.2680512743811292  1.0000
  H   H6        1.0  0.14857153131558215  0.9713372011995032  0.7319534717335473  1.0000
  H   H7        1.0  0.7590974866822362  0.20310956526093094  0.3618887130597983  1.0000
  H   H8        1.0  0.24090021202260206  0.7968883656557042  0.6381122336492808  1.0000
  H   H9        1.0  0.553413402136627  0.33551565578206083  0.4460793962550298  1.0000
  H   H10       1.0  0.4465839364011686  0.6644730415692593  0.5539161669767267  1.0000
  H   H11       1.0  0.752383808213899  0.4332290444796101  0.5039845988571585  1.0000
  H   H12       1.0  0.2476123610180849  0.5667676111718053  0.4960105531456378  1.0000
  H   H13       1.0  0.41042220059395623  0.3024733000495274  0.7877564020594434  1.0000
  H   H14       1.0  0.5895747727763877  0.6975302231826392  0.21223924156544885  1.0000
  H   H15       1.0  0.6130115471071278  0.3778179338136241  0.8440759189984348  1.0000
  H   H16       1.0  0.38698867343181587  0.622189045733002  0.15591862497061024  1.0000
  H   H17       1.0  0.6774858206919989  0.6649660680793092  0.7242149005144967  1.0000
  H   H18       1.0  0.3225088800141194  0.33503744319194345  0.275782139180734  1.0000
  H   H19       1.0  0.7454404506362806  0.8380479699127935  0.7163348861120652  1.0000
  H   H20       1.0  0.2545547281941366  0.1619532359573554  0.2836604586962466  1.0000
  H   H21       1.0  0.8749254208353179  0.0337220380986309  0.9278054115755764  1.0000
  H   H22       1.0  0.12507846444839296  0.9662816876208  0.0721948355011293  1.0000
  H   H23       1.0  0.8466173309065893  0.9442580232492902  0.029834795955828494  1.0000
  H   H24       1.0  0.15339080902376884  0.05574463885758261  0.9701657571436684  1.0000
  H   H25       1.0  0.4366334315849869  0.5512506775965207  0.7139963595977363  1.0000
  H   H26       1.0  0.5633637463043328  0.4487494829918931  0.2860022857878661  1.0000
  H   H27       1.0  0.2989609528447944  0.5205087186743926  0.7860229419750269  1.0000
  H   H28       1.0  0.7010389855505751  0.4794971884837126  0.2139754993995666  1.0000
  H   H29       1.0  0.22576759078922495  0.8601088357282195  0.9425386618228516  1.0000
  H   H30       1.0  0.7742302953580875  0.1398857022529256  0.0574636881627839  1.0000
  H   H31       1.0  0.1705860331548622  0.689101550032824  0.8798899630636613  1.0000
  H   H32       1.0  0.8294039072058937  0.31089296123097654  0.12011807241025713  1.0000
  H   H33       1.0  0.7184109190283436  0.6282733223676616  0.023396854079479133  1.0000
  H   H34       1.0  0.28159115463895296  0.3717280556980215  0.9766014956964995  1.0000
  H   H35       1.0  0.748820122003771  0.6643422182402503  0.9061186922637178  1.0000
  H   H36       1.0  0.2511814308480069  0.33566138949721147  0.09387735618879131  1.0000
  C   C1        1.0  0.7763351746807102  0.9028225555097651  0.5118723982952602  1.0000
  C   C2        1.0  0.22367217818777616  0.09717326930808673  0.48812926166630183  1.0000
  C   C3        1.0  0.8252510593212747  0.7677643486987125  0.4961143948417615  1.0000
  C   C4        1.0  0.17475059481014915  0.23223141592511357  0.5038891568115105  1.0000
  C   C5        1.0  0.8799397246116101  0.7277895776548892  0.40271374271337385  1.0000
  C   C6        1.0  0.12005963124085643  0.272206129570428  0.5972888072840021  1.0000
  C   C7        1.0  0.8892378652227252  0.822143563951791  0.3197039513052787  1.0000
  C   C8        1.0  0.1107637889086917  0.17785220067203517  0.6802996003479863  1.0000
  C   C9        1.0  0.8441982506633181  0.9555254795847222  0.33227419912592643  1.0000
  C   C10       1.0  0.15579991762757567  0.0444701307849513  0.6677242534541604  1.0000
  C   C11       1.0  0.7871844801254679  0.998862114635024  0.4270205596641361  1.0000
  C   C12       1.0  0.2128179769650345  0.001132492705551199  0.5729813959070427  1.0000
  C   C13       1.0  0.7431878850110251  0.13956404632368452  0.4319628354489354  1.0000
  C   C14       1.0  0.2568151961343333  0.8604328118149955  0.5680369200056817  1.0000
  C   C15       1.0  0.6480349294660003  0.3395629395323852  0.51322554314104  1.0000
  C   C16       1.0  0.35196287129888765  0.660431446990117  0.4867688144238258  1.0000
  C   C17       1.0  0.5919276891131559  0.3792846586039077  0.6191498491957789  1.0000
  C   C18       1.0  0.40807385520038497  0.6207189339876891  0.3808454000146497  1.0000
  C   C19       1.0  0.5274631509402424  0.282558554584  0.7874740862202998  1.0000
  C   C20       1.0  0.4725335573630219  0.7174439265513686  0.21252705329429492  1.0000
  C   C21       1.0  0.5216700104291618  0.13371816684067284  0.8331171542317649  1.0000
  C   C22       1.0  0.4783299450426882  0.8662877706091553  0.16688288562698966  1.0000
  S   S1        1.0  0.9512885355476826  0.7601471847339739  0.19908241248452901  1.0000
  S   S2        1.0  0.048713742638582906  0.23985083068795637  0.800918939052174  1.0000
  N   N1        1.0  0.6864684037517819  0.19431535248570952  0.5117854989693882  1.0000
  N   N2        1.0  0.3135306101894102  0.8056791763300312  0.488215353739001  1.0000
  N   N3        1.0  0.5701723083845354  0.2698335636388976  0.6808082292005296  1.0000
  N   N4        1.0  0.4298222378527968  0.7301653762872963  0.31918851648227803  1.0000
  O   O1        1.0  0.821680081519723  0.6198988720955826  0.1468914899845188  1.0000
  O   O2        1.0  0.1783167886112906  0.38010017066670804  0.8531086550804119  1.0000
  O   O3        1.0  0.10137375969049603  0.7264630438714336  0.2287962787056301  1.0000
  O   O4        1.0  0.8986278346732276  0.2735326147313443  0.7712016782530926  1.0000
  O   O5        1.0  0.9629337057659555  0.8860058507243169  0.1313004843141883  1.0000
  O   O6        1.0  0.03706924888388131  0.1140025312349024  0.8687055502625894  1.0000
  O   O7        1.0  0.7238858442163904  0.9310775037308759  0.6027673003950866  1.0000
  O   O8        1.0  0.2761313355402919  0.06892884148898301  0.39723905301971757  1.0000
  O   O9        1.0  0.5685438186029258  0.5103908776561783  0.6390373155851138  1.0000
  O   O10       1.0  0.43145693011049957  0.4896058625005325  0.36095824124529946  1.0000
  O   O11       1.0  0.558395128450165  0.026727446327790005  0.7751580388527374  1.0000
  O   O12       1.0  0.4416043488973856  0.9732807965231347  0.22484369589293615  1.0000
  O   O13       1.0  0.4817228609317893  0.11449114901650863  0.9243530439997016  1.0000
  O   O14       1.0  0.5182790691635121  0.8855217225779912  0.07564998641428393  1.0000
  O   O15       1.0  0.7250712610914364  0.7659880304810757  0.7708595641680276  1.0000
  O   O16       1.0  0.27491804863591796  0.23401653842226722  0.2291378675395848  1.0000
  O   O17       1.0  0.7952631976760715  0.994817256532997  0.9753647474483034  1.0000
  O   O18       1.0  0.2047382433981397  0.005181855588723702  0.024635003202170904  1.0000
  O   O19       1.0  0.3738585278261652  0.6028049378256101  0.7572748302791368  1.0000
  O   O20       1.0  0.6261381292476359  0.3971974524345754  0.24272151378299614  1.0000
  O   O21       1.0  0.2503770701985459  0.7880272518922169  0.8864461445172296  1.0000
  O   O22       1.0  0.7496200801163582  0.21196053967508288  0.11356210778293983  1.0000
  O   O23       1.0  0.6645379560719533  0.6329523511726836  0.9498914351173724  1.0000
  O   O24       1.0  0.33546508356145915  0.36705245610068  0.050106411831031  1.0000
