data_image0
_chemical_formula_structural       Cu8H76C88N12Cl4O20
_chemical_formula_sum              "Cu8 H76 C88 N12 Cl4 O20"
_cell_length_a       9.172561180485907
_cell_length_b       14.17163938013225
_cell_length_c       26.126202246048493
_cell_angle_alpha    89.99537629001219
_cell_angle_beta     89.9973509338465
_cell_angle_gamma    97.40013713616405

_space_group_name_H-M_alt    "P 1"
_space_group_IT_number       1

loop_
  _space_group_symop_operation_xyz
  'x, y, z'

loop_
  _atom_site_type_symbol
  _atom_site_label
  _atom_site_symmetry_multiplicity
  _atom_site_fract_x
  _atom_site_fract_y
  _atom_site_fract_z
  _atom_site_occupancy
  Cu  Cu1       1.0  0.09622628242611601  0.0746170039659333  0.5074796557496342  1.0000
  Cu  Cu2       1.0  0.9044633180004381  0.4261854453288408  0.007489780284409199  1.0000
  Cu  Cu3       1.0  0.9038131043127463  0.9254071257648845  0.4925242914975243  1.0000
  Cu  Cu4       1.0  0.09551083564957709  0.5737944226973539  0.9925153167523887  1.0000
  Cu  Cu5       1.0  0.5136288397183861  0.22772624732655802  0.759998640813073  1.0000
  Cu  Cu6       1.0  0.4865771379615609  0.2721215247771482  0.260155993962087  1.0000
  Cu  Cu7       1.0  0.48639011310944363  0.7723106320069919  0.24000262701417094  1.0000
  Cu  Cu8       1.0  0.5133975962798586  0.7278839482487671  0.7398471887123177  1.0000
  H   H1        1.0  0.2045827655428454  0.2338112060838498  0.6005970672158227  1.0000
  H   H2        1.0  0.7957615516715394  0.2661754013024408  0.10078448138010998  1.0000
  H   H3        1.0  0.7954288106801287  0.7662156971437852  0.3994087939837314  1.0000
  H   H4        1.0  0.20421507392472904  0.7338172749438174  0.8992179360488066  1.0000
  H   H5        1.0  0.04120060083558741  0.3011318594150297  0.6798495204906274  1.0000
  H   H6        1.0  0.9590905960027029  0.19875237296268722  0.180007800312552  1.0000
  H   H7        1.0  0.958805231425288  0.6988822274632586  0.3201559582835997  1.0000
  H   H8        1.0  0.04088618215003238  0.8012523938147426  0.8199988271784802  1.0000
  H   H9        1.0  0.3259856689518443  0.09847237613157493  0.592334974149054  1.0000
  H   H10       1.0  0.6743444393085626  0.40151407923258386  0.0926465637082217  1.0000
  H   H11       1.0  0.6740057081388784  0.9015402506447145  0.4076793081981193  1.0000
  H   H12       1.0  0.32563218644364156  0.5984785971665617  0.9073539399331665  1.0000
  H   H13       1.0  0.5197840531379329  0.035879997791731504  0.5414647850770393  1.0000
  H   H14       1.0  0.48077066675298846  0.46396437686674125  0.0416106302119701  1.0000
  H   H15       1.0  0.48017989488389656  0.9641147791679148  0.45854337377100046  1.0000
  H   H16       1.0  0.519208270286498  0.5360233272597059  0.9583868114612528  1.0000
  H   H17       1.0  0.8501939153827748  0.2307276293292873  0.6161880950451462  1.0000
  H   H18       1.0  0.15011828887976722  0.2690579984203866  0.1162102127829954  1.0000
  H   H19       1.0  0.14980863894282234  0.7692807615985727  0.38379135637222117  1.0000
  H   H20       1.0  0.8498606481285408  0.7309297056754789  0.883787611647726  1.0000
  H   H21       1.0  0.6544167085606888  0.2940601660753188  0.6685640517897724  1.0000
  H   H22       1.0  0.34576218761686317  0.20581064303789992  0.1687101946183063  1.0000
  H   H23       1.0  0.34561764576964293  0.7059717756125253  0.3314199919341405  1.0000
  H   H24       1.0  0.6542174509401023  0.7941919975375032  0.8312952846242396  1.0000
  H   H25       1.0  0.9738587400653032  0.24272487072293814  0.7685040214178469  1.0000
  H   H26       1.0  0.026459096143632593  0.2568835747118783  0.2687116508454038  1.0000
  H   H27       1.0  0.026141380175744206  0.7572991591937211  0.23149150548637457  1.0000
  H   H28       1.0  0.9735063864054752  0.743136098972144  0.7312884695281454  1.0000
  H   H29       1.0  0.9021475922858997  0.30561291068921287  0.8512783437143554  1.0000
  H   H30       1.0  0.09770522641232299  0.1941169882157041  0.35155765073493933  1.0000
  H   H31       1.0  0.09784882005133962  0.694391906912635  0.14872101122293196  1.0000
  H   H32       1.0  0.9022812554321646  0.8059041619206156  0.6484386418595562  1.0000
  H   H33       1.0  0.3339373604948292  0.4641074377357982  0.8673521979861503  1.0000
  H   H34       1.0  0.6656982106664131  0.03579573128003939  0.3675202148666017  1.0000
  H   H35       1.0  0.6660670506548668  0.535865394486713  0.1326678265034857  1.0000
  H   H36       1.0  0.3343153630358557  0.9641963280699741  0.632485264335024  1.0000
  H   H37       1.0  0.4075564803136586  0.4004626363342965  0.7838755169690685  1.0000
  H   H38       1.0  0.5925010816591937  0.09937811021080022  0.2839818043821225  1.0000
  H   H39       1.0  0.5924449885525362  0.5995514390118473  0.21613455493104533  1.0000
  H   H40       1.0  0.40748182124770677  0.900618848960377  0.7160252059903555  1.0000
  H   H41       1.0  0.3980856937309055  0.11349113687052893  0.4412271302177899  1.0000
  H   H42       1.0  0.6021996495172671  0.3868805836756621  0.9411343649508905  1.0000
  H   H43       1.0  0.601934433508937  0.886506630075651  0.5587634212606076  1.0000
  H   H44       1.0  0.39778569373667955  0.6131064246642168  0.05887532492580759  1.0000
  H   H45       1.0  0.32137508268209564  0.20320301720525447  0.4074106631194923  1.0000
  H   H46       1.0  0.6789969844443603  0.2971430161803212  0.907381501114962  1.0000
  H   H47       1.0  0.6786372714547826  0.7967940181566819  0.592586012558634  1.0000
  H   H48       1.0  0.32099124320949807  0.7028589355365399  0.09261938498286068  1.0000
  H   H49       1.0  0.5748194832815443  0.25187830248957255  0.3833971356845963  1.0000
  H   H50       1.0  0.42546659560356664  0.2483390480310632  0.8834378131642209  1.0000
  H   H51       1.0  0.4251886532244455  0.7481251231940576  0.6165960950680542  1.0000
  H   H52       1.0  0.574506910408587  0.7516657104947768  0.11656728332363289  1.0000
  H   H53       1.0  0.6414349081453993  0.20731933483298093  0.44156677423634244  1.0000
  H   H54       1.0  0.3589649773017243  0.2929117948656312  0.9416165034947355  1.0000
  H   H55       1.0  0.3585819546197654  0.7926841133951114  0.5584237771421526  1.0000
  H   H56       1.0  0.6410360403758943  0.7070716972585486  0.058397013907594386  1.0000
  H   H57       1.0  0.6605941333314577  0.371392949842047  0.4657517081082076  1.0000
  H   H58       1.0  0.3401125962206705  0.1288799119954902  0.9658626389372742  1.0000
  H   H59       1.0  0.339413728382155  0.6286090525769198  0.5342434364658998  1.0000
  H   H60       1.0  0.659891275661046  0.8710957658303045  0.0341302097104759  1.0000
  H   H61       1.0  0.5120945471645797  0.3929020945016291  0.4247434173147298  1.0000
  H   H62       1.0  0.48854624600514274  0.10741340791923192  0.9248188200086032  1.0000
  H   H63       1.0  0.4879116745210509  0.6070970589024753  0.5752517273361804  1.0000
  H   H64       1.0  0.5114576494980128  0.8925793391186473  0.0751709661988258  1.0000
  H   H65       1.0  0.522439035173889  0.44004062852074094  0.5350748138035115  1.0000
  H   H66       1.0  0.4785811240164862  0.0604090581744288  0.035205000790334395  1.0000
  H   H67       1.0  0.4775641810610196  0.5599542499348402  0.4649207137245881  1.0000
  H   H68       1.0  0.5214275151120447  0.9395630758895878  0.9647870823824576  1.0000
  H   H69       1.0  0.32677342620915784  0.4179262768405962  0.5277624047055696  1.0000
  H   H70       1.0  0.6741944736556463  0.08261477292772669  0.027785454632919496  1.0000
  H   H71       1.0  0.6732352438324796  0.5820686156020685  0.4722327400202673  1.0000
  H   H72       1.0  0.3258074616866579  0.9173395652717033  0.9721890221454784  1.0000
  H   H73       1.0  0.41828041855121256  0.34782601333989754  0.5707269844564705  1.0000
  H   H74       1.0  0.5827323335666393  0.15273959734041398  0.0707506995724998  1.0000
  H   H75       1.0  0.5817262073919878  0.6521695851677904  0.4292670119977799  1.0000
  H   H76       1.0  0.4173233223209039  0.8472162996743722  0.9292371732461432  1.0000
  C   C1        1.0  0.3715264765490005  0.25424914002451976  0.7132863338975923  1.0000
  C   C2        1.0  0.6287669711967254  0.24557927138991434  0.2134789139593849  1.0000
  C   C3        1.0  0.6284930101575341  0.7457792064044143  0.28671263757026105  1.0000
  C   C4        1.0  0.37120953253787553  0.7544240724897835  0.7865250342630219  1.0000
  C   C5        1.0  0.2290727350560573  0.24627264947565666  0.6409028693449483  1.0000
  C   C6        1.0  0.7712035876188637  0.2536547322920839  0.1410824360312404  1.0000
  C   C7        1.0  0.7709442950983955  0.7537542678613818  0.3591010780223201  1.0000
  C   C8        1.0  0.2287767219790879  0.7463400867817072  0.8589226606224897  1.0000
  C   C9        1.0  0.14958808319844508  0.2786606693192796  0.6795092489579273  1.0000
  C   C10       1.0  0.8506884984453507  0.2211645489651063  0.17967939591547122  1.0000
  C   C11       1.0  0.850418565212287  0.721351997269103  0.3204958470837695  1.0000
  C   C12       1.0  0.14928663974177428  0.778837368858625  0.8203264661373453  1.0000
  C   C13       1.0  0.4793804976932563  0.19882497593052761  0.6336516934659286  1.0000
  C   C14       1.0  0.5208565864104459  0.30105794393668367  0.1338305485617184  1.0000
  C   C15       1.0  0.5206284855326402  0.8011997875055031  0.36634842643981347  1.0000
  C   C16       1.0  0.47912453992991283  0.6989354554281847  0.8661668929668451  1.0000
  C   C17       1.0  0.44064968725700737  0.12747457966939635  0.5975970752235185  1.0000
  C   C18       1.0  0.5597358530481883  0.3724919819435897  0.09783986665780017  1.0000
  C   C19       1.0  0.5593494628119444  0.8725387785688314  0.40241261395395606  1.0000
  C   C20       1.0  0.4402448610256399  0.6274992824478361  0.9021614024967233  1.0000
  C   C21       1.0  0.5495754303102913  0.0924620694667837  0.569164974164039  1.0000
  C   C22       1.0  0.4509365452061829  0.4074396539965904  0.069339851179322  1.0000
  C   C23       1.0  0.45041401740793663  0.9075349067274064  0.4308385913371708  1.0000
  C   C24       1.0  0.549043886970736  0.5925444981470562  0.9306549112582658  1.0000
  C   C25       1.0  0.6974669962133363  0.12902322154955934  0.5760644555317924  1.0000
  C   C26       1.0  0.3030318620071739  0.3707756746721743  0.0761381150738245  1.0000
  C   C27       1.0  0.3025369142473835  0.8709809041884072  0.4239329855722714  1.0000
  C   C28       1.0  0.6969555109801958  0.6291992494835766  0.9238577957851959  1.0000
  C   C29       1.0  0.7349267563994104  0.20210289258420744  0.6117006916727092  1.0000
  C   C30       1.0  0.2654148166653343  0.297690633061869  0.1117782175788875  1.0000
  C   C31       1.0  0.2650663765679652  0.7978962276606296  0.38829024275303675  1.0000
  C   C32       1.0  0.734565210910958  0.7022970736418372  0.8882219033879293  1.0000
  C   C33       1.0  0.6264346173297142  0.23708018440053993  0.640842805156602  1.0000
  C   C34       1.0  0.3737961934407537  0.2627581925687892  0.14098901681239787  1.0000
  C   C35       1.0  0.37358377167310414  0.7629424704068697  0.3591458319942688  1.0000
  C   C36       1.0  0.6261817899435371  0.737230220108202  0.8590111041553641  1.0000
  C   C37       1.0  0.8132588107838784  0.08702726629234549  0.54661278802363  1.0000
  C   C38       1.0  0.18761707299999128  0.4127730325208248  0.04654101351912491  1.0000
  C   C39       1.0  0.1867591653598595  0.9129932529606394  0.4533869491458232  1.0000
  C   C40       1.0  0.812358988116344  0.5872054185571685  0.9534568111410734  1.0000
  C   C41       1.0  0.1955599867693749  0.31817883747204695  0.7713380269687277  1.0000
  C   C42       1.0  0.8046312360003114  0.1816002374371379  0.27148503998923695  1.0000
  C   C43       1.0  0.8044458533757108  0.6818409391537941  0.2286663034062286  1.0000
  C   C44       1.0  0.19535604582018345  0.8184081125166643  0.7285181425188583  1.0000
  C   C45       1.0  0.05313375163769511  0.2916768371060599  0.789791368762607  1.0000
  C   C46       1.0  0.9470036867708412  0.20796047107427282  0.289982345900583  1.0000
  C   C47       1.0  0.9468734384423881  0.7083329862335362  0.2102114307929455  1.0000
  C   C48       1.0  0.05297664651092049  0.7920514172727523  0.710018922797822  1.0000
  C   C49       1.0  0.01274094170209138  0.3269485959343541  0.8367399482147917  1.0000
  C   C50       1.0  0.9871805626908525  0.17272050180008597  0.33697623873275967  1.0000
  C   C51       1.0  0.9872549212063362  0.6730533752910401  0.1632613205778881  1.0000
  C   C52       1.0  0.012814774566145062  0.827295692413827  0.6630219676874559  1.0000
  C   C53       1.0  0.11335283261939819  0.38947974630993093  0.8647310889570006  1.0000
  C   C54       1.0  0.8863945366847191  0.11031175146836598  0.36495840608306906  1.0000
  C   C55       1.0  0.8866522814511768  0.6105080237375375  0.13527974901415257  1.0000
  C   C56       1.0  0.1136341942977168  0.8896967050135772  0.6350390347223039  1.0000
  C   C57       1.0  0.255798898156293  0.4153950985242077  0.8457154892878904  1.0000
  C   C58       1.0  0.7439879277242838  0.08446354147363173  0.3459110665130183  1.0000
  C   C59       1.0  0.7442085266090147  0.58458769866958  0.1542995591077201  1.0000
  C   C60       1.0  0.2560248377123315  0.9155356279138405  0.6540936470218597  1.0000
  C   C61       1.0  0.2976537500171261  0.37967187367286215  0.7992262169816229  1.0000
  C   C62       1.0  0.702388217921076  0.12016638330491962  0.2993749529457261  1.0000
  C   C63       1.0  0.7023488017199782  0.620336514717039  0.20078500330880902  1.0000
  C   C64       1.0  0.2976040978360999  0.8798341561901708  0.7006293779677861  1.0000
  C   C65       1.0  0.068859660284474  0.42962747879421676  0.9144320024763388  1.0000
  C   C66       1.0  0.9307802929769764  0.0703193915575113  0.4147755898013443  1.0000
  C   C67       1.0  0.9311305796191219  0.5703510075616336  0.08557845306522437  1.0000
  C   C68       1.0  0.06928270232173615  0.9297197344015586  0.5852218500419184  1.0000
  C   C69       1.0  0.3588926167617856  0.23599536453706094  0.4860586395508832  1.0000
  C   C70       1.0  0.6416242487625823  0.2645390644383667  0.9860460887429666  1.0000
  C   C71       1.0  0.6411232842768584  0.7640031023105607  0.5139380360664703  1.0000
  C   C72       1.0  0.358381125361106  0.7354387503877363  0.013952501207541003  1.0000
  C   C73       1.0  0.4025809607626343  0.19060964169451472  0.436901747637755  1.0000
  C   C74       1.0  0.5977742046109924  0.30975938643224044  0.9368637789530891  1.0000
  C   C75       1.0  0.5974391660717872  0.8093881248541521  0.5630937796882378  1.0000
  C   C76       1.0  0.4022082792055172  0.6902297490575791  0.0631351936893836  1.0000
  C   C77       1.0  0.5546587888138674  0.24412250455741707  0.4246055285129628  1.0000
  C   C78       1.0  0.44574840931590387  0.2561461974077517  0.9246351954509606  1.0000
  C   C79       1.0  0.445354801530037  0.7558809351438782  0.5753869366799194  1.0000
  C   C80       1.0  0.5542428080514482  0.743848649793101  0.07536722181072258  1.0000
  C   C81       1.0  0.5526421163658028  0.34087106307879383  0.45089500377549285  1.0000
  C   C82       1.0  0.4479934706883313  0.15944666046525677  0.9509565019449083  1.0000
  C   C83       1.0  0.4473711993104814  0.659130953480151  0.5490978442088235  1.0000
  C   C84       1.0  0.5520078154879685  0.8405325667355044  0.0490367294023741  1.0000
  C   C85       1.0  0.4275668949869669  0.38462981955461134  0.5337471211242857  1.0000
  C   C86       1.0  0.5733713624308977  0.1158860179628434  0.0337917661638372  1.0000
  C   C87       1.0  0.572443140570968  0.6153664989134455  0.4662464925286542  1.0000
  C   C88       1.0  0.42664367643129  0.8840797319430466  0.9661964895239021  1.0000
  N   N1        1.0  0.364596878546287  0.23304017514902142  0.6620264463872587  1.0000
  N   N2        1.0  0.6356373266062934  0.26681901182200113  0.16222064811358192  1.0000
  N   N3        1.0  0.6354193358325517  0.7669881628448534  0.3379732906224575  1.0000
  N   N4        1.0  0.3643391694935971  0.7331786425547693  0.837781386448043  1.0000
  N   N5        1.0  0.23775574137560798  0.2839729168007707  0.7230436337013159  1.0000
  N   N6        1.0  0.7625343415303405  0.21585037754011446  0.22320511962286096  1.0000
  N   N7        1.0  0.762263607825588  0.7160547178888024  0.2769576343285394  1.0000
  N   N8        1.0  0.23743889000130738  0.7841529580268372  0.7767980631113786  1.0000
  N   N9        1.0  0.449302474593317  0.3182251908171025  0.49320751309119976  1.0000
  N   N10       1.0  0.5514534765131671  0.1822198073716663  0.9932303355713684  1.0000
  N   N11       1.0  0.5507147921487459  0.6817747022393804  0.5067853349082085  1.0000
  N   N12       1.0  0.44855134874306657  0.8177551616283908  0.0067632785994007  1.0000
  Cl  Cl1       1.0  0.6638584159808117  0.18415973603651992  0.8128277259494467  1.0000
  Cl  Cl2       1.0  0.3360795854383412  0.31574223782611455  0.31287037828322883  1.0000
  Cl  Cl3       1.0  0.3361466158986204  0.8158671506267723  0.18717583875876898  1.0000
  Cl  Cl4       1.0  0.6639030665782997  0.6842703675676775  0.6871320386528338  1.0000
  O   O1        1.0  0.7715574420564266  0.005566023931777399  0.5268206372767706  1.0000
  O   O2        1.0  0.22919200585002394  0.4941247545175573  0.026504952694828898  1.0000
  O   O3        1.0  0.22843884072206316  0.9944437717394196  0.47317910030823634  1.0000
  O   O4        1.0  0.7707793027275615  0.505868618777683  0.9735043543970079  1.0000
  O   O5        1.0  0.9407219549334442  0.13418928783594453  0.5443991263535537  1.0000
  O   O6        1.0  0.059654824302505474  0.36597210319707335  0.0441566052969193  1.0000
  O   O7        1.0  0.05928371732337472  0.8658070191917137  0.4555979321527417  1.0000
  O   O8        1.0  0.9403287273961567  0.633999966605842  0.9558362435967495  1.0000
  O   O9        1.0  0.9680347038107228  0.3803883421292512  0.9399090009366515  1.0000
  O   O10       1.0  0.031167296700950003  0.12007467471239154  0.4400725148550249  1.0000
  O   O11       1.0  0.03193168511951675  0.6195964845494898  0.060094947780491695  1.0000
  O   O12       1.0  0.9688611752263441  0.8799437379694128  0.5599249257307761  1.0000
  O   O13       1.0  0.1367454241366701  0.5108298566995658  0.9270564285604265  1.0000
  O   O14       1.0  0.8629161668404137  0.9891105380913816  0.4272086999704499  1.0000
  O   O15       1.0  0.8632599408241504  0.4891422671252886  0.07295900284714209  1.0000
  O   O16       1.0  0.13712690471097494  0.010915735261988902  0.5727879748063386  1.0000
  O   O17       1.0  0.25629856498201053  0.20708524915472992  0.5160369216444067  1.0000
  O   O18       1.0  0.744147296182426  0.29366898685812964  0.0160165159703354  1.0000
  O   O19       1.0  0.743734787857697  0.7929132620785139  0.4839631986472952  1.0000
  O   O20       1.0  0.2558497558149  0.7063052504047889  0.983985136187691  1.0000
