data_image0
_chemical_formula_structural       Nd4H12C36O24
_chemical_formula_sum              "Nd4 H12 C36 O24"
_cell_length_a       10.54554128403121
_cell_length_b       10.545525181027807
_cell_length_c       13.918922596005304
_cell_angle_alpha    90.00002701437954
_cell_angle_beta     89.99990387407506
_cell_angle_gamma    90.00026176518716

_space_group_name_H-M_alt    "P 1"
_space_group_IT_number       1

loop_
  _space_group_symop_operation_xyz
  'x, y, z'

loop_
  _atom_site_type_symbol
  _atom_site_label
  _atom_site_symmetry_multiplicity
  _atom_site_fract_x
  _atom_site_fract_y
  _atom_site_fract_z
  _atom_site_occupancy
  Nd  Nd1       1.0  0.12047849569874813  0.8795224151006591  0.8749974027910383  1.0000
  Nd  Nd2       1.0  0.8795213318150983  0.12047787061166558  0.3749997529516165  1.0000
  Nd  Nd3       1.0  0.12048083219512762  0.1204800076773083  0.6250016246349119  1.0000
  Nd  Nd4       1.0  0.8795186017806387  0.8795201223300849  0.1250013719336138  1.0000
  H   H1        1.0  5.142875352000002e-07  0.8830818268578187  0.500000064341954  1.0000
  H   H2        1.0  1.2153547146e-06  0.11691878582308848  2.0864803199999992e-08  1.0000
  H   H3        1.0  0.1169192781839641  3.449306831e-07  0.2500020345567151  1.0000
  H   H4        1.0  0.8830823353869165  0.9999994059630238  0.7499993000282715  1.0000
  H   H5        1.0  0.06881440979889672  0.5295311217729334  0.6458919967300645  1.0000
  H   H6        1.0  0.9311849778195338  0.4704680729760112  0.1458922509365266  1.0000
  H   H7        1.0  0.4704658482667696  0.06880763363753319  0.3958945801759981  1.0000
  H   H8        1.0  0.5295348811509798  0.931193613360662  0.895893884914237  1.0000
  H   H9        1.0  0.9311848817310275  0.5295311042703686  0.3541088084124837  1.0000
  H   H10       1.0  0.06881309560242951  0.4704701166965107  0.8541085331261371  1.0000
  H   H11       1.0  0.5295360796719635  0.0688078334101263  0.6041053420751511  1.0000
  H   H12       1.0  0.47046434893819367  0.9311922835852326  0.104106345144757  1.0000
  C   C1        1.0  0.0697480560604475  0.7833667594937096  0.6723624810469602  1.0000
  C   C2        1.0  0.9302503245550472  0.21663245173889578  0.1723612089454818  1.0000
  C   C3        1.0  0.21663058130079096  0.06974395232391122  0.42236302560650063  1.0000
  C   C4        1.0  0.7833700893809379  0.9302554146201981  0.9223620080230006  1.0000
  C   C5        1.0  0.9302523951823006  0.7833667212419613  0.32763841469492405  1.0000
  C   C6        1.0  0.0697465891551232  0.21663353497086038  0.8276366107320213  1.0000
  C   C7        1.0  0.7833694543857777  0.06974719181116737  0.577637615427001  1.0000
  C   C8        1.0  0.21663008469450773  0.9302557535056192  0.07763750325441518  1.0000
  C   C9        1.0  0.036096808265782  0.7139959986923541  0.5827671932908416  1.0000
  C   C10       1.0  0.9639017711603585  0.2860050532779041  0.0827666217098439  1.0000
  C   C11       1.0  0.28600115394027636  0.036094739309362495  0.3327669604378869  1.0000
  C   C12       1.0  0.7139987672812964  0.9639045718307668  0.8327667613072974  1.0000
  C   C13       1.0  0.9639023777692017  0.7139952217084157  0.4172336776916127  1.0000
  C   C14       1.0  0.03609640775302131  0.2860022454979116  0.9172333780661573  1.0000
  C   C15       1.0  0.713998728010104  0.036096769404316796  0.6672322316924522  1.0000
  C   C16       1.0  0.2860034570645098  0.9639043351810981  0.1672320435325076  1.0000
  C   C17       1.0  2.787061817000002e-07  0.7799546727958103  0.5000000459378171  1.0000
  C   C18       1.0  0.9999995543999491  0.22004593988076238  3.9270140899999584e-08  1.0000
  C   C19       1.0  0.22004476607433082  0.9999981926605203  0.24999927382599912  1.0000
  C   C20       1.0  0.7799566749066145  0.9999977308263863  0.7499988254505325  1.0000
  C   C21       1.0  0.038414072776006905  0.5811842209587326  0.5820839255813155  1.0000
  C   C22       1.0  0.9615845081691745  0.41881777885527055  0.0820826858972268  1.0000
  C   C23       1.0  0.4188117917325585  0.0384116648883861  0.3320850709718286  1.0000
  C   C24       1.0  0.5811871827397753  0.9615895423635051  0.8320836025912185  1.0000
  C   C25       1.0  0.9615845064736632  0.5811834338125834  0.4179176164441998  1.0000
  C   C26       1.0  0.038414277535437705  0.4188149820885698  0.9179152059432241  1.0000
  C   C27       1.0  0.5811871525300845  0.038412140381765894  0.6679155588786188  1.0000
  C   C28       1.0  0.41881408275880017  0.9615889646274663  0.1679166383156669  1.0000
  C   C29       1.0  0.9999995520559393  0.515159334195843  0.5000000828842701  1.0000
  C   C30       1.0  1.5929199289999992e-07  0.48484071795814987  0.9999993680791732  1.0000
  C   C31       1.0  0.48483724327141436  0.9999987975234459  0.2500026981149972  1.0000
  C   C32       1.0  0.5151628615999044  0.9999995137993661  0.7500002518256039  1.0000
  C   C33       1.0  0.9999993493679543  0.37313093226227767  0.4999992548893815  1.0000
  C   C34       1.0  0.9999992525088575  0.6268694313003775  0.9999985726733058  1.0000
  C   C35       1.0  0.6268669371156648  0.9999972254202231  0.2500004526939321  1.0000
  C   C36       1.0  0.3731341160188109  0.999998241095774  0.7500010603527372  1.0000
  O   O1        1.0  0.0823176283870524  0.9048040777519046  0.6707840679792554  1.0000
  O   O2        1.0  0.9176817039967776  0.0951941842302801  0.1707827684774514  1.0000
  O   O3        1.0  0.0951944554402786  0.08231772814502848  0.4207846781031535  1.0000
  O   O4        1.0  0.9048071670119598  0.9176816378181697  0.9207835019907833  1.0000
  O   O5        1.0  0.9176833776723684  0.9048030347895447  0.3292154342131894  1.0000
  O   O6        1.0  0.0823184479678218  0.0951962741424381  0.8292135709611017  1.0000
  O   O7        1.0  0.9048084824901537  0.08231867860365578  0.5792174043088067  1.0000
  O   O8        1.0  0.09519294961013001  0.9176814228940272  0.07922103392357369  1.0000
  O   O9        1.0  0.08290599667066802  0.7217710194618404  0.7501608683408989  1.0000
  O   O10       1.0  0.9170941078461681  0.27822634369035626  0.2501596349137003  1.0000
  O   O11       1.0  0.2782262252858203  0.0828956670933465  0.5001635508579056  1.0000
  O   O12       1.0  0.7217744339726269  0.9171062817034111  0.0001620747763909  1.0000
  O   O13       1.0  0.917096069693699  0.7217708726456564  0.2498385685221152  1.0000
  O   O14       1.0  0.08290308728010133  0.27823123165146063  0.7498382067486489  1.0000
  O   O15       1.0  0.7217757670258251  0.08290047326436677  0.49983853176162546  1.0000
  O   O16       1.0  0.27822093870012304  0.9171122176973651  0.9998374318118337  1.0000
  O   O17       1.0  0.0857434634615828  0.3176526355533369  0.5485884399055578  1.0000
  O   O18       1.0  0.9142532952638833  0.6823464985866962  0.0485887912125449  1.0000
  O   O19       1.0  0.6823489072979854  0.08574133598411751  0.2985902220908727  1.0000
  O   O20       1.0  0.31765583108430934  0.9142522642646965  0.7985926633381338  1.0000
  O   O21       1.0  0.9142539117841083  0.3176526013063494  0.45140797893517975  1.0000
  O   O22       1.0  0.08574384965044152  0.6823505767997274  0.9514091946899512  1.0000
  O   O23       1.0  0.3176549945418827  0.08574252490138427  0.7014125799888973  1.0000
  O   O24       1.0  0.6823423733358852  0.9142519630739443  0.20140971601415458  1.0000
