data_image0
_chemical_formula_structural       Zn2H54C60N2O12
_chemical_formula_sum              "Zn2 H54 C60 N2 O12"
_cell_length_a       10.99179350137451
_cell_length_b       18.23147256734586
_cell_length_c       19.239032665834074
_cell_angle_alpha    88.95928640365386
_cell_angle_beta     89.77036698395429
_cell_angle_gamma    89.73362453746888

_space_group_name_H-M_alt    "P 1"
_space_group_IT_number       1

loop_
  _space_group_symop_operation_xyz
  'x, y, z'

loop_
  _atom_site_type_symbol
  _atom_site_label
  _atom_site_symmetry_multiplicity
  _atom_site_fract_x
  _atom_site_fract_y
  _atom_site_fract_z
  _atom_site_occupancy
  Zn  Zn1       1.0  0.5121890427622374  0.42350308230408723  0.5005885489152675  1.0000
  Zn  Zn2       1.0  0.5118950313045475  0.5759776836675743  0.49731329439467237  1.0000
  H   H1        1.0  0.12166346487967421  0.5570390752283458  0.5883462013362007  1.0000
  H   H2        1.0  0.8935691828086336  0.5586356922928246  0.5850433022129948  1.0000
  H   H3        1.0  0.6708184261685944  0.3034867908198322  0.5553136582056908  1.0000
  H   H4        1.0  0.34901753521820933  0.3112299754385432  0.4448009300646802  1.0000
  H   H5        1.0  0.6728982190929216  0.16622043927170438  0.5576967555566057  1.0000
  H   H6        1.0  0.3352941738530433  0.1743124791146968  0.4429194652327766  1.0000
  H   H7        1.0  0.4209394283872499  0.06956749841598509  0.398645123511649  1.0000
  H   H8        1.0  0.5787588663340202  0.0649701036849208  0.6035591238426719  1.0000
  H   H9        1.0  0.41965275057253143  0.9342145352094349  0.39892893534337054  1.0000
  H   H10       1.0  0.5790639945975827  0.9296525593102344  0.6032852756358835  1.0000
  H   H11       1.0  0.6805922499227535  0.8300820051047069  0.548005382193395  1.0000
  H   H12       1.0  0.3249141146600465  0.8290063446993942  0.4528145386870861  1.0000
  H   H13       1.0  0.6790224197635268  0.6926966390659502  0.5433315556142944  1.0000
  H   H14       1.0  0.33737423443378134  0.6916485387283375  0.454500874952025  1.0000
  H   H15       1.0  0.24403335616899113  0.43560058918935596  0.3805773576310827  1.0000
  H   H16       1.0  0.7905603704218577  0.443630099049237  0.3697636444927355  1.0000
  H   H17       1.0  0.13692715650601173  0.38915446283737515  0.2782643955780131  1.0000
  H   H18       1.0  0.9090699180408708  0.39468571736181707  0.27260912645825647  1.0000
  H   H19       1.0  0.5664266828422343  0.5455085539381344  0.8681315959679807  1.0000
  H   H20       1.0  0.24650885156507485  0.5779313391436959  0.1737386668072745  1.0000
  H   H21       1.0  0.23186617294269501  0.4376074325034623  0.8177594332385496  1.0000
  H   H22       1.0  0.5079928674795015  0.40483789202224335  0.1417447486673851  1.0000
  H   H23       1.0  0.37290249382664337  0.6077246102963086  0.06343381160694153  1.0000
  H   H24       1.0  0.38573074846260624  0.6082210437483511  0.9343003660214677  1.0000
  H   H25       1.0  0.7458350455937932  0.6629735969677384  0.7115856398466249  1.0000
  H   H26       1.0  0.5901331598667099  0.6560076064724002  0.6865043077744346  1.0000
  H   H27       1.0  0.6285829092918648  0.6686866688231773  0.7753061647804671  1.0000
  H   H28       1.0  0.7290232073332206  0.5440420084809215  0.7783633248707744  1.0000
  H   H29       1.0  0.6940349089709984  0.532494450490944  0.6898102353738694  1.0000
  H   H30       1.0  0.4422190833353953  0.6824228024314394  0.31120776871377837  1.0000
  H   H31       1.0  0.3419481946813221  0.6983008372915405  0.2399823813559294  1.0000
  H   H32       1.0  0.29629502625003573  0.7230400312392503  0.3251204196662272  1.0000
  H   H33       1.0  0.1950718678167362  0.6059458209521014  0.293951628301933  1.0000
  H   H34       1.0  0.2985154118898734  0.5899472450798271  0.3624635712456268  1.0000
  H   H35       1.0  0.15681626373217483  0.37081124170079255  0.7372497579454347  1.0000
  H   H36       1.0  0.29201089540139696  0.3271941416530879  0.7065088750358939  1.0000
  H   H37       1.0  0.2154919679164848  0.34665422766948245  0.5827448783028331  1.0000
  H   H38       1.0  0.11613232058905253  0.29033989361208506  0.6347135323102081  1.0000
  H   H39       1.0  0.0782715201744963  0.3838448835098092  0.6161244060141939  1.0000
  H   H40       1.0  0.5395756781805261  0.30251397198553326  0.23320167723092314  1.0000
  H   H41       1.0  0.4742232258531303  0.3297858514675979  0.3142948977310597  1.0000
  H   H42       1.0  0.6782204936384773  0.32015938926031856  0.3711117533972939  1.0000
  H   H43       1.0  0.6372285607357712  0.23480671359063612  0.3339009681941718  1.0000
  H   H44       1.0  0.7454216192402043  0.2927237831898069  0.29131011456729544  1.0000
  H   H45       1.0  0.1576939330855396  0.35562297270774224  0.9049275563110513  1.0000
  H   H46       1.0  0.20484177355880462  0.30138594631988264  0.9784375176785788  1.0000
  H   H47       1.0  0.3268730207414166  0.2202777694181322  0.8997321590783969  1.0000
  H   H48       1.0  0.17058355419064244  0.22182972097951392  0.8750871203783676  1.0000
  H   H49       1.0  0.27954790069727414  0.2740210978692801  0.8263976479305768  1.0000
  H   H50       1.0  0.1296989492330667  0.35632331116784854  0.0854825855611168  1.0000
  H   H51       1.0  0.2133246173489596  0.39862243962350863  0.15311457888198987  1.0000
  H   H52       1.0  0.306388166356605  0.27743987903085815  0.1867549195990605  1.0000
  H   H53       1.0  0.1445482906027635  0.2729845762823687  0.19042880389135067  1.0000
  H   H54       1.0  0.22448485705010773  0.23393714680247507  0.11923529390288928  1.0000
  C   C1        1.0  0.4853547592966408  0.5015604931965497  0.363531996545909  1.0000
  C   C2        1.0  0.49440963167826624  0.4957226530779977  0.6339321880316504  1.0000
  C   C3        1.0  0.3952047498859983  0.4918853340128493  0.851042952798572  1.0000
  C   C4        1.0  0.372505424083549  0.49115814037406846  0.1490027382552199  1.0000
  C   C5        1.0  0.3184826810930304  0.46124529649409846  0.8015345824562559  1.0000
  C   C6        1.0  0.46291830111322  0.44390470361834383  0.17552526586055  1.0000
  C   C7        1.0  0.35161469835964  0.4630441356902467  0.7314034562667474  1.0000
  C   C8        1.0  0.4991601920719618  0.4488815015428145  0.24443727684676728  1.0000
  C   C9        1.0  0.46248143435542494  0.494643033144797  0.7100227068603786  1.0000
  C   C10       1.0  0.4467569959181219  0.5010771894801566  0.288731331086737  1.0000
  C   C11       1.0  0.3407109436503434  0.42569492481717225  0.9633481396956682  1.0000
  C   C12       1.0  0.331242971482432  0.42569537630158294  0.036545200300715  1.0000
  C   C13       1.0  0.3479405026144208  0.49109518340446806  0.0733221960997312  1.0000
  C   C14       1.0  0.3652145066454225  0.49143999870017296  0.926190049028051  1.0000
  C   C15       1.0  0.3613193952282003  0.5569225511789213  0.0351741488163597  1.0000
  C   C16       1.0  0.37050216454258594  0.5570074755182476  0.9631292901414453  1.0000
  C   C17       1.0  0.5985501447530838  0.27206729320215567  0.5313011982268847  1.0000
  C   C18       1.0  0.4187254322834804  0.27632664672553636  0.46866333042062547  1.0000
  C   C19       1.0  0.5983129769950963  0.19593142156197982  0.5326768271006301  1.0000
  C   C20       1.0  0.41241907863966537  0.2003226081515876  0.46771190567282867  1.0000
  C   C21       1.0  0.5035871819961458  0.1580729050682024  0.5003987480424072  1.0000
  C   C22       1.0  0.27445224614437086  0.49882879671090313  0.4969697795104722  1.0000
  C   C23       1.0  0.747497821771802  0.5008808918393016  0.49305929492580713  1.0000
  C   C24       1.0  0.4538510794306987  0.03910595996023151  0.44417049935003666  1.0000
  C   C25       1.0  0.5458708582462962  0.036531948824389794  0.5579873153270043  1.0000
  C   C26       1.0  0.4532168511047275  0.962835404919062  0.4442505472838718  1.0000
  C   C27       1.0  0.5459087798998398  0.9603199329660014  0.5579360794878241  1.0000
  C   C28       1.0  0.5000872088577354  0.922234598427693  0.5009352759981099  1.0000
  C   C29       1.0  0.5007079650758257  0.07726017008881311  0.5008863433120965  1.0000
  C   C30       1.0  0.6021179312718491  0.8017427952156738  0.527110763544819  1.0000
  C   C31       1.0  0.4056104710586723  0.8012510616533106  0.4731199705971179  1.0000
  C   C32       1.0  0.6023206479593811  0.7256876839978403  0.5247951181124364  1.0000
  C   C33       1.0  0.4115070152076542  0.7251646807999138  0.47367010129897835  1.0000
  C   C34       1.0  0.502370587925178  0.8414274194427236  0.5004331504733983  1.0000
  C   C35       1.0  0.14486020815554923  0.4372462739856573  0.37879911664022364  1.0000
  C   C36       1.0  0.8894251181709337  0.4417864700399292  0.3729768188701001  1.0000
  C   C37       1.0  0.08475649069092131  0.41109207287883726  0.32163145708094726  1.0000
  C   C38       1.0  0.9562633112934196  0.413949075339893  0.3185428206277976  1.0000
  C   C39       1.0  0.9482317483169282  0.46912745792820953  0.4328717517699801  1.0000
  C   C40       1.0  0.0789056459865947  0.46774896740246424  0.43519877530230383  1.0000
  C   C41       1.0  0.13870226464504037  0.4996362127447682  0.49282446826985893  1.0000
  C   C42       1.0  0.8833532057072447  0.501232996183795  0.48935655042761533  1.0000
  C   C43       1.0  0.0732673621293998  0.5326474036328648  0.5452036359317135  1.0000
  C   C44       1.0  0.9454267827176325  0.5332952090173889  0.5433413958216348  1.0000
  C   C45       1.0  0.5404503036775523  0.5251579732382082  0.7591773536144544  1.0000
  C   C46       1.0  0.354745028468173  0.5482448462434492  0.2629831887851708  1.0000
  C   C47       1.0  0.5052035689593808  0.5235999953282402  0.8291681902385335  1.0000
  C   C48       1.0  0.3188629035801185  0.5420389172167148  0.1935165155551175  1.0000
  C   C49       1.0  0.6615264673095639  0.5578800265835397  0.7379606041559655  1.0000
  C   C50       1.0  0.6562144529474593  0.6415039368015202  0.7271765008051503  1.0000
  C   C51       1.0  0.29248268421974905  0.6050718260224174  0.307132530627932  1.0000
  C   C52       1.0  0.3464649362839012  0.6818175798839833  0.2951701510900548  1.0000
  C   C53       1.0  0.2202660295052823  0.36746143438792694  0.692828093521662  1.0000
  C   C54       1.0  0.1535783858373776  0.34579063709504965  0.6276038078864588  1.0000
  C   C55       1.0  0.558340955525594  0.3297400595498631  0.2828763422790814  1.0000
  C   C56       1.0  0.6610418552421535  0.2922053943922834  0.32208286782444157  1.0000
  C   C57       1.0  0.23091704469666754  0.3197647615741134  0.925626803704013  1.0000
  C   C58       1.0  0.2533055651747844  0.255100839993375  0.8788384576869888  1.0000
  C   C59       1.0  0.2137909168876178  0.3527227001878331  0.11669761349452298  1.0000
  C   C60       1.0  0.2230979864450617  0.27987444566215214  0.1554130322813663  1.0000
  N   N1        1.0  0.5102665240639227  0.3114940037253078  0.49986195797037425  1.0000
  N   N2        1.0  0.5084699302341278  0.6881303938760013  0.4986267360965115  1.0000
  O   O1        1.0  0.47604267036645354  0.44033664636077663  0.3961565365942263  1.0000
  O   O2        1.0  0.525758861291976  0.43549300445149436  0.6065065820445384  1.0000
  O   O3        1.0  0.5205078784070168  0.5614931896498875  0.38940020834710515  1.0000
  O   O4        1.0  0.48717284916082804  0.5578514679990222  0.6030097639556333  1.0000
  O   O5        1.0  0.3256749398022691  0.4376612858275664  0.5097558559269544  1.0000
  O   O6        1.0  0.6943016450817583  0.4397349115147832  0.48475031267923185  1.0000
  O   O7        1.0  0.32704767732428763  0.5602810479337705  0.4871552837510578  1.0000
  O   O8        1.0  0.6954342452909827  0.5617386737281151  0.5060733813706904  1.0000
  O   O9        1.0  0.2773824979305601  0.4373972824226016  0.6797893989863368  1.0000
  O   O10       1.0  0.5932097559667753  0.40489823022144117  0.2691031429611073  1.0000
  O   O11       1.0  0.34243768194193086  0.3607961295363111  0.9278190738667645  1.0000
  O   O12       1.0  0.3171834052947418  0.3586499469063185  0.070214349621466  1.0000
