data_image0
_chemical_formula_structural       Zn4H64C82N8O24
_chemical_formula_sum              "Zn4 H64 C82 N8 O24"
_cell_length_a       9.257641753483563
_cell_length_b       13.66926171719785
_cell_length_c       20.25108486366401
_cell_angle_alpha    86.68954092297334
_cell_angle_beta     80.22959830591022
_cell_angle_gamma    70.2162457191899

_space_group_name_H-M_alt    "P 1"
_space_group_IT_number       1

loop_
  _space_group_symop_operation_xyz
  'x, y, z'

loop_
  _atom_site_type_symbol
  _atom_site_label
  _atom_site_symmetry_multiplicity
  _atom_site_fract_x
  _atom_site_fract_y
  _atom_site_fract_z
  _atom_site_occupancy
  Zn  Zn1       1.0  0.6047329492192829  0.7386648668283939  0.01056877263878422  1.0000
  Zn  Zn2       1.0  0.156722718035482  0.7384492041354704  0.489462248055112  1.0000
  Zn  Zn3       1.0  0.39526459954362286  0.26133364643976614  0.9894330760550853  1.0000
  Zn  Zn4       1.0  0.8432780726388744  0.2615493103097535  0.5105353910187345  1.0000
  H   H1        1.0  0.37804450094857606  0.6366311164786894  0.05356516004584218  1.0000
  H   H2        1.0  0.4853265044204279  0.6364519087370372  0.4466784358516519  1.0000
  H   H3        1.0  0.6219488891150889  0.36337361543709085  0.9464407223889563  1.0000
  H   H4        1.0  0.514676205667513  0.36354504996498344  0.5533230625903724  1.0000
  H   H5        1.0  0.3579931436834301  0.48314911345821804  0.12379743969464123  1.0000
  H   H6        1.0  0.659025273566023  0.483132545663203  0.3763844846382652  1.0000
  H   H7        1.0  0.6420032623496753  0.5168517317206706  0.8762063821509753  1.0000
  H   H8        1.0  0.34097884559591324  0.516865968239621  0.6236163450760726  1.0000
  H   H9        1.0  0.8510678675222749  0.39974765567818343  0.1300303000746368  1.0000
  H   H10       1.0  0.24948304402326488  0.399636720542233  0.3699257309309657  1.0000
  H   H11       1.0  0.1489358572623303  0.6002516357956936  0.8699700362053161  1.0000
  H   H12       1.0  0.7505184367587319  0.6003625717899653  0.6300703404022838  1.0000
  H   H13       1.0  0.8509218278532487  0.5520187394285968  0.059538929208621  1.0000
  H   H14       1.0  0.09726280165470774  0.5517032410977548  0.44050223063401006  1.0000
  H   H15       1.0  0.14907377788170356  0.44798366112164706  0.9404629190668241  1.0000
  H   H16       1.0  0.9027383136086655  0.44829682823234424  0.5594958140183619  1.0000
  H   H17       1.0  0.770840059441838  0.3221379189158924  0.22657863768263545  1.0000
  H   H18       1.0  0.40732908511712657  0.3222403315381542  0.27332415610241867  1.0000
  H   H19       1.0  0.22915779082312335  0.6778621496956702  0.7734216431869567  1.0000
  H   H20       1.0  0.59267518442676  0.6777644028491778  0.7266739433745142  1.0000
  H   H21       1.0  0.7946185028759205  0.234655937943387  0.15911363684259067  1.0000
  H   H22       1.0  0.47078816058821354  0.23486067176025216  0.3408972710587363  1.0000
  H   H23       1.0  0.20538122640042644  0.7653425757273808  0.8408870499402707  1.0000
  H   H24       1.0  0.5292052126876216  0.7651417294190564  0.6591012989714071  1.0000
  H   H25       1.0  0.5073731415479443  0.1111187589662777  0.24264219825179364  1.0000
  H   H26       1.0  0.8814876806891334  0.110964529429431  0.2575183861571303  1.0000
  H   H27       1.0  0.49263027019112854  0.8888789773934603  0.7573587191510356  1.0000
  H   H28       1.0  0.11851233224664527  0.8890378710089807  0.7424850851018971  1.0000
  H   H29       1.0  0.5253331282210851  0.19255345160338072  0.1710267869069426  1.0000
  H   H30       1.0  0.782186364264504  0.19244739737351327  0.32908176789585025  1.0000
  H   H31       1.0  0.47467138531818154  0.807444284728405  0.8289745362417872  1.0000
  H   H32       1.0  0.2178086269228602  0.8075518927191965  0.6709222293267485  1.0000
  H   H33       1.0  0.9262846233305955  0.8808869444440858  0.14728896306563397  1.0000
  H   H34       1.0  0.6926136651745055  0.8807456077197671  0.35285295708325737  1.0000
  H   H35       1.0  0.07372306810355413  0.11911312540604507  0.8527085559579033  1.0000
  H   H36       1.0  0.3073820103487678  0.119254460374556  0.6471489790480475  1.0000
  H   H37       1.0  0.8867517756879054  0.7491582784558234  0.07805302163925626  1.0000
  H   H38       1.0  0.8638869372858767  0.7489600943628927  0.4220881140896749  1.0000
  H   H39       1.0  0.11325132300562056  0.2508379027897761  0.9219484768864487  1.0000
  H   H40       1.0  0.13611022287144442  0.25103919636168837  0.577913734520507  1.0000
  H   H41       1.0  0.4457654120915183  0.9440122387299752  0.05537983558716056  1.0000
  H   H42       1.0  0.11023168729903446  0.9437480685946085  0.444654589093055  1.0000
  H   H43       1.0  0.5542394202650343  0.05598705260131709  0.9446213997893833  1.0000
  H   H44       1.0  0.889764376829824  0.0562512220433007  0.5553473471219305  1.0000
  H   H45       1.0  0.46592841990471356  0.0851846069108078  0.12075468362121455  1.0000
  H   H46       1.0  0.9487606650650021  0.08505866388780702  0.3793949513513226  1.0000
  H   H47       1.0  0.5340796832219966  0.9148146850243892  0.8792448088888134  1.0000
  H   H48       1.0  0.05123757957728968  0.9149406271527029  0.6206058229526616  1.0000
  H   H49       1.0  0.7800936900394221  0.8402601301672449  0.8115615213853713  1.0000
  H   H50       1.0  0.880139302700272  0.8403469513337569  0.688492308479617  1.0000
  H   H51       1.0  0.21991190221308443  0.1597376065951011  0.18843823410644936  1.0000
  H   H52       1.0  0.11986372043320159  0.15965156248240225  0.31150860883953146  1.0000
  H   H53       1.0  0.9537320654075998  0.506739294937141  0.8125673784892978  1.0000
  H   H54       1.0  0.039022858471774814  0.5068554441847084  0.6874255123407023  1.0000
  H   H55       1.0  0.046261128627570335  0.49325688633081916  0.1874314550247503  1.0000
  H   H56       1.0  0.9609683752202117  0.49314462470922393  0.3125718407028088  1.0000
  H   H57       1.0  0.025921730273204085  0.8465281632788547  0.9329055506743839  1.0000
  H   H58       1.0  0.6275756168242097  0.8464080128883609  0.5670065477401777  1.0000
  H   H59       1.0  0.9740760848339107  0.15347423710084482  0.06709760244355319  1.0000
  H   H60       1.0  0.37241852211932536  0.1535928336073766  0.43299103575593273  1.0000
  H   H61       1.0  0.20919411547996722  0.9931505437386077  0.06398322356324827  1.0000
  H   H62       1.0  0.2972981917578043  0.9934026747181333  0.43613985042738784  1.0000
  H   H63       1.0  0.7908033750381165  0.006850301756216498  0.9360195239761635  1.0000
  H   H64       1.0  0.7026973735749564  0.0065997266345191995  0.5638585443931489  1.0000
  C   C1        1.0  0.47790497682942884  0.5833541107120367  0.07363782456508969  1.0000
  C   C2        1.0  0.43884266053726845  0.5831793162584233  0.42653566225317247  1.0000
  C   C3        1.0  0.5220939285344031  0.4166482898689664  0.9263647475973397  1.0000
  C   C4        1.0  0.5611588664186726  0.41681997515674135  0.57346435588569  1.0000
  C   C5        1.0  0.46739096541664077  0.4987228078355984  0.11216375821157237  1.0000
  C   C6        1.0  0.534027170419762  0.49868200059577844  0.38794324329467844  1.0000
  C   C7        1.0  0.5326076153581669  0.5012780378605298  0.8878384083723314  1.0000
  C   C8        1.0  0.46597506395904287  0.5013180683624725  0.612056687155693  1.0000
  C   C9        1.0  0.6010124345397542  0.4319500295998466  0.13550806432020576  1.0000
  C   C10       1.0  0.4672609938588012  0.431927451899078  0.36449171526849244  1.0000
  C   C11       1.0  0.39898504443484484  0.5680508161242344  0.8644936965177974  1.0000
  C   C12       1.0  0.5327441924728832  0.5680710626635702  0.635506560087542  1.0000
  C   C13       1.0  0.7419591803518487  0.4508301222046853  0.11633758301384486  1.0000
  C   C14       1.0  0.3075033867257206  0.4506964627228525  0.3836644376854394  1.0000
  C   C15       1.0  0.2580412678908532  0.5491691687799046  0.8836640027819268  1.0000
  C   C16       1.0  0.6925029014061723  0.5493020518118427  0.6163342434164888  1.0000
  C   C17       1.0  0.742316306506872  0.5370719543503385  0.07693233367514549  1.0000
  C   C18       1.0  0.22082189756025639  0.536811241397281  0.42315436012246704  1.0000
  C   C19       1.0  0.25768009375449463  0.462928890943182  0.9230709948197667  1.0000
  C   C20       1.0  0.7791825115602506  0.4631888280782022  0.5768439150661918  1.0000
  C   C21       1.0  0.7128612343742305  0.28088419259784564  0.20095685387689594  1.0000
  C   C22       1.0  0.5064600582968808  0.28099424843944126  0.29902628233696044  1.0000
  C   C23       1.0  0.2871413943819122  0.719115098789352  0.7990435700078603  1.0000
  C   C24       1.0  0.49353652750428273  0.7190104855704362  0.700971443672209  1.0000
  C   C25       1.0  0.6441511948629569  0.21187426200246762  0.25001876629917763  1.0000
  C   C26       1.0  0.3558500305909291  0.7881234740692946  0.7499828196639625  1.0000
  C   C27       1.0  0.5861721731719028  0.14494838645310892  0.2100373490596965  1.0000
  C   C28       1.0  0.768892933657  0.14487857853094252  0.2900825661141154  1.0000
  C   C29       1.0  0.41383303047501135  0.8550501277656509  0.7899624063484365  1.0000
  C   C30       1.0  0.23110416825549157  0.8551230444203028  0.7099201813416085  1.0000
  C   C31       1.0  0.697164657192957  0.9922288606200809  0.14209879716008797  1.0000
  C   C32       1.0  0.8104200185308061  0.9921014147975171  0.3580300054264212  1.0000
  C   C33       1.0  0.3028427154239068  0.007769654230550301  0.8578988096356354  1.0000
  C   C34       1.0  0.18957822611149308  0.007897876242992699  0.6419707688775559  1.0000
  C   C35       1.0  0.8174871912373123  0.8966629755736407  0.12827582235819784  1.0000
  C   C36       1.0  0.7856646921082703  0.8965071006083958  0.37184798093289817  1.0000
  C   C37       1.0  0.18252275049858468  0.10333476222317736  0.8717206226101977  1.0000
  C   C38       1.0  0.21433175485444167  0.10349141268772401  0.6281534620150778  1.0000
  C   C39       1.0  0.7954958845047245  0.8238494999840354  0.08986211866542249  1.0000
  C   C40       1.0  0.8805346751294962  0.8236462438459783  0.41025640916771516  1.0000
  C   C41       1.0  0.2045126014558321  0.17614901460937923  0.9101368805775959  1.0000
  C   C42       1.0  0.11946216043880042  0.17635149199372793  0.5897450338639486  1.0000
  C   C43       1.0  0.5496061987689916  0.9335905389860529  0.07718393589995999  1.0000
  C   C44       1.0  0.016688225880415044  0.9333852330798611  0.42289511273818886  1.0000
  C   C45       1.0  0.4504011853913639  0.06640797563531461  0.9228146575971649  1.0000
  C   C46       1.0  0.983307844020189  0.0666140574434166  0.5771073168275008  1.0000
  C   C47       1.0  0.5605991462264441  0.011079934518079398  0.11509037994405695  1.0000
  C   C48       1.0  0.9281737993078352  0.010930394671532903  0.38503595031787075  1.0000
  C   C49       1.0  0.4394077737682664  0.9889216901302619  0.8849076322628162  1.0000
  C   C50       1.0  0.07182264765486948  0.9890681186245871  0.6149654926301052  1.0000
  C   C51       1.0  0.80476352412704  0.6721490871223208  0.8933011370365375  1.0000
  C   C52       1.0  0.0234225656831769  0.6722440455594665  0.6067815955802727  1.0000
  C   C53       1.0  0.1952267006400277  0.32784864888513  0.10669787151974218  1.0000
  C   C54       1.0  0.9765800457577358  0.32775524617162693  0.393217348252385  1.0000
  C   C55       1.0  0.8607059556444909  0.6733787112485247  0.819237224475394  1.0000
  C   C56       1.0  0.9660242701195474  0.6734499898802397  0.6808253347423301  1.0000
  C   C57       1.0  0.13929188307698578  0.32662135759229477  0.18076206969278988  1.0000
  C   C58       1.0  0.03397544761331524  0.32654852401979173  0.31917436533912985  1.0000
  C   C59       1.0  0.8389943992444916  0.7674823984878926  0.7842081992760439  1.0000
  C   C60       1.0  0.8939124797084829  0.7675374160192381  0.7158403965462764  1.0000
  C   C61       1.0  0.16100892539103734  0.23251767067166182  0.2157911502188198  1.0000
  C   C62       1.0  0.10608833982458074  0.2324610978528341  0.2841597092810772  1.0000
  C   C63       1.0  0.9357434505533676  0.5792540801597853  0.7844915210820101  1.0000
  C   C64       1.0  0.9847267060557813  0.5792972100484733  0.7155516705111109  1.0000
  C   C65       1.0  0.06425586125867971  0.4207452115405487  0.21550669886365623  1.0000
  C   C66       1.0  0.01527041369933365  0.4207020814785167  0.28444672464416226  1.0000
  C   C67       1.0  0.2754880186498811  0.815639251297725  0.9927405447741503  1.0000
  C   C68       1.0  0.4087240642474441  0.8156593743076286  0.5072755997750915  1.0000
  C   C69       1.0  0.724514145940617  0.18436315011643964  0.007259297820361587  1.0000
  C   C70       1.0  0.5912743717063976  0.18434380533461342  0.49272006539383967  1.0000
  C   C71       1.0  0.13196066162429085  0.9105993590827737  0.9977253554950632  1.0000
  C   C72       1.0  0.4572341588251165  0.9106365210442391  0.5023047726619366  1.0000
  C   C73       1.0  0.8680403313776994  0.0894053748152785  0.002273993497688298  1.0000
  C   C74       1.0  0.5427610121303064  0.0893666578794665  0.4976931287242079  1.0000
  C   C75       1.0  0.013547475887534844  0.9145004035880362  0.9618391539240105  1.0000
  C   C76       1.0  0.5719905906942133  0.9144307759788434  0.5380856061986207  1.0000
  C   C77       1.0  0.986456503697781  0.08550277522663662  0.03816150007860127  1.0000
  C   C78       1.0  0.4280009675867974  0.08557084779996421  0.461912152423423  1.0000
  C   C79       1.0  0.11694707865450485  0.9967146653275593  0.03606023912396949  1.0000
  C   C80       1.0  0.38609237469228935  0.9968442257399204  0.46401965720357896  1.0000
  C   C81       1.0  0.8830602645762512  0.0032861811765770004  0.9639407332707958  1.0000
  C   C82       1.0  0.6139005344179013  0.0031612854663620993  0.5359783315363201  1.0000
  N   N1        1.0  0.6127304700447598  0.6040424703495546  0.05686432340516484  1.0000
  N   N2        1.0  0.28334396061164574  0.6037902264412481  0.4432646551124007  1.0000
  N   N3        1.0  0.3872651587771686  0.3959599297421689  0.9431394982730833  1.0000
  N   N4        1.0  0.7166579376346575  0.39620828786138423  0.5567338830580437  1.0000
  N   N5        1.0  0.6625517783410259  0.8404254747251728  0.06494275187103676  1.0000
  N   N6        1.0  0.9969481465435877  0.8401938097205817  0.4351360668175061  1.0000
  N   N7        1.0  0.337454126957013  0.1595738171513048  0.9350564224979078  1.0000
  N   N8        1.0  0.0030475232079397135  0.15980625848837351  0.5648653759630944  1.0000
  O   O1        1.0  0.5818389877687338  0.3539489831918415  0.17551874704955844  1.0000
  O   O2        1.0  0.5644486206793006  0.35409671871629916  0.3244025573270618  1.0000
  O   O3        1.0  0.4181603413585437  0.6460503081646037  0.8244809529482066  1.0000
  O   O4        1.0  0.43555250612756446  0.645903350384536  0.6755964740267187  1.0000
  O   O5        1.0  0.7212194088174826  0.06095053352812841  0.18040873237583097  1.0000
  O   O6        1.0  0.7176184845341284  0.0609209488557383  0.3197603151025702  1.0000
  O   O7        1.0  0.27878431596712283  0.9390487579457484  0.8195916039041219  1.0000
  O   O8        1.0  0.28238195216508893  0.9390783423581156  0.6802402839918  1.0000
  O   O9        1.0  0.6889210335929121  0.7543521457471769  0.9161577648903075  1.0000
  O   O10       1.0  0.05757228240261742  0.7543245360998225  0.5839687730120955  1.0000
  O   O11       1.0  0.3110804351181997  0.245649477894645  0.0838431520940972  1.0000
  O   O12       1.0  0.9424436555869139  0.24567009107171595  0.4160322553788303  1.0000
  O   O13       1.0  0.8675193992615036  0.5961881065990157  0.9280521190816625  1.0000
  O   O14       1.0  0.0363594451594196  0.5963973329366682  0.5719912978465017  1.0000
  O   O15       1.0  0.1324545949709588  0.40380029966021175  0.07194263476173289  1.0000
  O   O16       1.0  0.963627653447695  0.40360662306599693  0.42800622998819177  1.0000
  O   O17       1.0  0.38186209200932814  0.823695921747337  0.024384711010291892  1.0000
  O   O18       1.0  0.2946362517422046  0.823540429809917  0.4754549375710083  1.0000
  O   O19       1.0  0.6181385879471223  0.17630725703657646  0.9756152191053428  1.0000
  O   O20       1.0  0.7053607809093735  0.17646119451688946  0.524541889676307  1.0000
  O   O21       1.0  0.28549552936080863  0.7383122995702893  0.9601719937645753  1.0000
  O   O22       1.0  0.4758576943826044  0.7384232907399237  0.5399806722828302  1.0000
  O   O23       1.0  0.7145053363461996  0.261686213384742  0.03983205886838449  1.0000
  O   O24       1.0  0.5241422262052853  0.26157911153257624  0.46001490536498557  1.0000
