data_image0
_chemical_formula_structural       Tl8H8C16S4N8O8
_chemical_formula_sum              "Tl8 H8 C16 S4 N8 O8"
_cell_length_a       3.9275602735645214
_cell_length_b       12.828222631354011
_cell_length_c       15.102078168792119
_cell_angle_alpha    90.0003368461166
_cell_angle_beta     96.0641964891866
_cell_angle_gamma    89.99917636853252

_space_group_name_H-M_alt    "P 1"
_space_group_IT_number       1

loop_
  _space_group_symop_operation_xyz
  'x, y, z'

loop_
  _atom_site_type_symbol
  _atom_site_label
  _atom_site_symmetry_multiplicity
  _atom_site_fract_x
  _atom_site_fract_y
  _atom_site_fract_z
  _atom_site_occupancy
  Tl  Tl1       1.0  0.5063867825621601  0.6715292714233742  0.9379720655793519  1.0000
  Tl  Tl2       1.0  0.993616504257034  0.1715285504495654  0.5620253570474742  1.0000
  Tl  Tl3       1.0  0.49361409051920196  0.32847330017257553  0.06202862110637138  1.0000
  Tl  Tl4       1.0  0.006379292682432003  0.8284732416214029  0.43797385438811176  1.0000
  Tl  Tl5       1.0  0.3013514312030523  0.09808538288326221  0.8987684261861301  1.0000
  Tl  Tl6       1.0  0.1986467678845472  0.598086822166195  0.6012278912578777  1.0000
  Tl  Tl7       1.0  0.6986546739187247  0.9019148500964962  0.10122910507661939  1.0000
  Tl  Tl8       1.0  0.8013361383053663  0.4019149699413306  0.3987735857710532  1.0000
  H   H1        1.0  0.6189068457998418  0.2443865642614043  0.7452362804687026  1.0000
  H   H2        1.0  0.8810958049759848  0.7443827917588238  0.7547595092369406  1.0000
  H   H3        1.0  0.38109660990113536  0.7556152277955519  0.2547638207920996  1.0000
  H   H4        1.0  0.11889994751082608  0.2556158821919396  0.24524102524053146  1.0000
  H   H5        1.0  0.052698253058522895  0.46908131582932117  0.9283902488483377  1.0000
  H   H6        1.0  0.44731674736288346  0.9690814418667701  0.5716044919107259  1.0000
  H   H7        1.0  0.9473153995360164  0.5309181376168581  0.07161147985758018  1.0000
  H   H8        1.0  0.5526764893578715  0.0309148934911292  0.4283946434141085  1.0000
  C   C1        1.0  0.6431940914652755  0.39526460523784823  0.6953682365753834  1.0000
  C   C2        1.0  0.8568069668336804  0.8952581667750722  0.804626952918795  1.0000
  C   C3        1.0  0.356796473521058  0.6047356277932324  0.304634130275808  1.0000
  C   C4        1.0  0.1431939953973895  0.1047397276242563  0.19537108766253647  1.0000
  C   C5        1.0  0.8910388278875984  0.5227497068674083  0.7938552392912043  1.0000
  C   C6        1.0  0.6089943217461594  0.0227415610989041  0.7061376748545882  1.0000
  C   C7        1.0  0.1089594848528392  0.4772528647339912  0.20614537129407037  1.0000
  C   C8        1.0  0.3910169486672288  0.9772547742092146  0.2938586855538999  1.0000
  C   C9        1.0  0.8226150080763546  0.3446037756172374  0.8475744126734595  1.0000
  C   C10       1.0  0.6773907904888858  0.8446017650527508  0.6524233074192052  1.0000
  C   C11       1.0  0.17738840311959342  0.6553972369131671  0.15242701163364095  1.0000
  C   C12       1.0  0.32260496203284117  0.15539534983557965  0.3475772270553108  1.0000
  C   C13       1.0  0.9286926453714698  0.4482773461722757  0.8629157869677183  1.0000
  C   C14       1.0  0.5713186842159175  0.948278821039885  0.6370846142119645  1.0000
  C   C15       1.0  0.07131584196637421  0.5517244458831101  0.1370871125895192  1.0000
  C   C16       1.0  0.4286744856861944  0.0517190733874315  0.36291650568747247  1.0000
  S   S1        1.0  0.46708303172612636  0.36043128154850734  0.5897946475512439  1.0000
  S   S2        1.0  0.03291361388593831  0.8604324722658492  0.9102042895683125  1.0000
  S   S3        1.0  0.5329101603324773  0.6395712900637847  0.4102058108331476  1.0000
  S   S4        1.0  0.967097589586608  0.13957087883020589  0.08979405542510217  1.0000
  N   N1        1.0  0.6849306474526458  0.3212505866610727  0.7606194023097288  1.0000
  N   N2        1.0  0.8150659333766513  0.8212524592863275  0.7393785865875839  1.0000
  N   N3        1.0  0.3150676207827701  0.6787512054137679  0.23938253132185136  1.0000
  N   N4        1.0  0.18493237943361862  0.17874699419020604  0.260622023991793  1.0000
  N   N5        1.0  0.7367217465557873  0.4937231404173659  0.7108491088323061  1.0000
  N   N6        1.0  0.7632876588249929  0.9937255871638939  0.7891481566117091  1.0000
  N   N7        1.0  0.2632661912884515  0.5062778721573694  0.2891551664915751  1.0000
  N   N8        1.0  0.23672356697862543  0.006274645804971601  0.21084952685192346  1.0000
  O   O1        1.0  0.9929053105280304  0.6182654729843194  0.8034991340933145  1.0000
  O   O2        1.0  0.5071159241687226  0.1182725261453399  0.696492589985233  1.0000
  O   O3        1.0  0.0070852767195504025  0.3817347600444307  0.19650257123399226  1.0000
  O   O4        1.0  0.4928979955432594  0.8817277068040923  0.30350120043551937  1.0000
  O   O5        1.0  0.8429458858254294  0.2715493820010479  0.9053708200271371  1.0000
  O   O6        1.0  0.6570530770323159  0.7715462840650888  0.5946223502171148  1.0000
  O   O7        1.0  0.1570627128535378  0.7284508509802523  0.09462877190771478  1.0000
  O   O8        1.0  0.34294011520086093  0.22844849223503164  0.40537810815254  1.0000
