data_image0
_chemical_formula_structural       Li2H16C16Cl2O8
_chemical_formula_sum              "Li2 H16 C16 Cl2 O8"
_cell_length_a       4.963245055723114
_cell_length_b       7.42501364038073
_cell_length_c       14.132789529597142
_cell_angle_alpha    84.88214038707764
_cell_angle_beta     80.6515433298757
_cell_angle_gamma    70.42984558025297

_space_group_name_H-M_alt    "P 1"
_space_group_IT_number       1

loop_
  _space_group_symop_operation_xyz
  'x, y, z'

loop_
  _atom_site_type_symbol
  _atom_site_label
  _atom_site_symmetry_multiplicity
  _atom_site_fract_x
  _atom_site_fract_y
  _atom_site_fract_z
  _atom_site_occupancy
  Li  Li1       1.0  0.6491027756347447  0.008147649928204697  0.4383770397840223  1.0000
  Li  Li2       1.0  0.10775488596829783  0.9580082162641899  0.559953037736122  1.0000
  H   H1        1.0  0.33710742279392025  0.5624514824758649  0.05678956283775699  1.0000
  H   H2        1.0  0.9450092147235905  0.4448981376153469  0.9463906195816707  1.0000
  H   H3        1.0  0.5088094995598809  0.2165617542143679  0.019925454408252097  1.0000
  H   H4        1.0  0.7476881987844097  0.7900175718271852  0.9856475948407207  1.0000
  H   H5        1.0  0.9109027067822951  0.9883625822758263  0.101126027373077  1.0000
  H   H6        1.0  0.01133708727766717  0.012699688287867196  0.9082803851959653  1.0000
  H   H7        1.0  0.11999361766019943  0.10222410277295779  0.2195869975771743  1.0000
  H   H8        1.0  0.45472308063289557  0.892141646981635  0.7936876053388532  1.0000
  H   H9        1.0  0.2418582629351604  0.42689304055781446  0.3665210990158272  1.0000
  H   H10       1.0  0.04208849637716848  0.553388981097754  0.6511566698427631  1.0000
  H   H11       1.0  0.35741140330149784  0.25715750413413463  0.2756803996972579  1.0000
  H   H12       1.0  0.8891280334139464  0.739486658569426  0.7331837139200276  1.0000
  H   H13       1.0  0.8869922423939799  0.7269050048184766  0.3098344152645893  1.0000
  H   H14       1.0  0.8424951781968129  0.27988900170999637  0.6728462761946974  1.0000
  H   H15       1.0  0.11022569786255328  0.8117750430859729  0.3382119538558826  1.0000
  H   H16       1.0  0.7978211757039375  0.2786926954938593  0.5667393036452495  1.0000
  C   C1        1.0  0.8523996143492667  0.39707563684448377  0.20625620213505874  1.0000
  C   C2        1.0  0.4571739178381549  0.6005952983099477  0.8054244086091346  1.0000
  C   C3        1.0  0.631988454800499  0.5241073653305363  0.15840885895467238  1.0000
  C   C4        1.0  0.3085906396401085  0.4771768672692716  0.8499662354565986  1.0000
  C   C5        1.0  0.508821137815161  0.46035949718369534  0.09205453656198162  1.0000
  C   C6        1.0  0.056296609737501106  0.5442214400948301  0.9144111008191658  1.0000
  C   C7        1.0  0.6070681899422538  0.2666319842255973  0.0712191237743198  1.0000
  C   C8        1.0  0.9471385383454698  0.7374528355043353  0.9361378612512754  1.0000
  C   C9        1.0  0.8300352564255318  0.13981964299104277  0.11659050180956142  1.0000
  C   C10       1.0  0.09373774061533187  0.8612533395191163  0.8928925744926843  1.0000
  C   C11       1.0  0.9508990942396736  0.20409573389098767  0.18366496908555524  1.0000
  C   C12       1.0  0.34573199113881264  0.7936699302284324  0.8281377499518001  1.0000
  C   C13       1.0  0.1689127038697436  0.33857839999242867  0.3248070429042826  1.0000
  C   C14       1.0  0.8369567630457837  0.6476478747160712  0.6870108327062852  1.0000
  C   C15       1.0  0.053168116295424374  0.20230119731288454  0.3944936620822475  1.0000
  C   C16       1.0  0.6585597518858821  0.7704966421695403  0.611426679267467  1.0000
  Cl  Cl1       1.0  0.513702013954493  0.7649372482294085  0.1831766647407775  1.0000
  Cl  Cl2       1.0  0.4402853257189107  0.23831955798476656  0.8215818220009652  1.0000
  O   O1        1.0  0.9044074330897512  0.8330525051336012  0.34221971528270967  1.0000
  O   O2        1.0  0.9359409661073742  0.22009648587788888  0.6117577138732884  1.0000
  O   O3        1.0  0.9566887626530871  0.4708875451379342  0.2719945749393631  1.0000
  O   O4        1.0  0.7023533648977176  0.522141305406869  0.7435459236813671  1.0000
  O   O5        1.0  0.7843920607610854  0.23742730000970622  0.4160249495167535  1.0000
  O   O6        1.0  0.4173325357738875  0.755027807754722  0.6054289251646736  1.0000
  O   O7        1.0  0.246305108611658  0.05981506933869699  0.4276636797267415  1.0000
  O   O8        1.0  0.7730780104794169  0.8830996029887002  0.5597609741247639  1.0000
