data_image0
_chemical_formula_structural       Zn2H40C38N4O8
_chemical_formula_sum              "Zn2 H40 C38 N4 O8"
_cell_length_a       9.057906257485072
_cell_length_b       9.607486527126456
_cell_length_c       11.614721210599571
_cell_angle_alpha    80.88398447435948
_cell_angle_beta     87.3853801646588
_cell_angle_gamma    64.98636792212854

_space_group_name_H-M_alt    "P 1"
_space_group_IT_number       1

loop_
  _space_group_symop_operation_xyz
  'x, y, z'

loop_
  _atom_site_type_symbol
  _atom_site_label
  _atom_site_symmetry_multiplicity
  _atom_site_fract_x
  _atom_site_fract_y
  _atom_site_fract_z
  _atom_site_occupancy
  Zn  Zn1       1.0  0.186719522046829  0.29640403056998815  0.5378972890861108  1.0000
  Zn  Zn2       1.0  0.8132803977213288  0.7035944234908978  0.46210244118088895  1.0000
  H   H1        1.0  0.3675315422257767  0.023226135625961295  0.6358145921655877  1.0000
  H   H2        1.0  0.6324667549741175  0.976773508374727  0.3641876180542739  1.0000
  H   H3        1.0  0.41879482393293443  0.38669556456413545  0.044577386056381806  1.0000
  H   H4        1.0  0.5812028521474841  0.6133029407348332  0.9554267186755044  1.0000
  H   H5        1.0  0.299301262738254  0.3958285877941207  0.17256171288958919  1.0000
  H   H6        1.0  0.7006964173259715  0.604169913438092  0.8274415312641707  1.0000
  H   H7        1.0  0.43687931407405506  0.21314226393585045  0.13877365564353994  1.0000
  H   H8        1.0  0.5631149278691582  0.7868539623299282  0.8612274250615573  1.0000
  H   H9        1.0  0.9072620946032682  0.40085719845021106  0.04167444391273282  1.0000
  H   H10       1.0  0.09273883856509715  0.5991389147688932  0.9583221191790374  1.0000
  H   H11       1.0  0.0008238041190083166  0.4288041332388274  0.16350590778694854  1.0000
  H   H12       1.0  0.9991765119136816  0.5711908372118017  0.836491689238713  1.0000
  H   H13       1.0  0.8271320290121196  0.5831897670141543  0.0906224951494963  1.0000
  H   H14       1.0  0.17286667241992867  0.4168063852427578  0.9093758606727536  1.0000
  H   H15       1.0  0.73075325765717  0.3732214432508627  0.5533095320096068  1.0000
  H   H16       1.0  0.2692476264885712  0.6267850768795569  0.4466873709721214  1.0000
  H   H17       1.0  0.6772141518144678  0.07816590199055179  0.5453760859470834  1.0000
  H   H18       1.0  0.32278994559735696  0.9218382707943319  0.4546227417539941  1.0000
  H   H19       1.0  0.6493406003274913  0.37777749265984534  0.7288464248734386  1.0000
  H   H20       1.0  0.3506568297620233  0.6222267687711777  0.2711517569721664  1.0000
  H   H21       1.0  0.7018465240603218  0.32066425199965903  0.94398001489148  1.0000
  H   H22       1.0  0.29815040729670267  0.6793411717187395  0.05601802938547003  1.0000
  H   H23       1.0  0.8074736169019657  0.04963940303176881  0.04535091507040082  1.0000
  H   H24       1.0  0.1925250394912723  0.9503671520697095  0.9546469200636738  1.0000
  H   H25       1.0  0.8483997181222164  0.8342152617856937  0.9348327402597152  1.0000
  H   H26       1.0  0.15160499244146305  0.16579005783442108  0.06516591408559691  1.0000
  H   H27       1.0  0.791524307471249  0.891497240027107  0.7201947864395635  1.0000
  H   H28       1.0  0.20847868204002393  0.1085069441431727  0.2798032164704907  1.0000
  H   H29       1.0  0.2117622432461631  0.23338416944353202  0.8078873696291782  1.0000
  H   H30       1.0  0.7882322275358006  0.7666166750674603  0.19211308922708534  1.0000
  H   H31       1.0  0.4103179169269848  0.1886867821069842  0.7513362901051509  1.0000
  H   H32       1.0  0.5896776498041091  0.8113140632188874  0.2486675752765423  1.0000
  H   H33       1.0  0.368110813972379  0.039377455295039  0.837853625389265  1.0000
  H   H34       1.0  0.6318836488419705  0.9606233973494722  0.16214855462327196  1.0000
  H   H35       1.0  0.18090332570646003  0.9470081589948403  0.756581275116986  1.0000
  H   H36       1.0  0.819097697978435  0.052990287747412886  0.24342014051917726  1.0000
  H   H37       1.0  0.1019670663118859  0.025657498952121195  0.6108219906017142  1.0000
  H   H38       1.0  0.8980338429536375  0.9743386386675253  0.3891797359588552  1.0000
  H   H39       1.0  0.029538283480810907  0.14220771428830398  0.7235004787677684  1.0000
  H   H40       1.0  0.9704599032835262  0.8577896165230213  0.2765011817983735  1.0000
  C   C1        1.0  0.4369552943822299  0.26597942274440095  0.3919408020494687  1.0000
  C   C2        1.0  0.5630504427500113  0.7340131857234126  0.6080620904338689  1.0000
  C   C3        1.0  0.5614161485049819  0.3097922292914176  0.32622026846312485  1.0000
  C   C4        1.0  0.4385895965948805  0.6902003710428843  0.6737809028639462  1.0000
  C   C5        1.0  0.5512069660086781  0.34368348425424233  0.20358322023962228  1.0000
  C   C6        1.0  0.4487933301049835  0.6563115065301729  0.7964186796767125  1.0000
  C   C7        1.0  0.41933026051981404  0.33423704130977666  0.13555331418053382  1.0000
  C   C8        1.0  0.580666311643867  0.6657614713078244  0.8644491051821962  1.0000
  C   C9        1.0  0.7725344587063814  0.40749547904179195  0.1976557587057784  1.0000
  C   C10       1.0  0.22746585334250113  0.592499495475593  0.8023426988980236  1.0000
  C   C11       1.0  0.8847002351103794  0.45687354398410196  0.11996545168179308  1.0000
  C   C12       1.0  0.11529896903795835  0.5431214419186716  0.8800321811309787  1.0000
  C   C13       1.0  0.7888762768269328  0.3783866859980875  0.3197331797932038  1.0000
  C   C14       1.0  0.21112303377316272  0.6216106171608117  0.6802658632514281  1.0000
  C   C15       1.0  0.6835836733923061  0.3247622757749865  0.3866741837677737  1.0000
  C   C16       1.0  0.3164168595277132  0.6752373251211309  0.6133253731434678  1.0000
  C   C17       1.0  0.7025348846306159  0.29125260654251417  0.5137810324821573  1.0000
  C   C18       1.0  0.2974676061481674  0.7087527399151409  0.4862168328592419  1.0000
  C   C19       1.0  0.6956288620513077  0.16730226142235688  0.5827500857129524  1.0000
  C   C20       1.0  0.3043752353605099  0.8327019113625267  0.4172487419881321  1.0000
  C   C21       1.0  0.7212665165186037  0.13756545112931917  0.7093670678772103  1.0000
  C   C22       1.0  0.2787359662925724  0.8624399034618476  0.29063251862046263  1.0000
  C   C23       1.0  0.6954400429160542  0.2582659781618802  0.77373226405458  1.0000
  C   C24       1.0  0.304561328010763  0.741739391881438  0.22626735823019578  1.0000
  C   C25       1.0  0.7251577025363289  0.22690219929970107  0.8937015758998826  1.0000
  C   C26       1.0  0.2748393392562605  0.7731055376080603  0.10629701803078014  1.0000
  C   C27       1.0  0.7820664714512445  0.0738894397850629  0.9517401472877083  1.0000
  C   C28       1.0  0.21793662849559328  0.9261170575745792  0.0482584052760657  1.0000
  C   C29       1.0  0.8055746534387039  0.953338684276211  0.8895099530437918  1.0000
  C   C30       1.0  0.19443166375801008  0.04666546167113239  0.1104896636611983  1.0000
  C   C31       1.0  0.774475331589194  0.9846573376400297  0.7694257727931203  1.0000
  C   C32       1.0  0.2255342068412105  0.015344452828252001  0.23057404747495983  1.0000
  C   C33       1.0  0.9198971972695201  0.3971607022786613  0.3806094729963975  1.0000
  C   C34       1.0  0.0800999999974438  0.6028389449739036  0.6193901912761675  1.0000
  C   C35       1.0  0.31725345301736496  0.1445566105249867  0.7721289446804037  1.0000
  C   C36       1.0  0.682743850701357  0.8554453539836967  0.2278721298240073  1.0000
  C   C37       1.0  0.13740255819003977  0.052242137208402484  0.6906770961946692  1.0000
  C   C38       1.0  0.8625951338256069  0.9477563518235429  0.30932356622467694  1.0000
  N   N1        1.0  0.6562078622846316  0.3895158631390244  0.14195954225504442  1.0000
  N   N2        1.0  0.34379021802794085  0.6104791504161682  0.8580407080792442  1.0000
  N   N3        1.0  0.2650362649311616  0.1102954744586242  0.665316338143157  1.0000
  N   N4        1.0  0.7349625349850301  0.8897030031879252  0.3346851490672196  1.0000
  O   O1        1.0  0.33087485918575504  0.37260109316758866  0.4452704298018021  1.0000
  O   O2        1.0  0.6691269490605971  0.6273903944876551  0.5547284405079511  1.0000
  O   O3        1.0  0.4382584486373702  0.13487211772259397  0.3919380071441268  1.0000
  O   O4        1.0  0.5617444475904988  0.8651193788810474  0.6080659908473294  1.0000
  O   O5        1.0  0.021447976036945718  0.2758906268474916  0.44407677286129416  1.0000
  O   O6        1.0  0.9785520661181973  0.724110128202483  0.555920925325026  1.0000
  O   O7        1.0  0.9254501026402758  0.5290887120277432  0.36633737420073237  1.0000
  O   O8        1.0  0.07455094096365393  0.4709097143807242  0.6336597385447577  1.0000
