data_image0
_chemical_formula_structural       Zn8H16C16O40
_chemical_formula_sum              "Zn8 H16 C16 O40"
_cell_length_a       6.172076601077693
_cell_length_b       8.875607655295735
_cell_length_c       15.410003170382554
_cell_angle_alpha    90.00078759164212
_cell_angle_beta     89.99981463669282
_cell_angle_gamma    89.99947678802005

_space_group_name_H-M_alt    "P 1"
_space_group_IT_number       1

loop_
  _space_group_symop_operation_xyz
  'x, y, z'

loop_
  _atom_site_type_symbol
  _atom_site_label
  _atom_site_symmetry_multiplicity
  _atom_site_fract_x
  _atom_site_fract_y
  _atom_site_fract_z
  _atom_site_occupancy
  Zn  Zn1       1.0  0.5247391659375111  0.551336928790178  0.3363333683182504  1.0000
  Zn  Zn2       1.0  0.975258831598545  0.44866787469859304  0.8363358034826904  1.0000
  Zn  Zn3       1.0  0.4752685714313429  0.051335463796768  0.16366500578016746  1.0000
  Zn  Zn4       1.0  0.0247302317858669  0.9486606268417928  0.6636642148973169  1.0000
  Zn  Zn5       1.0  0.47525923446307416  0.44866295486986735  0.6636606364856592  1.0000
  Zn  Zn6       1.0  0.024739568786223704  0.5513308823476777  0.16366404167896326  1.0000
  Zn  Zn7       1.0  0.5247346895246068  0.9486655466467794  0.8363387329619701  1.0000
  Zn  Zn8       1.0  0.9752697887864059  0.0513381302378377  0.3363388749089254  1.0000
  H   H1        1.0  0.8611824396562611  0.4124064835788133  0.40915671918439517  1.0000
  H   H2        1.0  0.6388085050613911  0.5875955500697573  0.9091600540571962  1.0000
  H   H3        1.0  0.1388304523330248  0.9123922409589797  0.09084062186457943  1.0000
  H   H4        1.0  0.3611802643994651  0.0875885926231987  0.5908455398015422  1.0000
  H   H5        1.0  0.13880947991329148  0.5875945268556321  0.5908431259904959  1.0000
  H   H6        1.0  0.3611898953473016  0.4123998269185094  0.09083914216193284  1.0000
  H   H7        1.0  0.8611792894992547  0.08760088260189042  0.9091566275506724  1.0000
  H   H8        1.0  0.6388148956199303  0.9124034043564254  0.4091562521228839  1.0000
  H   H9        1.0  0.7669149122787646  0.5362604926803486  0.4737503806217021  1.0000
  H   H10       1.0  0.7330803856764876  0.4637397014461016  0.9737506619468734  1.0000
  H   H11       1.0  0.2330865349474749  0.036261851583901696  0.026249171907046807  1.0000
  H   H12       1.0  0.2669117274785435  0.9637343416939498  0.5262481779871069  1.0000
  H   H13       1.0  0.23307862746305122  0.46374615114265794  0.5262475177870273  1.0000
  H   H14       1.0  0.2669244955240159  0.5362579288721959  0.02624723641859821  1.0000
  H   H15       1.0  0.766923206805906  0.9637425388343958  0.9737500243402342  1.0000
  H   H16       1.0  0.7330834325454205  0.0362565286099894  0.473754262861995  1.0000
  C   C1        1.0  0.3486156534134253  0.2584873268464777  0.3050124098315764  1.0000
  C   C2        1.0  0.1513836596391869  0.7415222750836392  0.8050085113447312  1.0000
  C   C3        1.0  0.6513991852316539  0.7584778266691359  0.19499085002833993  1.0000
  C   C4        1.0  0.8486161246171521  0.2415168456202679  0.6949950573540351  1.0000
  C   C5        1.0  0.6513811267339165  0.7415136836416137  0.694993275702281  1.0000
  C   C6        1.0  0.8486228417498652  0.25847760858842866  0.194988738099454  1.0000
  C   C7        1.0  0.34861379697568406  0.24152093026722107  0.8050038036905323  1.0000
  C   C8        1.0  0.15138875656041512  0.758480784767677  0.3050086813736358  1.0000
  C   C9        1.0  0.22237548362812737  0.31048627740359064  0.386216446940793  1.0000
  C   C10       1.0  0.277615090463037  0.6895331481899232  0.8862217023878007  1.0000
  C   C11       1.0  0.777645178205681  0.8104762624823465  0.11377489522220693  1.0000
  C   C12       1.0  0.7223578080055972  0.18951759949464278  0.6137782097584152  1.0000
  C   C13       1.0  0.7776261571265977  0.6895181130336424  0.6137821003827498  1.0000
  C   C14       1.0  0.7223703482378383  0.3104757491039861  0.11378268532658353  1.0000
  C   C15       1.0  0.2223629433764813  0.18952474786780724  0.8862223542253675  1.0000
  C   C16       1.0  0.2776422125819664  0.810481157538554  0.3862209864730276  1.0000
  O   O1        1.0  0.486418089047902  0.3492555098947676  0.2748439622443613  1.0000
  O   O2        1.0  0.013578220607520602  0.6507454858131749  0.7748466663136784  1.0000
  O   O3        1.0  0.5135923611980857  0.8492521432072235  0.2251489849599154  1.0000
  O   O4        1.0  0.9864081299053639  0.15074888185688445  0.7251555343192708  1.0000
  O   O5        1.0  0.5135754507432679  0.6507421204840823  0.7251558829160631  1.0000
  O   O6        1.0  0.9864153191714282  0.3492532712645726  0.22515447670947722  1.0000
  O   O7        1.0  0.48640279880456216  0.1507477404557491  0.7748443709170235  1.0000
  O   O8        1.0  0.013595131031756602  0.8492555086291843  0.27484755550712964  1.0000
  O   O9        1.0  0.2987071088818212  0.42359987402998905  0.42527913337028184  1.0000
  O   O10       1.0  0.2012831583716022  0.5764193565365829  0.9252842432350267  1.0000
  O   O11       1.0  0.7013072617447876  0.923584923396639  0.07471764742558663  1.0000
  O   O12       1.0  0.798705752440455  0.07641138709691123  0.574723208863425  1.0000
  O   O13       1.0  0.7012831904569622  0.5764067698114275  0.5747194139697387  1.0000
  O   O14       1.0  0.7987201026087903  0.423579400509162  0.07471689978164872  1.0000
  O   O15       1.0  0.2987105809813073  0.07642397372867998  0.92528154883415  1.0000
  O   O16       1.0  0.20129426813638673  0.9235862433070353  0.42528052986747883  1.0000
  O   O17       1.0  0.3049716393634228  0.12912806970712154  0.2739457420670136  1.0000
  O   O18       1.0  0.19501333592945974  0.8708774113127403  0.773945406029917  1.0000
  O   O19       1.0  0.6950367342918824  0.6291336699518908  0.22605195050227425  1.0000
  O   O20       1.0  0.8049702305575792  0.37086174320253923  0.7260578895989769  1.0000
  O   O21       1.0  0.6950219004404374  0.8708639273242724  0.7260599434332919  1.0000
  O   O22       1.0  0.8049737230144063  0.12912472587530027  0.2260589816565998  1.0000
  O   O23       1.0  0.3049762479327711  0.3708639602700927  0.7739401074956052  1.0000
  O   O24       1.0  0.19503627083500424  0.629134760473434  0.273943902335752  1.0000
  O   O25       1.0  0.0492736446707909  0.2414642153698594  0.4070001910454978  1.0000
  O   O26       1.0  0.4507054247787466  0.7585534525739915  0.9070038160538164  1.0000
  O   O27       1.0  0.9507219669075299  0.7414525651499418  0.09299774251975634  1.0000
  O   O28       1.0  0.5492892834730583  0.25854756135262147  0.5930005365054074  1.0000
  O   O29       1.0  0.9507101738471563  0.7585435552149988  0.5930016009489592  1.0000
  O   O30       1.0  0.5492897351785403  0.2414475578884847  0.09299927376458333  1.0000
  O   O31       1.0  0.04929263544102009  0.25855633191639527  0.9069956133799411  1.0000
  O   O32       1.0  0.45072207846834533  0.7414579557592444  0.40699995760352453  1.0000
  O   O33       1.0  0.7935368174282118  0.5128505538048388  0.41087617537733223  1.0000
  O   O34       1.0  0.7064524935982206  0.48715039414921074  0.9108773265505693  1.0000
  O   O35       1.0  0.20646978649403283  0.012847954159994401  0.08912578738321743  1.0000
  O   O36       1.0  0.29353284269920726  0.9871373452221877  0.5891255924038534  1.0000
  O   O37       1.0  0.20645348194874913  0.4871504566117295  0.589121723011239  1.0000
  O   O38       1.0  0.29354266641966126  0.5128438561585612  0.08912122073711973  1.0000
  O   O39       1.0  0.7935383350845415  0.9871508028774871  0.9108760045593629  1.0000
  O   O40       1.0  0.7064687981282705  0.012853525052683798  0.41087619951179744  1.0000
