data_image0
_chemical_formula_structural       Zn2H42C48N6Cl2O8
_chemical_formula_sum              "Zn2 H42 C48 N6 Cl2 O8"
_cell_length_a       12.310451588714171
_cell_length_b       13.07799658023676
_cell_length_c       19.274300615847658
_cell_angle_alpha    87.03712074872064
_cell_angle_beta     86.3792919544173
_cell_angle_gamma    85.1368572405116

_space_group_name_H-M_alt    "P 1"
_space_group_IT_number       1

loop_
  _space_group_symop_operation_xyz
  'x, y, z'

loop_
  _atom_site_type_symbol
  _atom_site_label
  _atom_site_symmetry_multiplicity
  _atom_site_fract_x
  _atom_site_fract_y
  _atom_site_fract_z
  _atom_site_occupancy
  Zn  Zn1       1.0  0.6244395543811265  0.5007561870071484  0.4898493341124706  1.0000
  Zn  Zn2       1.0  0.3736959448437674  0.49758901727369675  0.5103084813878385  1.0000
  H   H1        1.0  0.014783152385483292  0.35071892755616574  0.6062587935200059  1.0000
  H   H2        1.0  0.3104634822327625  0.8116436624486241  0.5731743121660529  1.0000
  H   H3        1.0  0.29613289286783845  0.0019149362219437  0.5836059828423359  1.0000
  H   H4        1.0  0.6917548927012193  0.9944145137752756  0.42520982295897625  1.0000
  H   H5        1.0  0.5377957725804662  0.7955179678157407  0.21219676314876781  1.0000
  H   H6        1.0  0.39390456022695014  0.798090610042188  0.20870223217534092  1.0000
  H   H7        1.0  0.4509194323835786  0.8567794046863568  0.2773090684505846  1.0000
  H   H8        1.0  0.38422559570101106  0.6895297047240164  0.3211013790403641  1.0000
  H   H9        1.0  0.5250271382606613  0.6893672177602356  0.32672841194977315  1.0000
  H   H10       1.0  0.4729547028439712  0.21278880948909057  0.774500498650994  1.0000
  H   H11       1.0  0.4216321535859464  0.26640454394550517  0.6952371299859977  1.0000
  H   H12       1.0  0.9829685368153424  0.6504635579461533  0.3923571545002816  1.0000
  H   H13       1.0  0.5223800459789842  0.1606969628469486  0.6938523235594616  1.0000
  H   H14       1.0  0.6066561207493565  0.32349945747125736  0.6573154451986838  1.0000
  H   H15       1.0  0.6595532059028812  0.2700687828736222  0.735240924140932  1.0000
  H   H16       1.0  0.8018405329642704  0.2543424823669724  0.49938772194108355  1.0000
  H   H17       1.0  0.9273469271434892  0.241470356500642  0.5415991878773526  1.0000
  H   H18       1.0  0.8039101506203821  0.20826741494138903  0.5872863502003227  1.0000
  H   H19       1.0  0.8456726368482065  0.3799315495900187  0.6242801968692646  1.0000
  H   H20       1.0  0.7256725435903919  0.38938391799614186  0.5795597868876216  1.0000
  H   H21       1.0  0.06711221410537149  0.7593666209857021  0.4598788383386037  1.0000
  H   H22       1.0  0.19136970412151297  0.7474785545602883  0.503407682237345  1.0000
  H   H23       1.0  0.5153115763076671  0.3321288363196828  0.1555079032955504  1.0000
  H   H24       1.0  0.1902915263638576  0.7964742590416379  0.41602221357300817  1.0000
  H   H25       1.0  0.27270553223249294  0.6160657626488087  0.4214844496293965  1.0000
  H   H26       1.0  0.1535020032836698  0.6250704730365867  0.37584735313144796  1.0000
  H   H27       1.0  0.8698444943258111  0.5949292732093383  0.28737066866555955  1.0000
  H   H28       1.0  0.7568092566049812  0.5198539247911497  0.3096325787722806  1.0000
  H   H29       1.0  0.7344164096821616  0.6461982032381784  0.272499444820582  1.0000
  H   H30       1.0  0.6863073939425066  0.6454017780416949  0.4004175629366529  1.0000
  H   H31       1.0  0.7971170433747262  0.7197843703686287  0.3782826556465793  1.0000
  H   H32       1.0  0.24648972892942572  0.4896377609602141  0.6838631677975757  1.0000
  H   H33       1.0  0.13029649084583633  0.42080029078117326  0.7102997872424766  1.0000
  H   H34       1.0  0.4731953017393239  0.6619234507900983  0.8438316593185464  1.0000
  H   H35       1.0  0.26439226717827313  0.36694569697247204  0.7267846785897163  1.0000
  H   H36       1.0  0.19665501040292102  0.2846021312270182  0.6254770359688564  1.0000
  H   H37       1.0  0.31039990435171216  0.353647634710761  0.5990979487229141  1.0000
  H   H38       1.0  0.47151865542230104  0.6625526230210071  0.14622474606300534  1.0000
  H   H39       1.0  0.5709315158385735  0.33748585778853607  0.8521023760963902  1.0000
  H   H40       1.0  0.36870472321793096  0.17115519410116062  0.5516149305699756  1.0000
  H   H41       1.0  0.6144774265855801  0.8252098082808957  0.4524435730098162  1.0000
  H   H42       1.0  0.6771265750624808  0.18462438399647144  0.43559389948719485  1.0000
  C   C1        1.0  0.46941737297098024  0.6949736369365102  0.5035556096535032  1.0000
  C   C2        1.0  0.43987161029042443  0.13138778417919636  0.5252511131059094  1.0000
  C   C3        1.0  0.5394940958466635  0.9729461087312146  0.4849794242153751  1.0000
  C   C4        1.0  0.4469995838662086  0.023337769300845  0.522292871823062  1.0000
  C   C5        1.0  0.045974633857405  0.4070494320004627  0.5682492242685626  1.0000
  C   C6        1.0  0.9520288011049586  0.593805056676551  0.43023799850382727  1.0000
  C   C7        1.0  0.15579629792749475  0.4216053007017138  0.5661470178927246  1.0000
  C   C8        1.0  0.8420405790193186  0.5794197661480425  0.43257842669190444  1.0000
  C   C9        1.0  0.13708754980581966  0.5497847430648691  0.4759538793241447  1.0000
  C   C10       1.0  0.861119113161429  0.4520530045869435  0.5231963405440823  1.0000
  C   C11       1.0  0.02243250219959951  0.5371229971480388  0.475606389459017  1.0000
  C   C12       1.0  0.5114251765324839  0.3020806910375384  0.4995181478332996  1.0000
  C   C13       1.0  0.9758752433266694  0.46393037889040317  0.5228523805051638  1.0000
  C   C14       1.0  0.49676963348750997  0.49679653956466296  0.3661738928551871  1.0000
  C   C15       1.0  0.5207954453131691  0.49920904721792436  0.6325873604760092  1.0000
  C   C16       1.0  0.5027142168783527  0.40517015166684445  0.2540964489072835  1.0000
  C   C17       1.0  0.4975859139942287  0.5894601547105084  0.7452950454943307  1.0000
  C   C18       1.0  0.5048468467592571  0.4041743314632385  0.1819268732857964  1.0000
  C   C19       1.0  0.4950365114827306  0.5909291536769672  0.8173384556893029  1.0000
  C   C20       1.0  0.49464989395792713  0.4980321648288921  0.1433398020969392  1.0000
  C   C21       1.0  0.5205304830648174  0.4988712959467493  0.8559125543196586  1.0000
  C   C22       1.0  0.47979509045470803  0.5910459114945041  0.1776652322937551  1.0000
  C   C23       1.0  0.5218181025153896  0.1879272234074989  0.4949436085009964  1.0000
  C   C24       1.0  0.5503984602036028  0.4079403492602793  0.8212574006247096  1.0000
  C   C25       1.0  0.47725587174237927  0.5920974165741485  0.2500810695408404  1.0000
  C   C26       1.0  0.5536515589409775  0.40656352999944545  0.7486917477602689  1.0000
  C   C27       1.0  0.49073504874083795  0.49744039289959124  0.288509880747057  1.0000
  C   C28       1.0  0.5253100604313942  0.4985326764564277  0.7104130030675294  1.0000
  C   C29       1.0  0.5148493189781718  0.4987669532801675  0.9322588940879797  1.0000
  C   C30       1.0  0.5014536402519808  0.49845354688632426  0.06699258769878472  1.0000
  C   C31       1.0  0.46137882387970564  0.6907437123487128  0.2888254098472629  1.0000
  C   C32       1.0  0.46101958886267624  0.7904392218968894  0.2441060354177935  1.0000
  C   C33       1.0  0.5852347270280448  0.3072486892052595  0.7127535255710458  1.0000
  C   C34       1.0  0.4628243885347915  0.8086010084375628  0.5107078415722414  1.0000
  C   C35       1.0  0.4953059041218141  0.23229767657148406  0.7195996001870241  1.0000
  C   C36       1.0  0.813928713195267  0.3728300537243712  0.5727627685772632  1.0000
  C   C37       1.0  0.8392226920338429  0.2627067089552568  0.5486752231286048  1.0000
  C   C38       1.0  0.1841014805257118  0.6309707593528626  0.42783522016626563  1.0000
  C   C39       1.0  0.15565259578504959  0.7399979002965364  0.45344799731792323  1.0000
  C   C40       1.0  0.7720937723703328  0.6406774754044804  0.381336601552171  1.0000
  C   C41       1.0  0.7845654734672608  0.5974297449438238  0.30838119293070326  1.0000
  C   C42       1.0  0.22489309607453117  0.3623690218714375  0.6186266871988906  1.0000
  C   C43       1.0  0.21547439368714547  0.4132738272863108  0.689077380622102  1.0000
  C   C44       1.0  0.3651331613362743  0.9632264070390945  0.5543013205570733  1.0000
  C   C45       1.0  0.622049733491153  0.033096265756327604  0.45386129643218004  1.0000
  C   C46       1.0  0.3724621447229595  0.8584556348724136  0.5485203173679025  1.0000
  C   C47       1.0  0.6143320029016408  0.137996908540245  0.45946352094458837  1.0000
  C   C48       1.0  0.5449009065921332  0.8650827099170898  0.4803620036638421  1.0000
  N   N1        1.0  0.48337360954771935  0.5896016755704422  0.031076476060228203  1.0000
  N   N2        1.0  0.5335616572807212  0.40772386236508845  0.9681557537132761  1.0000
  N   N3        1.0  0.4905949864181239  0.5897698763653951  0.9627112833089698  1.0000
  N   N4        1.0  0.5271860006429918  0.40764835022996243  0.036494377135660706  1.0000
  N   N5        1.0  0.7971081911438347  0.5091410967251023  0.4797295103593128  1.0000
  N   N6        1.0  0.20078468496919305  0.49229982944955003  0.519402874863964  1.0000
  Cl  Cl1       1.0  0.5157229326628822  0.2891538105052192  0.30212062040563137  1.0000
  Cl  Cl2       1.0  0.46506771501766747  0.7029318646754704  0.6974874488931491  1.0000
  O   O1        1.0  0.5601488936762069  0.6516578060754058  0.48064512170448376  1.0000
  O   O2        1.0  0.41462295994908516  0.34506026595242645  0.5006539945198156  1.0000
  O   O3        1.0  0.3827767583667807  0.6501657544747061  0.520279715170858  1.0000
  O   O4        1.0  0.5992418723502341  0.34624208119912236  0.5025774461996451  1.0000
  O   O5        1.0  0.5924069241609757  0.48502745701129873  0.3878398937182652  1.0000
  O   O6        1.0  0.4304343512175137  0.479246769629441  0.6108009567387214  1.0000
  O   O7        1.0  0.40734798863181254  0.5102459791467311  0.402040323589489  1.0000
  O   O8        1.0  0.6071309658311462  0.5182466027335764  0.5964224866613961  1.0000
