data_image0
_chemical_formula_structural       Ag16H8C40O32
_chemical_formula_sum              "Ag16 H8 C40 O32"
_cell_length_a       6.665107021362855
_cell_length_b       9.055766850248634
_cell_length_c       18.92576724903155
_cell_angle_alpha    89.9999943504188
_cell_angle_beta     89.99979454216636
_cell_angle_gamma    100.85543275912046

_space_group_name_H-M_alt    "P 1"
_space_group_IT_number       1

loop_
  _space_group_symop_operation_xyz
  'x, y, z'

loop_
  _atom_site_type_symbol
  _atom_site_label
  _atom_site_symmetry_multiplicity
  _atom_site_fract_x
  _atom_site_fract_y
  _atom_site_fract_z
  _atom_site_occupancy
  Ag  Ag1       1.0  0.8397641424683542  0.3089966629395421  0.2410385652372043  1.0000
  Ag  Ag2       1.0  0.6602374605260125  0.19099473516871515  0.7410390185641165  1.0000
  Ag  Ag3       1.0  0.16023480447938704  0.6910088685087743  0.7589614528339512  1.0000
  Ag  Ag4       1.0  0.3397605447244985  0.808996157319392  0.2589625846484297  1.0000
  Ag  Ag5       1.0  0.9074126015412672  0.004732291299987403  0.2574975705519407  1.0000
  Ag  Ag6       1.0  0.5925873303667331  0.4952590901920076  0.7574986258384161  1.0000
  Ag  Ag7       1.0  0.09259114035557305  0.995274330519827  0.7425003339954943  1.0000
  Ag  Ag8       1.0  0.4074109776872561  0.5047329266282006  0.242502977373917  1.0000
  Ag  Ag9       1.0  0.06117330809416897  0.8740874228320338  0.10823016583577073  1.0000
  Ag  Ag10      1.0  0.4388283935819146  0.625907683249743  0.6082265691585749  1.0000
  Ag  Ag11      1.0  0.938824427614577  0.12591361128384904  0.8917746076577233  1.0000
  Ag  Ag12      1.0  0.5611705367321845  0.37409221521818387  0.39177239215238313  1.0000
  Ag  Ag13      1.0  0.8838452241503846  0.5706074573364007  0.15137981542663687  1.0000
  Ag  Ag14      1.0  0.6161436520186143  0.9293857588386136  0.651380315074235  1.0000
  Ag  Ag15      1.0  0.11614381350108971  0.4293891360627102  0.8486159756096829  1.0000
  Ag  Ag16      1.0  0.38384508280150703  0.07060971022391983  0.3486207597639466  1.0000
  H   H1        1.0  0.7511126737247906  0.35680678265599414  0.48339761928193087  1.0000
  H   H2        1.0  0.7488794568851418  0.1431752433896492  0.9834006038161722  1.0000
  H   H3        1.0  0.24889468518288277  0.64320769816905  0.5165987001225505  1.0000
  H   H4        1.0  0.2510969295633245  0.8567966599842692  0.016597829129509002  1.0000
  H   H5        1.0  0.23948639349901418  0.10335005196457563  0.48193063777151235  1.0000
  H   H6        1.0  0.2605259622784075  0.39665175990347734  0.9819372958687754  1.0000
  H   H7        1.0  0.7605182734669783  0.8966655758359541  0.518063568114002  1.0000
  H   H8        1.0  0.7394861582302213  0.6033525453192825  0.018070119516330908  1.0000
  C   C1        1.0  0.8763042272151651  0.31432285550918243  0.508430079251454  1.0000
  C   C2        1.0  0.6236950357339098  0.18566784704371037  0.0084325473894467  1.0000
  C   C3        1.0  0.1237025260827807  0.6856893766512189  0.49156676853362324  1.0000
  C   C4        1.0  0.37628887086704305  0.8143152656860979  0.9915690558322158  1.0000
  C   C5        1.0  0.9158311920999722  0.35594553588401123  0.5786100350349274  1.0000
  C   C6        1.0  0.584172427922283  0.14404726225083664  0.07861308346858213  1.0000
  C   C7        1.0  0.0841782365087909  0.6440599163209628  0.4213873411287566  1.0000
  C   C8        1.0  0.41581987398544124  0.8559391668721688  0.9213874629873546  1.0000
  C   C9        1.0  0.07322122097279761  0.3043062460355444  0.6154106646876161  1.0000
  C   C10       1.0  0.42678990525163846  0.19569397324192292  0.11541538919915695  1.0000
  C   C11       1.0  0.9267852128852356  0.6956992288119254  0.38458565471764683  1.0000
  C   C12       1.0  0.5732087055946664  0.8042991679085818  0.8845883275336136  1.0000
  C   C13       1.0  0.18947335447753494  0.21369760209930186  0.5782844888403177  1.0000
  C   C14       1.0  0.3105387691725169  0.2863049288575894  0.07828988576051903  1.0000
  C   C15       1.0  0.8105369825555969  0.786311223104207  0.42171024542189894  1.0000
  C   C16       1.0  0.6894592527088504  0.7136915966104597  0.9217133025923876  1.0000
  C   C17       1.0  0.1469487122440185  0.17506172684925767  0.5075449803070741  1.0000
  C   C18       1.0  0.35305995199553314  0.3249364494881989  0.007552435144425803  1.0000
  C   C19       1.0  0.8530571326658033  0.8249471323184355  0.49244764043734096  1.0000
  C   C20       1.0  0.6469404756632572  0.6750634376535489  0.9924528667275471  1.0000
  C   C21       1.0  0.9884792687232391  0.2247488555690182  0.471514201278602  1.0000
  C   C22       1.0  0.5115238050209783  0.2752455016943217  0.9715190671828541  1.0000
  C   C23       1.0  0.01152896531921498  0.7752577322901929  0.5284815897453258  1.0000
  C   C24       1.0  0.48846792454151  0.7247499447243657  0.028484649554243915  1.0000
  C   C25       1.0  0.9387157598948194  0.18597618773419106  0.3960108217899006  1.0000
  C   C26       1.0  0.5612824406356866  0.3140251002821445  0.8960140377472005  1.0000
  C   C27       1.0  0.061288587611748796  0.8140326827502664  0.6039865543769383  1.0000
  C   C28       1.0  0.43871349489979383  0.6859748208237875  0.10398915060696373  1.0000
  C   C29       1.0  0.7860806725242213  0.4569479241690572  0.6108656108962693  1.0000
  C   C30       1.0  0.7139223042653812  0.043043694883302015  0.11087061209300234  1.0000
  C   C31       1.0  0.2139242639417134  0.5430575619969603  0.3891333504107522  1.0000
  C   C32       1.0  0.2860706032409296  0.9569449829025488  0.8891315195029891  1.0000
  C   C33       1.0  0.11726822635375099  0.34967568898027684  0.6918154642334786  1.0000
  C   C34       1.0  0.38274239631851975  0.15032552494509593  0.19181918979913357  1.0000
  C   C35       1.0  0.8827364073142902  0.6503286728545419  0.3081824403134378  1.0000
  C   C36       1.0  0.6172619178817342  0.8496720795723082  0.8081834701695956  1.0000
  C   C37       1.0  0.35728854759493345  0.1533285113343936  0.6145920264102147  1.0000
  C   C38       1.0  0.1427285934164289  0.34667729702992744  0.11459763410517353  1.0000
  C   C39       1.0  0.6427247675525011  0.8466746582457818  0.3854032362303884  1.0000
  C   C40       1.0  0.8572739205966117  0.6533191944752802  0.8854060826250463  1.0000
  O   O1        1.0  0.7907436676230617  0.23307461825724124  0.365529719949926  1.0000
  O   O2        1.0  0.7092581521680045  0.2669278231879488  0.8655311646600911  1.0000
  O   O3        1.0  0.20925406812750683  0.7669264158653778  0.6344671278411129  1.0000
  O   O4        1.0  0.29074168654257443  0.7330754482740289  0.13447043855104115  1.0000
  O   O5        1.0  0.044378269250707106  0.10459542511582502  0.36278579017658086  1.0000
  O   O6        1.0  0.45562366773985724  0.3954078038808646  0.8627916720370625  1.0000
  O   O7        1.0  0.9556194831307181  0.8954112419867288  0.6372126427548255  1.0000
  O   O8        1.0  0.5443767765581599  0.604597716242168  0.13721362983478266  1.0000
  O   O9        1.0  0.6438947532052168  0.48847664675388813  0.5717555292411023  1.0000
  O   O10       1.0  0.856103841410132  0.011513948312533306  0.07175982267489191  1.0000
  O   O11       1.0  0.35610777747213973  0.5115254777366331  0.4282434320675181  1.0000
  O   O12       1.0  0.14388277378008507  0.9884736504244107  0.9282423089251214  1.0000
  O   O13       1.0  0.8276199833026965  0.5042763808318184  0.6732810187774165  1.0000
  O   O14       1.0  0.6723731538387127  0.9957167642035786  0.17328552596500665  1.0000
  O   O15       1.0  0.17237443822935455  0.4957179186158669  0.3267195276770139  1.0000
  O   O16       1.0  0.3276197869404598  0.004283179543954001  0.8267176623910688  1.0000
  O   O17       1.0  0.2493385422593875  0.46815199405933344  0.7032426557194429  1.0000
  O   O18       1.0  0.250662672728133  0.031848144060937514  0.20324866744695674  1.0000
  O   O19       1.0  0.7506582850723971  0.5318456670656388  0.2967557772127308  1.0000
  O   O20       1.0  0.7493404468779231  0.9681505961062201  0.7967576911836576  1.0000
  O   O21       1.0  0.018239345159074095  0.27221766512179363  0.741588411779077  1.0000
  O   O22       1.0  0.48176504886065885  0.22777900095420736  0.24159412188711837  1.0000
  O   O23       1.0  0.9817589629283675  0.7277743517037933  0.258406850871289  1.0000
  O   O24       1.0  0.5182404765590718  0.7722231008924825  0.7584074813204185  1.0000
  O   O25       1.0  0.37762028666246295  0.18392474108230064  0.6808292218305427  1.0000
  O   O26       1.0  0.12239615528911683  0.316080954853959  0.18083591336559127  1.0000
  O   O27       1.0  0.6223855249605562  0.8160728521214794  0.3191649840546163  1.0000
  O   O28       1.0  0.8776024555599803  0.6839121862970006  0.8191672749870167  1.0000
  O   O29       1.0  0.4606763531682673  0.074665802284116  0.5799323370977804  1.0000
  O   O30       1.0  0.03934384558944968  0.4253389179361805  0.07993754457981343  1.0000
  O   O31       1.0  0.5393354812569626  0.9253430116008375  0.4200597552626634  1.0000
  O   O32       1.0  0.9606649607396917  0.5746586526179271  0.9200661721463921  1.0000
