data_image0
_chemical_formula_structural       Gd4H72C120N32O80
_chemical_formula_sum              "Gd4 H72 C120 N32 O80"
_cell_length_a       14.597470712598046
_cell_length_b       19.26296714763544
_cell_length_c       19.262992044554085
_cell_angle_alpha    101.35634525609107
_cell_angle_beta     93.32608554123384
_cell_angle_gamma    93.32614737215374

_space_group_name_H-M_alt    "P 1"
_space_group_IT_number       1

loop_
  _space_group_symop_operation_xyz
  'x, y, z'

loop_
  _atom_site_type_symbol
  _atom_site_label
  _atom_site_symmetry_multiplicity
  _atom_site_fract_x
  _atom_site_fract_y
  _atom_site_fract_z
  _atom_site_occupancy
  Gd  Gd1       1.0  0.36651898027224655  0.45245726732654384  0.9805556383722946  1.0000
  Gd  Gd2       1.0  0.13348025862801188  0.019443001259645598  0.5475422186568011  1.0000
  Gd  Gd3       1.0  0.6334831185467138  0.5475435543062871  0.019443363722771785  1.0000
  Gd  Gd4       1.0  0.866520463394302  0.9805578123784567  0.4524562078193597  1.0000
  H   H1        1.0  0.43727869263889824  0.30630033351015135  0.12393433419075711  1.0000
  H   H2        1.0  0.7050742680804446  0.4157584566976027  0.168039899112074  1.0000
  H   H3        1.0  0.7545886243817319  0.0509656952831321  0.2328939456006722  1.0000
  H   H4        1.0  0.6766209379123183  0.17572605249138457  0.4281707619192829  1.0000
  H   H5        1.0  0.6938321823464975  0.4397609227291212  0.8618855705446009  1.0000
  H   H6        1.0  0.5085355484653178  0.25338076475066623  0.845780909455968  1.0000
  H   H7        1.0  0.25270405291886533  0.47874417068187103  0.814601274550924  1.0000
  H   H8        1.0  0.10994047353406698  0.34847366733355756  0.8766225582027191  1.0000
  H   H9        1.0  0.05266458244041419  0.3218054627317173  0.7898034165507823  1.0000
  H   H10       1.0  0.008719696150926392  0.39008914878163375  0.8531940375375413  1.0000
  H   H11       1.0  0.13957488793465697  0.4923568345653066  0.740924750822515  1.0000
  H   H12       1.0  0.0262518560725766  0.4738268149153484  0.7652409121832734  1.0000
  H   H13       1.0  0.07719935976736991  0.4091965914133624  0.7027826425963468  1.0000
  H   H14       1.0  0.14163171557792248  0.4781216795090301  0.9977201814620003  1.0000
  H   H15       1.0  0.01252112722546169  0.5590186549489572  0.988591561721286  1.0000
  H   H16       1.0  0.21826863901097943  0.7238012542291938  0.9730140254359086  1.0000
  H   H17       1.0  0.33761637655462096  0.6371975518928465  0.982927579729065  1.0000
  H   H18       1.0  0.05552296281467049  0.7509642029883422  0.9702716703565243  1.0000
  H   H19       1.0  0.06272174088787348  0.876066176912225  0.6936997805904356  1.0000
  H   H20       1.0  0.7949259164311613  0.8319609770292329  0.5842418352675196  1.0000
  H   H21       1.0  0.7454093919712718  0.7671074925698206  0.9490348520237363  1.0000
  H   H22       1.0  0.8233783647316814  0.5718293406715914  0.8242752560888819  1.0000
  H   H23       1.0  0.8061656975479606  0.1381156719750081  0.5602381935896616  1.0000
  H   H24       1.0  0.9914630201567008  0.15421951390852223  0.7466174216547615  1.0000
  H   H25       1.0  0.2472961009384207  0.18539791905163844  0.5212550411908552  1.0000
  H   H26       1.0  0.39005981413735213  0.12337628244543447  0.6515251820160017  1.0000
  H   H27       1.0  0.4473370701378627  0.21019667288596366  0.6781921397587496  1.0000
  H   H28       1.0  0.491280986110759  0.14680603422948474  0.6099085045057678  1.0000
  H   H29       1.0  0.3604253978950709  0.2590746193285439  0.5076416638621595  1.0000
  H   H30       1.0  0.4737484827822128  0.23475798215277877  0.5261700522058348  1.0000
  H   H31       1.0  0.4228016522084843  0.2972158136139029  0.5907999356641724  1.0000
  H   H32       1.0  0.35836928493155545  0.0022795962317375008  0.5218776802658597  1.0000
  H   H33       1.0  0.48748008431799406  0.0114069440738263  0.4409801655626141  1.0000
  H   H34       1.0  0.2817310295374185  0.0269865858668084  0.27619821258647903  1.0000
  H   H35       1.0  0.16238285455732893  0.017073676992410497  0.3628029070792921  1.0000
  H   H36       1.0  0.44448070960027053  0.029728115264632  0.24903474350578142  1.0000
  H   H37       1.0  0.5627214020513662  0.6937010102359975  0.8760662476868148  1.0000
  H   H38       1.0  0.2949276403496413  0.5842397166593258  0.8319627295881205  1.0000
  H   H39       1.0  0.2454107837945116  0.9490356448304241  0.7671066081831699  1.0000
  H   H40       1.0  0.3233776363528449  0.8242736886040446  0.5718273687370968  1.0000
  H   H41       1.0  0.3061660137937992  0.5602340446119526  0.13811420534531751  1.0000
  H   H42       1.0  0.49146203053301474  0.7466152569549962  0.15421645272155618  1.0000
  H   H43       1.0  0.7472932516077719  0.521256627711459  0.18539908918244663  1.0000
  H   H44       1.0  0.8900587582119998  0.6515255494901879  0.1233775725039052  1.0000
  H   H45       1.0  0.9473346971818016  0.6781942856440252  0.21019733935659704  1.0000
  H   H46       1.0  0.9912794549172615  0.6099090078562951  0.1468069204933897  1.0000
  H   H47       1.0  0.8604208633651566  0.5076418325434843  0.25907461421473243  1.0000
  H   H48       1.0  0.9737444418814148  0.5261702618995799  0.23475712477686983  1.0000
  H   H49       1.0  0.9228011492544396  0.5908015695715677  0.29721629389620574  1.0000
  H   H50       1.0  0.858369520296847  0.5218770152013974  0.002278369462118177  1.0000
  H   H51       1.0  0.9874801048806957  0.4409800390319205  0.011406469771380011  1.0000
  H   H52       1.0  0.7817299427913936  0.2761984883253205  0.02698514408338328  1.0000
  H   H53       1.0  0.6623830240844056  0.3628037867616172  0.017071935191864878  1.0000
  H   H54       1.0  0.9444761253029413  0.24903341917940477  0.029726584747820108  1.0000
  H   H55       1.0  0.9372810519823246  0.12393464981228419  0.3063002884612658  1.0000
  H   H56       1.0  0.20507565080805526  0.16804143781563846  0.4157605726304753  1.0000
  H   H57       1.0  0.2545908350416184  0.23289544364368442  0.050966047161743695  1.0000
  H   H58       1.0  0.1766169975010996  0.42817303637314547  0.17572326294539667  1.0000
  H   H59       1.0  0.1938344009109088  0.8618856725006836  0.4397629077193629  1.0000
  H   H60       1.0  0.008539813052429698  0.8457818429088987  0.25338223373479  1.0000
  H   H61       1.0  0.7527078116203755  0.8145997321919721  0.47874600772683357  1.0000
  H   H62       1.0  0.6099434194446333  0.8766213666246756  0.34847687767087626  1.0000
  H   H63       1.0  0.5526676461831528  0.7898025715394111  0.3218071768347528  1.0000
  H   H64       1.0  0.5087215496513835  0.8531916090193972  0.3900919687930227  1.0000
  H   H65       1.0  0.6395799280306991  0.740923569273157  0.4923590275808322  1.0000
  H   H66       1.0  0.526255422239366  0.7652396676317395  0.4738299578489418  1.0000
  H   H67       1.0  0.5772015587618639  0.7027818310789299  0.4091990074339691  1.0000
  H   H68       1.0  0.6416312945780333  0.9977191006824593  0.4781249980161916  1.0000
  H   H69       1.0  0.5125212699207111  0.9885928181178725  0.5590227523517726  1.0000
  H   H70       1.0  0.7182704898256418  0.9730152974260665  0.7238035701107536  1.0000
  H   H71       1.0  0.8376193072122078  0.9829276791106026  0.6371987979423609  1.0000
  H   H72       1.0  0.555526482073745  0.9702759211083246  0.750968206449919  1.0000
  C   C1        1.0  0.5389065386366596  0.42253308942601814  0.10034494741681499  1.0000
  C   C2        1.0  0.5665625188208027  0.3692132044792515  0.1439208795439768  1.0000
  C   C3        1.0  0.5063387838781139  0.31221649876613355  0.1497696997187816  1.0000
  C   C4        1.0  0.5351023997523682  0.26240866819155423  0.18829995890018134  1.0000
  C   C5        1.0  0.6244315292695719  0.2656711886619546  0.2212348994444326  1.0000
  C   C6        1.0  0.6844235305793659  0.32246312420906514  0.2112147562486726  1.0000
  C   C7        1.0  0.6560777805724456  0.3733923095457498  0.1745696664974972  1.0000
  C   C8        1.0  0.6556892662388731  0.21065739827090368  0.2601901814239085  1.0000
  C   C9        1.0  0.6932133954882361  0.14858505946431677  0.22553182275861167  1.0000
  C   C10       1.0  0.7259395711958163  0.09823620967799938  0.2617172615177665  1.0000
  C   C11       1.0  0.7232028445724125  0.10920912841920229  0.3351536726820186  1.0000
  C   C12       1.0  0.6823729233683337  0.16816816344802277  0.3711394381983837  1.0000
  C   C13       1.0  0.6484881465887253  0.2169620885355883  0.3338233684939951  1.0000
  C   C14       1.0  0.7630733126145515  0.057592479681169116  0.3749992354563149  1.0000
  C   C15       1.0  0.5268499201688427  0.3924245284736826  0.9035761423638036  1.0000
  C   C16       1.0  0.5928100367090037  0.3513398663678302  0.8578010842328467  1.0000
  C   C17       1.0  0.6752287348000222  0.3833240597498174  0.8419716384616224  1.0000
  C   C18       1.0  0.7341239144601842  0.34226958631730037  0.7995510404608057  1.0000
  C   C19       1.0  0.7174879991894868  0.26856859576562186  0.7750583441111021  1.0000
  C   C20       1.0  0.6354047722453658  0.2385554351019009  0.794957684115147  1.0000
  C   C21       1.0  0.5723484198202655  0.27872783681220875  0.8331807231858335  1.0000
  C   C22       1.0  0.21409697587307613  0.4395338129980929  0.8385057295053786  1.0000
  C   C23       1.0  0.07178296763571979  0.36686658617335866  0.8339179888794988  1.0000
  C   C24       1.0  0.09113568018353388  0.4504892556650262  0.7511040563002354  1.0000
  C   C25       1.0  0.1550358441532467  0.5327636607579648  0.9914716679773434  1.0000
  C   C26       1.0  0.08427046156531048  0.5772049038156978  0.9868860144311284  1.0000
  C   C27       1.0  0.10595254313947315  0.6470764820295185  0.9799279383873838  1.0000
  C   C28       1.0  0.1983544314028549  0.6696034641250036  0.9779597527658624  1.0000
  C   C29       1.0  0.2647682218635836  0.6213928116583388  0.9832633517904413  1.0000
  C   C30       1.0  0.032102883687357996  0.6967207169436378  0.9765590563140877  1.0000
  C   C31       1.0  0.9610917994600426  0.8996548083217417  0.5774668903397568  1.0000
  C   C32       1.0  0.9334372495718026  0.8560782783564065  0.6307875507611129  1.0000
  C   C33       1.0  0.9936613746743248  0.8502307576967849  0.687785274157271  1.0000
  C   C34       1.0  0.964897701780039  0.8117009024436611  0.7375932282312264  1.0000
  C   C35       1.0  0.8755681259414914  0.7787659381740042  0.734329903372931  1.0000
  C   C36       1.0  0.8155749636119084  0.7887842623006448  0.6775377355056875  1.0000
  C   C37       1.0  0.8439207772021718  0.8254289015895605  0.6266081043753999  1.0000
  C   C38       1.0  0.8443125650085719  0.7398110984957995  0.7893443688666439  1.0000
  C   C39       1.0  0.8067853337582205  0.7744675960843281  0.8514148038184643  1.0000
  C   C40       1.0  0.7740564544096458  0.7382840444545662  0.9017636642266211  1.0000
  C   C41       1.0  0.7767965230173816  0.6648472534561947  0.8907915998445193  1.0000
  C   C42       1.0  0.8176256249729477  0.6288612455371732  0.8318322970961631  1.0000
  C   C43       1.0  0.8515125708475679  0.6661780634253986  0.7830386240173796  1.0000
  C   C44       1.0  0.7369284448589963  0.6250019213249658  0.9424078878755183  1.0000
  C   C45       1.0  0.9731472461928234  0.09642467398033008  0.6075729817539327  1.0000
  C   C46       1.0  0.9071867314617421  0.1421984418119777  0.648658044513688  1.0000
  C   C47       1.0  0.8247718907099112  0.1580286687711023  0.6166749500504878  1.0000
  C   C48       1.0  0.7658735717258977  0.20044928237416568  0.6577298973858704  1.0000
  C   C49       1.0  0.7825127817263463  0.2249406002112124  0.7314310609376946  1.0000
  C   C50       1.0  0.86459420695963  0.20504058918432827  0.7614436633572482  1.0000
  C   C51       1.0  0.9276497884538911  0.16681862123914468  0.7212681996428998  1.0000
  C   C52       1.0  0.28590249990230626  0.16149229247487537  0.5604657042814339  1.0000
  C   C53       1.0  0.42821849417186536  0.1660811036869845  0.6331316308414117  1.0000
  C   C54       1.0  0.4088643573725008  0.2488958417202198  0.5495089862215466  1.0000
  C   C55       1.0  0.34496466399296116  0.008528756411472202  0.4672361927660659  1.0000
  C   C56       1.0  0.41573018466122136  0.013113386441865799  0.42279450185338874  1.0000
  C   C57       1.0  0.3940473774558342  0.020072315989189297  0.35292247444314034  1.0000
  C   C58       1.0  0.30164499912389436  0.0220413198518585  0.3303964862952711  1.0000
  C   C59       1.0  0.23523136639299477  0.016738285422114498  0.3786072268844123  1.0000
  C   C60       1.0  0.46789530066287444  0.023441704554421995  0.30327961374801765  1.0000
  C   C61       1.0  0.4610936001611492  0.5774687851425852  0.8996557402300596  1.0000
  C   C62       1.0  0.43343954719643557  0.6307870885197598  0.8560795750761586  1.0000
  C   C63       1.0  0.49366131081215053  0.6877848449800152  0.8502308821587832  1.0000
  C   C64       1.0  0.4648977352768285  0.7375932056474994  0.8117002093152338  1.0000
  C   C65       1.0  0.3755677390468222  0.7343285575251528  0.7787642981685823  1.0000
  C   C66       1.0  0.31557780104770217  0.6775366336053564  0.7887850450769704  1.0000
  C   C67       1.0  0.34392359893077185  0.6266079798206761  0.8254307600289083  1.0000
  C   C68       1.0  0.3443084601565189  0.7893402188202998  0.7398095757873548  1.0000
  C   C69       1.0  0.3067837213024091  0.8514136134505678  0.7744665596031696  1.0000
  C   C70       1.0  0.2740583203239311  0.9017635285143791  0.7382813604763427  1.0000
  C   C71       1.0  0.2767964162067784  0.8907906163088201  0.6648444860680842  1.0000
  C   C72       1.0  0.3176255298800186  0.8318299873686782  0.6288599334444527  1.0000
  C   C73       1.0  0.3515097121292925  0.7830371210229784  0.6661767060251762  1.0000
  C   C74       1.0  0.23692801901251667  0.9424072781332524  0.6250005658693354  1.0000
  C   C75       1.0  0.47314706806776735  0.6075725527033882  0.09642244212152211  1.0000
  C   C76       1.0  0.4071860998892305  0.6486550900754722  0.142198607375903  1.0000
  C   C77       1.0  0.32476955332396773  0.616671969965708  0.1580288683983682  1.0000
  C   C78       1.0  0.2658730447433086  0.6577269669555006  0.2004495159810418  1.0000
  C   C79       1.0  0.28251315600740406  0.7314290387589892  0.22494103413732353  1.0000
  C   C80       1.0  0.3645947856171502  0.7614395373157238  0.20504058966785274  1.0000
  C   C81       1.0  0.42765032297420896  0.7212655402350023  0.1668177246269806  1.0000
  C   C82       1.0  0.7859009710600374  0.5604664582053758  0.16149455655241238  1.0000
  C   C83       1.0  0.9282163082178913  0.6331331614728413  0.1660822475964352  1.0000
  C   C84       1.0  0.9088614479129262  0.5495094194385003  0.2488958843559175  1.0000
  C   C85       1.0  0.8449647971911959  0.46723609269432126  0.008527585823117112  1.0000
  C   C86       1.0  0.9157301243657656  0.4227943166254987  0.013111575305657696  1.0000
  C   C87       1.0  0.8940473600461871  0.35292273550863484  0.020070142687139008  1.0000
  C   C88       1.0  0.8016455599978939  0.3303968150580586  0.02203853984726578  1.0000
  C   C89       1.0  0.7352310867917494  0.3786074646216732  0.0167354321604236  1.0000
  C   C90       1.0  0.9678913219228347  0.3032758203397066  0.023440348889941693  1.0000
  C   C91       1.0  0.0389075533028347  0.1003459987807247  0.4225319993804107  1.0000
  C   C92       1.0  0.0665635757400267  0.14392359984478278  0.3692131649794845  1.0000
  C   C93       1.0  0.006340229135218997  0.14977218651144847  0.3122162006471072  1.0000
  C   C94       1.0  0.0351039461370419  0.18830257258702687  0.2624083523424687  1.0000
  C   C95       1.0  0.12443291990805959  0.22123859413945007  0.265671341214187  1.0000
  C   C96       1.0  0.18442403023279036  0.2112202605741373  0.3224644636631737  1.0000
  C   C97       1.0  0.1560794094717792  0.17457350453103967  0.37339320847223695  1.0000
  C   C98       1.0  0.15569036772146916  0.26019132215516555  0.21065705635588475  1.0000
  C   C99       1.0  0.1932168570444333  0.22553428792295455  0.14858492924666683  1.0000
  C   C100      1.0  0.2259411916715237  0.2617209983297569  0.098235987366813  1.0000
  C   C101      1.0  0.22320107895624366  0.3351572585056815  0.10920794597961253  1.0000
  C   C102      1.0  0.18237184844665683  0.3711416746868821  0.16816745085150592  1.0000
  C   C103      1.0  0.1484848471586702  0.3338243237875673  0.21695945986662218  1.0000
  C   C104      1.0  0.26307104399511866  0.3750004789744068  0.057591838584016807  1.0000
  C   C105      1.0  0.026854158574906275  0.9035761425608155  0.39242495338449157  1.0000
  C   C106      1.0  0.09281519469564606  0.8578002572605852  0.351341053935613  1.0000
  C   C107      1.0  0.17523009086084326  0.8419705633125502  0.38332581246248754  1.0000
  C   C108      1.0  0.23412836573731247  0.7995494188870325  0.3422707593578025  1.0000
  C   C109      1.0  0.21748906375317031  0.7750570386755342  0.26856886483591325  1.0000
  C   C110      1.0  0.1354076460570965  0.7949570511615107  0.23855730127927197  1.0000
  C   C111      1.0  0.0723521855796534  0.8331806093854155  0.27873152400717066  1.0000
  C   C112      1.0  0.7141026937008307  0.8385043036594624  0.439534669853636  1.0000
  C   C113      1.0  0.5717834836302842  0.8339181276671181  0.3668686122401041  1.0000
  C   C114      1.0  0.5911389972262951  0.7511033976286112  0.45049183247887475  1.0000
  C   C115      1.0  0.6550366827085339  0.9914710043211341  0.5327656862854013  1.0000
  C   C116      1.0  0.5842719846455253  0.9868879711202395  0.5772082420311762  1.0000
  C   C117      1.0  0.6059549204049401  0.9799306333107295  0.6470800673178873  1.0000
  C   C118      1.0  0.6983577975149088  0.9779595076022006  0.6696041021878828  1.0000
  C   C119      1.0  0.7647714302458085  0.9832625420319445  0.6213933615987487  1.0000
  C   C120      1.0  0.5321076622160206  0.9765607219329053  0.6967259669261664  1.0000
  N   N1        1.0  0.46703230685621117  0.20391648663807158  0.19227298568961262  1.0000
  N   N2        1.0  0.7820894505082733  0.3291357979614914  0.23737475182608142  1.0000
  N   N3        1.0  0.7007517228317753  0.1342705978551848  0.1478736189341703  1.0000
  N   N4        1.0  0.6039141848983007  0.27697636990148305  0.3745860528148058  1.0000
  N   N5        1.0  0.8186448229759691  0.3790679062087392  0.7821125449431108  1.0000
  N   N6        1.0  0.6141955158960215  0.16117581293114108  0.7775191321273526  1.0000
  N   N7        1.0  0.12929622828908546  0.4200240489549572  0.8090493396816925  1.0000
  N   N8        1.0  0.2442925121865258  0.5539651748125465  0.9892190325496557  1.0000
  N   N9        1.0  0.032967935496010584  0.8077287434194886  0.7960863012461631  1.0000
  N   N10       1.0  0.7179088613528181  0.7626230721718628  0.6708647980034642  1.0000
  N   N11       1.0  0.7992441096034283  0.8521263322536325  0.8657283735473982  1.0000
  N   N12       1.0  0.8960855731303496  0.6254160364061575  0.7230254729047162  1.0000
  N   N13       1.0  0.6813521701393983  0.2178871917261489  0.6209328081363881  1.0000
  N   N14       1.0  0.8858028431390464  0.2224804493849674  0.8388227121326536  1.0000
  N   N15       1.0  0.37070369866013664  0.19094919835394816  0.5799740781958249  1.0000
  N   N16       1.0  0.25570812674563836  0.010782324300663499  0.4460345781952029  1.0000
  N   N17       1.0  0.5329679793386504  0.7960869833160727  0.8077300969910013  1.0000
  N   N18       1.0  0.21791111769550034  0.6708628967640706  0.7626263681615981  1.0000
  N   N19       1.0  0.2992447553209985  0.8657286029791108  0.8521253605346433  1.0000
  N   N20       1.0  0.3960830717521874  0.723023896939857  0.6254136857178028  1.0000
  N   N21       1.0  0.18135441253870246  0.6209313113445488  0.217888105194973  1.0000
  N   N22       1.0  0.38580133248074583  0.838819674319474  0.22247809618713896  1.0000
  N   N23       1.0  0.8707016304289323  0.5799751606036095  0.1909507348374859  1.0000
  N   N24       1.0  0.7557068002374193  0.4460351021970154  0.010780270832668701  1.0000
  N   N25       1.0  0.9670347691590991  0.19227102166011892  0.20391355626693303  1.0000
  N   N26       1.0  0.2820895896063078  0.23738304172631788  0.32913924867395394  1.0000
  N   N27       1.0  0.2007546373233069  0.1478755314020574  0.13426966075474672  1.0000
  N   N28       1.0  0.10391263091081268  0.374587418272938  0.2769744089059856  1.0000
  N   N29       1.0  0.3186469771601849  0.7821109641822375  0.3790676304630836  1.0000
  N   N30       1.0  0.1142012345440975  0.7775193229598187  0.1611772015678881  1.0000
  N   N31       1.0  0.6293002063614421  0.80904845143057  0.42002593185895176  1.0000
  N   N32       1.0  0.7442933485098776  0.9892190281697565  0.55396709873272  1.0000
  O   O1        1.0  0.4626104837033295  0.4086742962776029  0.06440000283008368  1.0000
  O   O2        1.0  0.5964501705576523  0.47518841799593026  0.10190137203101557  1.0000
  O   O3        1.0  0.7671151913798154  0.0730777857792191  0.4433350816555405  1.0000
  O   O4        1.0  0.794041523333739  0.0017504886044648  0.3411844055133528  1.0000
  O   O5        1.0  0.40306345324449205  0.19029895606372083  0.1455217447672439  1.0000
  O   O6        1.0  0.4772140751746435  0.17216220470595536  0.24205837270303485  1.0000
  O   O7        1.0  0.8333152272576853  0.37429141767487545  0.21792577539094538  1.0000
  O   O8        1.0  0.8082893964477335  0.28947079636773043  0.27691021785439324  1.0000
  O   O9        1.0  0.7016943140802071  0.18573151095424828  0.11757235754883061  1.0000
  O   O10       1.0  0.7059620728414868  0.072037067985427  0.1178945054341085  1.0000
  O   O11       1.0  0.5872711861762525  0.32737646414982885  0.34533630824394385  1.0000
  O   O12       1.0  0.585590932496892  0.27402613289086014  0.4359381660408062  1.0000
  O   O13       1.0  0.5581511823315353  0.4492208535645402  0.946133454654145  1.0000
  O   O14       1.0  0.4440247552628874  0.3681570000392043  0.8990217911450601  1.0000
  O   O15       1.0  0.8495865595049779  0.43341911194288935  0.8246711561568604  1.0000
  O   O16       1.0  0.8538953541727706  0.35328542445492417  0.7265585670882331  1.0000
  O   O17       1.0  0.6797546485536541  0.122851105135517  0.7682441083409374  1.0000
  O   O18       1.0  0.5324495278924105  0.1389435153992054  0.7741957003020801  1.0000
  O   O19       1.0  0.24915750112098312  0.4161736276261506  0.8894641986402477  1.0000
  O   O20       1.0  0.9508302450546964  0.6795940905089493  0.9804929848551254  1.0000
  O   O21       1.0  0.03738903172144599  0.9355988972533567  0.5913244101871983  1.0000
  O   O22       1.0  0.9035498623632704  0.8980986997337863  0.5248115910824326  1.0000
  O   O23       1.0  0.732887416509996  0.5566656174783091  0.926925090495921  1.0000
  O   O24       1.0  0.7059595299285276  0.658816962362259  0.9982498486122469  1.0000
  O   O25       1.0  0.09693853502943738  0.8544788733437868  0.8097038386616762  1.0000
  O   O26       1.0  0.022787844042390797  0.7579432843387579  0.8278404525210875  1.0000
  O   O27       1.0  0.6666816360743937  0.782073538561633  0.6257099000870738  1.0000
  O   O28       1.0  0.6917084844426568  0.7230859849540535  0.7105276357040609  1.0000
  O   O29       1.0  0.7983020165693233  0.8824276550565527  0.8142674614469243  1.0000
  O   O30       1.0  0.7940309648002354  0.88210606753254  0.9279620880399548  1.0000
  O   O31       1.0  0.9127288033755504  0.6546667008630607  0.6726249150404087  1.0000
  O   O32       1.0  0.9144081220138319  0.564062648397531  0.7259750926353592  1.0000
  O   O33       1.0  0.941846578444789  0.0538667783455296  0.5507762996362899  1.0000
  O   O34       1.0  0.05597210637209571  0.10097757206165167  0.6318420054217102  1.0000
  O   O35       1.0  0.6504112360876492  0.17532868616872574  0.5665814788355448  1.0000
  O   O36       1.0  0.6460998667048088  0.27344116461489415  0.6467166449125088  1.0000
  O   O37       1.0  0.820245221634714  0.23175674505149857  0.8771508930653199  1.0000
  O   O38       1.0  0.9675485365467509  0.22580268659264385  0.8610540106461216  1.0000
  O   O39       1.0  0.25084194072573496  0.11053391222002773  0.5838247296922462  1.0000
  O   O40       1.0  0.5491682387295  0.0195064635877458  0.3204064580636086  1.0000
  O   O41       1.0  0.5373875552134778  0.5913270373003171  0.935601014197765  1.0000
  O   O42       1.0  0.40355111696187157  0.5248108089960438  0.8980983235253248  1.0000
  O   O43       1.0  0.23288832457473052  0.9269235739412449  0.5566640823962744  1.0000
  O   O44       1.0  0.20595839115774336  0.9982487311223306  0.6588152338555417  1.0000
  O   O45       1.0  0.5969393837332502  0.8097024014832428  0.8544784300537671  1.0000
  O   O46       1.0  0.5227838366675215  0.8278455009451803  0.7579480409143997  1.0000
  O   O47       1.0  0.1666823241869153  0.6257120399375466  0.7820787532091417  1.0000
  O   O48       1.0  0.19171230163472333  0.7105252471334681  0.7230873128854753  1.0000
  O   O49       1.0  0.29830283551216047  0.8142676905944484  0.8824245722878885  1.0000
  O   O50       1.0  0.2940344343444038  0.927962660753138  0.8821025020781832  1.0000
  O   O51       1.0  0.41272464957003757  0.6726232638743282  0.6546627489004564  1.0000
  O   O52       1.0  0.41440636072392323  0.7259746633138348  0.5640606393981926  1.0000
  O   O53       1.0  0.441844524860734  0.5507772827218034  0.0538658046137925  1.0000
  O   O54       1.0  0.5559717191212742  0.6318422000655417  0.10097666889229374  1.0000
  O   O55       1.0  0.15040791075048784  0.5665806102751744  0.17532888366299912  1.0000
  O   O56       1.0  0.14610526567575727  0.6467138025521847  0.2734436975316683  1.0000
  O   O57       1.0  0.3202408520595839  0.8771449020246463  0.23175057239813412  1.0000
  O   O58       1.0  0.46754677383018617  0.8610535621452726  0.22580285608951567  1.0000
  O   O59       1.0  0.7508418226087767  0.583826651572046  0.11053666303644144  1.0000
  O   O60       1.0  0.0491715928876104  0.32040354691870476  0.019505902055563202  1.0000
  O   O61       1.0  0.962612839022583  0.064399268808117  0.40867302419842844  1.0000
  O   O62       1.0  0.09645021348396202  0.10190264036463499  0.4751863936378555  1.0000
  O   O63       1.0  0.26711409908445927  0.4433362650850156  0.07307617276985917  1.0000
  O   O64       1.0  0.29403983790877664  0.3411838476583853  0.0017511188337522008  1.0000
  O   O65       1.0  0.9030616339172254  0.14552300706117893  0.19030100443684722  1.0000
  O   O66       1.0  0.9772212432228145  0.24205120081721523  0.1721529144901766  1.0000
  O   O67       1.0  0.3333171662657008  0.21792885810514648  0.3742897982787383  1.0000
  O   O68       1.0  0.30828561329958853  0.27692541392917036  0.28947883030470933  1.0000
  O   O69       1.0  0.2016954896520033  0.1175757938013149  0.18573083397568274  1.0000
  O   O70       1.0  0.20596375125746388  0.1178968359725161  0.07203598923845081  1.0000
  O   O71       1.0  0.08727063760241549  0.34533516788431473  0.3273741862183713  1.0000
  O   O72       1.0  0.08559141094782768  0.435940282724296  0.2740247395934858  1.0000
  O   O73       1.0  0.058156147706228  0.9461335131792552  0.44922054705736514  1.0000
  O   O74       1.0  0.9440285828484959  0.8990227129426316  0.3681578735795199  1.0000
  O   O75       1.0  0.3495867221512796  0.8246715872233848  0.4334203655166107  1.0000
  O   O76       1.0  0.3539000779355206  0.7265580609482567  0.3532871499080343  1.0000
  O   O77       1.0  0.1797577880045935  0.7682467350557332  0.12284918540144928  1.0000
  O   O78       1.0  0.032453176610133  0.7741933598267465  0.13894559781957133  1.0000
  O   O79       1.0  0.7491626067023204  0.889463210374629  0.4161752026869508  1.0000
  O   O80       1.0  0.4508325876980591  0.9804948925455431  0.6796003850851591  1.0000
