data_image0
_chemical_formula_structural       Al2H14C20N2O12
_chemical_formula_sum              "Al2 H14 C20 N2 O12"
_cell_length_a       6.722169757186315
_cell_length_b       8.673402671339757
_cell_length_c       17.793092187060935
_cell_angle_alpha    82.84098262564704
_cell_angle_beta     78.85570932485957
_cell_angle_gamma    76.17440815572546

_space_group_name_H-M_alt    "P 1"
_space_group_IT_number       1

loop_
  _space_group_symop_operation_xyz
  'x, y, z'

loop_
  _atom_site_type_symbol
  _atom_site_label
  _atom_site_symmetry_multiplicity
  _atom_site_fract_x
  _atom_site_fract_y
  _atom_site_fract_z
  _atom_site_occupancy
  Al  Al1       1.0  0.5014077371702755  0.4991068750397575  0.4998510063033805  1.0000
  Al  Al2       1.0  0.0012389722405643268  0.4990800525906281  0.5001647576835779  1.0000
  H   H1        1.0  0.25103164004432427  0.36681982687487397  0.5858706885341435  1.0000
  H   H2        1.0  0.7511680435758238  0.6342095370950602  0.4150925291677724  1.0000
  H   H3        1.0  0.6797433843902708  0.497338195739438  0.2671364329020066  1.0000
  H   H4        1.0  0.746638488107443  0.5147329978613728  0.1245212458099516  1.0000
  H   H5        1.0  0.13316876746948472  0.43619214837393383  0.1274453201864958  1.0000
  H   H6        1.0  0.8617507893818156  0.5668809308288658  0.8733209890684963  1.0000
  H   H7        1.0  0.31999931920074687  0.5028622258282454  0.732117631095008  1.0000
  H   H8        1.0  0.24937460088609237  0.4878825430377275  0.8745983718310345  1.0000
  H   H9        1.0  0.030033906642735454  0.41590719777040874  0.3305502412384698  1.0000
  H   H10       1.0  0.9696706258300125  0.5840368688582772  0.6702304531586878  1.0000
  H   H11       1.0  0.7662264839374372  0.8454014033084791  0.5109975154715869  1.0000
  H   H12       1.0  0.5938941593312207  0.02277001373067831  0.53441996497898  1.0000
  H   H13       1.0  0.23657282925612574  0.15294609823026664  0.4888478995347683  1.0000
  H   H14       1.0  0.40881497467621125  0.975741150834935  0.46501563533923485  1.0000
  C   C1        1.0  0.8315568424119916  0.21194650992841702  0.5098603703826825  1.0000
  C   C2        1.0  0.6722825169910891  0.5337574451365584  0.63773075295056  1.0000
  C   C3        1.0  0.17110172250393407  0.7863521183627074  0.4899098363465484  1.0000
  C   C4        1.0  0.32935748162336137  0.46500237276463724  0.3623136426742876  1.0000
  C   C5        1.0  0.3689188558844305  0.4616643990192203  0.2783911842480578  1.0000
  C   C6        1.0  0.5603821863697431  0.4859774691162358  0.23603828054145037  1.0000
  C   C7        1.0  0.5986769883201999  0.4947033588721796  0.15672096209418382  1.0000
  C   C8        1.0  0.4429960020003917  0.4791460082627241  0.11638938755081803  1.0000
  C   C9        1.0  0.2532389086618422  0.45056109984692944  0.15758468775879217  1.0000
  C   C10       1.0  0.21481627227747416  0.44133973164927204  0.23799813412234275  1.0000
  C   C11       1.0  0.47944512092012564  0.49401009334923895  0.03508087527178818  1.0000
  C   C12       1.0  0.5146061868262989  0.509608468592539  0.9649399971823062  1.0000
  C   C13       1.0  0.5523812803373785  0.5235787482177231  0.8836215504223688  1.0000
  C   C14       1.0  0.7427996788021146  0.5517272571678122  0.8428353113045335  1.0000
  C   C15       1.0  0.7831746716490001  0.559799000046894  0.7624524788528435  1.0000
  C   C16       1.0  0.630582602871499  0.5385232632542838  0.7216085958760843  1.0000
  C   C17       1.0  0.4383423862154814  0.514892783314693  0.763526918193904  1.0000
  C   C18       1.0  0.3980160438748114  0.5073812541806717  0.8428158122906881  1.0000
  C   C19       1.0  0.8963766192778805  0.03824458263866862  0.5044357361598983  1.0000
  C   C20       1.0  0.10637883901105728  0.9601098211789182  0.4952022581889894  1.0000
  N   N1        1.0  0.7330619135190515  0.9662862731481284  0.5059480354555037  1.0000
  N   N2        1.0  0.2697371014315165  0.0320652487201016  0.4936290111557255  1.0000
  O   O1        1.0  0.6413970754442317  0.27793961867906347  0.5062264464207119  1.0000
  O   O2        1.0  0.8558203691517433  0.5485750550228091  0.6021489992908828  1.0000
  O   O3        1.0  0.03495660704826506  0.7111272798950383  0.4810773752966784  1.0000
  O   O4        1.0  0.47043794317942644  0.4857061894544545  0.3958908335419693  1.0000
  O   O5        1.0  0.3614220055680305  0.7204208217606126  0.49332567351203965  1.0000
  O   O6        1.0  0.1464989875725279  0.4495729787185996  0.39827193183532483  1.0000
  O   O7        1.0  0.9675003583031692  0.2870252366186818  0.5190493930523348  1.0000
  O   O8        1.0  0.5321231189012536  0.5125061586152672  0.6038544863087412  1.0000
  O   O9        1.0  0.2503418219802923  0.43654006174254095  0.5389040441323518  1.0000
  O   O10       1.0  0.7523887786047536  0.5618307440110046  0.4611831262809717  1.0000
  O   O11       1.0  0.02909742304935748  0.4139406553854954  0.2744831348607733  1.0000
  O   O12       1.0  0.9693726919537365  0.586919574236312  0.7263245369687183  1.0000
