data_image0
_chemical_formula_structural       ZnH20C20N2O8
_chemical_formula_sum              "Zn1 H20 C20 N2 O8"
_cell_length_a       5.619374973321749
_cell_length_b       7.950420163280365
_cell_length_c       11.022831239539647
_cell_angle_alpha    107.3791506424079
_cell_angle_beta     97.08789622824739
_cell_angle_gamma    98.26384684689643

_space_group_name_H-M_alt    "P 1"
_space_group_IT_number       1

loop_
  _space_group_symop_operation_xyz
  'x, y, z'

loop_
  _atom_site_type_symbol
  _atom_site_label
  _atom_site_symmetry_multiplicity
  _atom_site_fract_x
  _atom_site_fract_y
  _atom_site_fract_z
  _atom_site_occupancy
  Zn  Zn1       1.0  0.5000050370725334  0.4999816426875653  0.9999853602005833  1.0000
  H   H1        1.0  0.9549502367417518  0.6222278746335587  0.9376214206067817  1.0000
  H   H2        1.0  0.045032953132704306  0.37775260841645764  0.06234276050873433  1.0000
  H   H3        1.0  0.7474301448268649  0.7440278547807182  0.9465498833456539  1.0000
  H   H4        1.0  0.2525684312836773  0.2559702292794057  0.053459848974924326  1.0000
  H   H5        1.0  0.17962593438825544  0.994504468065557  0.3353275725333092  1.0000
  H   H6        1.0  0.8203673799972081  0.005458699311567699  0.6646298610036327  1.0000
  H   H7        1.0  0.18997299564421166  0.777197399111145  0.12591801869262306  1.0000
  H   H8        1.0  0.8100279231308394  0.22275245650781983  0.8740442641662444  1.0000
  H   H9        1.0  0.8236243639743109  0.6390160637943507  0.269574613094136  1.0000
  H   H10       1.0  0.1763844905676493  0.36095129269611437  0.7304046240699835  1.0000
  H   H11       1.0  0.8364881391102515  0.8446118505240959  0.48816355243426585  1.0000
  H   H12       1.0  0.1635239645532991  0.15537695073110308  0.5118041741150565  1.0000
  H   H13       1.0  0.7542149455382586  0.05626539415192869  0.23738368852294667  1.0000
  H   H14       1.0  0.24581773633314444  0.9437692019577992  0.7626541253868669  1.0000
  H   H15       1.0  0.909953055404266  0.05130829040960798  0.10573815398272055  1.0000
  H   H16       1.0  0.09008781675800755  0.9487304062567004  0.8943037618585239  1.0000
  H   H17       1.0  0.37631520922347766  0.5279135786644102  0.40612247231034376  1.0000
  H   H18       1.0  0.6236677496635396  0.4721379411237192  0.5939141613180896  1.0000
  H   H19       1.0  0.6373876811666932  0.2633649007452305  0.3788090552570155  1.0000
  H   H20       1.0  0.3625890952415318  0.7366905801269822  0.6212316863245493  1.0000
  C   C1        1.0  0.3246029668733926  0.9169300092475935  0.32827180798881994  1.0000
  C   C2        1.0  0.6754073101565085  0.08303601652589519  0.671701785254122  1.0000
  C   C3        1.0  0.3311448385966074  0.7961233288651285  0.2084132552504984  1.0000
  C   C4        1.0  0.6688652031144927  0.2038346499269394  0.7915495170458728  1.0000
  C   C5        1.0  0.6835246159053696  0.7201125564443129  0.2889355603814821  1.0000
  C   C6        1.0  0.3164844042020647  0.2798561241889884  0.7110267351010224  1.0000
  C   C7        1.0  0.688686326591352  0.8371821408889486  0.41192673104399113  1.0000
  C   C8        1.0  0.31132156560951074  0.16280394415592525  0.5880437836457377  1.0000
  C   C9        1.0  0.5033949442546019  0.9383925132187583  0.43510952214619897  1.0000
  C   C10       1.0  0.4966067705896435  0.061582798800905884  0.5648601104677342  1.0000
  C   C11       1.0  0.6443848478369959  0.22225691600698377  0.12488299128674644  1.0000
  C   C12       1.0  0.35562273326162597  0.777741257756986  0.8751291205961566  1.0000
  C   C13       1.0  0.8387480094346318  0.13921040794243567  0.18454155519524568  1.0000
  C   C14       1.0  0.16126652774538286  0.86081597336004  0.8154915738474035  1.0000
  C   C15       1.0  0.0116234599221769  0.38117102337225356  0.3787821730254565  1.0000
  C   C16       1.0  0.9883558024957964  0.6188724297675134  0.6212579411171506  1.0000
  C   C17       1.0  0.21128484356787425  0.5169245163134093  0.4477715888496762  1.0000
  C   C18       1.0  0.7886868776909638  0.48310950127420677  0.5522796426740159  1.0000
  C   C19       1.0  0.7978429499970049  0.36513503949417714  0.43130028083497524  1.0000
  C   C20       1.0  0.2021074746616947  0.6349081240838854  0.5687298580806373  1.0000
  N   N1        1.0  0.506153955392172  0.6971298778110577  0.18817327738535286  1.0000
  N   N2        1.0  0.49385169310066607  0.3028320786546387  0.8117928076694769  1.0000
  O   O1        1.0  0.045938128916247906  0.26815557674165547  0.2634611577888607  1.0000
  O   O2        1.0  0.9540415846877792  0.7318972533132921  0.7365782832207374  1.0000
  O   O3        1.0  0.8285109358733821  0.6633138625779862  0.9882436798539164  1.0000
  O   O4        1.0  0.17149595603610382  0.3366601721720386  0.011737785056595808  1.0000
  O   O5        1.0  0.7237595305637685  0.362046823407617  0.09509441309688783  1.0000
  O   O6        1.0  0.2762278753184049  0.6379136217863246  0.9048765910455291  1.0000
  O   O7        1.0  0.4253299305224729  0.14577155557191185  0.10765213807245294  1.0000
  O   O8        1.0  0.5746824281578142  0.8542601740563638  0.8923947127961755  1.0000
