data_image0
_chemical_formula_structural       Er4H48C44O32
_chemical_formula_sum              "Er4 H48 C44 O32"
_cell_length_a       5.777257714
_cell_length_b       13.258879706139618
_cell_length_c       15.5117
_cell_angle_alpha    94.34198457375001
_cell_angle_beta     90.0
_cell_angle_gamma    90.0

_space_group_name_H-M_alt    "P 1"
_space_group_IT_number       1

loop_
  _space_group_symop_operation_xyz
  'x, y, z'

loop_
  _atom_site_type_symbol
  _atom_site_label
  _atom_site_symmetry_multiplicity
  _atom_site_fract_x
  _atom_site_fract_y
  _atom_site_fract_z
  _atom_site_occupancy
  Er  Er1       1.0  0.4402884769768818  0.6345609710030757  0.5837842572402892  1.0000
  Er  Er2       1.0  0.9402679037212138  0.8654376247729874  0.916215200614687  1.0000
  Er  Er3       1.0  0.5597309588879468  0.3654370843377492  0.4162112331255798  1.0000
  Er  Er4       1.0  0.059713451792880796  0.1345596741854322  0.08378539820007802  1.0000
  H   H1        1.0  0.8733884222911781  0.7182433388269801  0.6662995329246969  1.0000
  H   H2        1.0  0.3733778388962462  0.7817514750370337  0.8337035482361445  1.0000
  H   H3        1.0  0.12662235894848098  0.2817516909842084  0.3337028530687931  1.0000
  H   H4        1.0  0.6266087093929471  0.2182435547741619  0.1662988377573384  1.0000
  H   H5        1.0  0.6880478934438584  0.7149008849614447  0.7427008797323182  1.0000
  H   H6        1.0  0.18804596467409598  0.7850939289025689  0.7573022014285229  1.0000
  H   H7        1.0  0.31194730947050425  0.2850941448497437  0.257298927562509  1.0000
  H   H8        1.0  0.8119457763901963  0.2149011009086195  0.24269953989029602  1.0000
  H   H9        1.0  0.791804732704712  0.5875381893980034  0.45947792700722095  1.0000
  H   H10       1.0  0.29179414930978  0.9124641882900946  0.04051790754190421  1.0000
  H   H11       1.0  0.20820951038501784  0.4124613787076399  0.540516371906179  1.0000
  H   H12       1.0  0.7081923989794132  0.08753689258036702  0.9594803573163375  1.0000
  H   H13       1.0  0.8962123997780153  0.6884569995590724  0.4960880033917192  1.0000
  H   H14       1.0  0.3961966236079845  0.8115438653642145  0.003908377935211101  1.0000
  H   H15       1.0  0.10380184331170739  0.311542568546578  0.5039082295456724  1.0000
  H   H16       1.0  0.6037899246812087  0.1884579718886528  0.996088646522125  1.0000
  H   H17       1.0  0.20796025718024674  0.4752645665124646  0.8420637987896669  1.0000
  H   H18       1.0  0.7079691096501433  0.0247405122172211  0.6579359496673407  1.0000
  H   H19       1.0  0.7920384075841864  0.5247440781820885  0.15793108750484214  1.0000
  H   H20       1.0  0.29204167158951577  0.9752658633301081  0.3420678152271961  1.0000
  H   H21       1.0  0.5146455545500359  0.3074157461228637  0.7095089957325484  1.0000
  H   H22       1.0  0.014647087630336798  0.1925847943123671  0.7904853016365863  1.0000
  H   H23       1.0  0.4853427246641928  0.6925906294244584  0.29048509904202297  1.0000
  H   H24       1.0  0.9853602317592587  0.8074268759118227  0.20951429317428702  1.0000
  H   H25       1.0  0.08715553726811007  0.9636107667892376  0.6464780576687232  1.0000
  H   H26       1.0  0.5871297712373433  0.5363855598395872  0.8535309234609586  1.0000
  H   H27       1.0  0.9128846696971138  0.0363865321691748  0.35353027724202235  1.0000
  H   H28       1.0  0.4128152348510595  0.4636109827364194  0.146476717826701  1.0000
  H   H29       1.0  0.8833879762075653  0.8807763036458667  0.5962939349444838  1.0000
  H   H30       1.0  0.3833635454123723  0.6192222921301962  0.903712614331809  1.0000
  H   H31       1.0  0.1166453070575244  0.119224777224602  0.4037140000337232  1.0000
  H   H32       1.0  0.6165866534511295  0.3807719812985866  0.09629616945989741  1.0000
  H   H33       1.0  0.26548062695615465  0.9945513456133455  0.5044632452185311  1.0000
  H   H34       1.0  0.7654410135251267  0.5054389299562132  0.9955466336730652  1.0000
  H   H35       1.0  0.7345561181590057  0.005439902285800702  0.4955453427794723  1.0000
  H   H36       1.0  0.2345161090385091  0.4945530743253387  0.004455556526714599  1.0000
  H   H37       1.0  0.08670722768452777  0.9021781439095875  0.4510244698373215  1.0000
  H   H38       1.0  0.5866693451785281  0.5978144008071951  0.04898555589954871  1.0000
  H   H39       1.0  0.9133295174306254  0.0978161295191882  0.5489836692797212  1.0000
  H   H40       1.0  0.4132947010852348  0.4021783598567694  0.9510218406459714  1.0000
  H   H41       1.0  0.6103639779570358  0.2835412917639957  0.8617369460846405  1.0000
  H   H42       1.0  0.11037243473747078  0.216466056112921  0.6382584364949936  1.0000
  H   H43       1.0  0.3896329558823624  0.716470378460194  0.1382574913289147  1.0000
  H   H44       1.0  0.8896470011273578  0.7835433449640448  0.3617416561452629  1.0000
  H   H45       1.0  0.9656692285823851  0.3636679058830126  0.9289496215514319  1.0000
  H   H46       1.0  0.4656846090629472  0.136339441993897  0.571052207774855  1.0000
  H   H47       1.0  0.034322512481914196  0.6363437643411771  0.0710486839101137  1.0000
  H   H48       1.0  0.5343348268018744  0.8636684463182434  0.42895036566721256  1.0000
  C   C1        1.0  0.1575055233895668  0.5165917885774789  0.6786906788033208  1.0000
  C   C2        1.0  0.6574814882838352  0.9834060508161714  0.8213067960792416  1.0000
  C   C3        1.0  0.8425208361753889  0.4834062667633461  0.32130545623721934  1.0000
  C   C4        1.0  0.3425033290803298  0.0165942736718847  0.1786946432038974  1.0000
  C   C5        1.0  0.7406195485500575  0.4070615646895206  0.5961143752128919  1.0000
  C   C6        1.0  0.240612427005189  0.0929314119216258  0.9038813666959769  1.0000
  C   C7        1.0  0.2593877708395382  0.5929349778864932  0.40387972790680493  1.0000
  C   C8        1.0  0.7593845068342018  0.9070658870367938  0.09611729809479641  1.0000
  C   C9        1.0  0.22414440624000057  0.8228880887349632  0.6003579986081534  1.0000
  C   C10       1.0  0.7241221020593045  0.6771036995994137  0.8996474654576403  1.0000
  C   C11       1.0  0.7758784914748914  0.17710467192899426  0.3996455298893836  1.0000
  C   C12       1.0  0.2758315586542679  0.3228890610645508  0.10035606303989651  1.0000
  C   C13       1.0  0.8100261805284602  0.4019794312831948  0.6888468573186375  1.0000
  C   C14       1.0  0.31002425175869763  0.09802186553444871  0.8111513570469101  1.0000
  C   C15       1.0  0.1899690223859025  0.5980269442641344  0.31114852680525473  1.0000
  C   C16       1.0  0.6899865294809686  0.9019829972480622  0.1888490865774557  1.0000
  C   C17       1.0  0.0042528828063979  0.4510179720083444  0.7274136144134645  1.0000
  C   C18       1.0  0.5042426951009276  0.0489825684268865  0.7725826169796621  1.0000
  C   C19       1.0  0.9957527056581623  0.5489861343917539  0.2725803335158261  1.0000
  C   C20       1.0  0.4957646242886681  0.9510200252083933  0.22741961382342174  1.0000
  C   C21       1.0  0.055919264120262796  0.4373077844621278  0.8140835095324377  1.0000
  C   C22       1.0  0.555924654740096  0.0626957815027396  0.6859135623290554  1.0000
  C   C23       1.0  0.9440759387941  0.5627031293796563  0.1859128129566798  1.0000
  C   C24       1.0  0.4440878574245986  0.9373098376621769  0.3140882195930601  1.0000
  C   C25       1.0  0.6675450864264504  0.3437538698178599  0.7386693719649244  1.0000
  C   C26       1.0  0.16755181228185018  0.1562466706173709  0.7613262147535381  1.0000
  C   C27       1.0  0.3324431927877781  0.656254774876686  0.2613242249802568  1.0000
  C   C28       1.0  0.8324606998828443  0.843762730459595  0.23867452256138222  1.0000
  C   C29       1.0  0.060990874467329086  0.909148207808876  0.589906520385199  1.0000
  C   C30       1.0  0.5609564538114  0.590843580525501  0.9101015223792502  1.0000
  C   C31       1.0  0.939044139722796  0.09084379647267583  0.4101034059105544  1.0000
  C   C32       1.0  0.43899201412706645  0.4091506929032818  0.08990403803912982  1.0000
  C   C33       1.0  0.09257160169676838  0.9600421545833984  0.5057609053616474  1.0000
  C   C34       1.0  0.5925319882657404  0.5399503901333844  0.9942471863512381  1.0000
  C   C35       1.0  0.9074634124933565  0.0399513624629719  0.4942484741563007  1.0000
  C   C36       1.0  0.4074199415227966  0.4600416141481674  0.005757582547204305  1.0000
  C   C37       1.0  0.7214720558335799  0.330831076359452  0.8247623092719253  1.0000
  C   C38       1.0  0.22148051261401486  0.1691702204581915  0.6752307476963039  1.0000
  C   C39       1.0  0.27852314708078296  0.6691768119526955  0.1752305940501699  1.0000
  C   C40       1.0  0.7785371923257784  0.8308391806187745  0.3247680555946246  1.0000
  C   C41       1.0  0.9188511682863093  0.3763705920603968  0.8625353172420347  1.0000
  C   C42       1.0  0.4188682796919138  0.12363373028688333  0.6374630929172227  1.0000
  C   C43       1.0  0.08113538000288399  0.6236403217813874  0.1374610052470899  1.0000
  C   C44       1.0  0.5811511561729148  0.8763734016428515  0.3625407209257503  1.0000
  O   O1        1.0  0.1302867272436146  0.5185750232539732  0.5958094223710404  1.0000
  O   O2        1.0  0.6302626921378831  0.9814288671989431  0.9041897334482626  1.0000
  O   O3        1.0  0.8697361704712774  0.4814268139988941  0.4041856680623042  1.0000
  O   O4        1.0  0.3697221252262821  0.0185707009067002  0.0958142355851095  1.0000
  O   O5        1.0  0.7889383208498513  0.3330268544928856  0.5418625736141608  1.0000
  O   O6        1.0  0.2889190828297572  0.1669668785006593  0.9581357959417929  1.0000
  O   O7        1.0  0.2110845768650407  0.6669712008479394  0.4581335614263793  1.0000
  O   O8        1.0  0.711065734534408  0.8330289076929347  0.041867928349447005  1.0000
  O   O9        1.0  0.613432908040771  0.4789398286379766  0.5739364696753455  1.0000
  O   O10       1.0  0.11340328447047908  0.0210584426500233  0.9260480107285363  1.0000
  O   O11       1.0  0.3865917205991565  0.5210589830852541  0.4260461761456611  1.0000
  O   O12       1.0  0.8865780710436226  0.978938856308396  0.0739422732915926  1.0000
  O   O13       1.0  0.7182369569466616  0.6914976568434029  0.6816777375070302  1.0000
  O   O14       1.0  0.21822637355173669  0.8084971570206109  0.81832469897914  1.0000
  O   O15       1.0  0.281775555218033  0.3084958602029674  0.3183232612402662  1.0000
  O   O16       1.0  0.7817567128874002  0.1914956036433537  0.18167689549439814  1.0000
  O   O17       1.0  0.4230709656723448  0.8172363993746359  0.5672724380237497  1.0000
  O   O18       1.0  0.9230434687165497  0.682753876194923  0.9327329281451924  1.0000
  O   O19       1.0  0.5769536629675756  0.1827548485245103  0.4327290585529369  1.0000
  O   O20       1.0  0.07691538477212129  0.3172366153218107  0.0672698088323997  1.0000
  O   O21       1.0  0.3143481024914507  0.5701534961086807  0.7166830600624579  1.0000
  O   O22       1.0  0.8143171436855849  0.9298428305201512  0.7833104488752627  1.0000
  O   O23       1.0  0.6856903735487379  0.42984229008492053  0.283309060084818  1.0000
  O   O24       1.0  0.18565555720334706  0.0701537120558555  0.216685588268426  1.0000
  O   O25       1.0  0.15254296131958966  0.7479555526188051  0.6443861239413451  1.0000
  O   O26       1.0  0.6525379663892181  0.7520400176276141  0.8556157168185906  1.0000
  O   O27       1.0  0.8474678199200696  0.2520402335747889  0.35561373230191146  1.0000
  O   O28       1.0  0.347439927274813  0.247955768565987  0.14438671812331452  1.0000
  O   O29       1.0  0.7461204283053391  0.6542503614927428  0.489622730350277  1.0000
  O   O30       1.0  0.24610465213530824  0.8457512598129568  0.0103743445997537  1.0000
  O   O31       1.0  0.253895545709419  0.3457492066129078  0.5103728579124507  1.0000
  O   O32       1.0  0.7538801652288568  0.1542505774399174  0.9896226798575825  1.0000
