data_image0
_chemical_formula_structural       Zn4H48C72N8O16
_chemical_formula_sum              "Zn4 H48 C72 N8 O16"
_cell_length_a       9.22261678758978
_cell_length_b       11.200542082427503
_cell_length_c       16.682166074928958
_cell_angle_alpha    101.05189380376156
_cell_angle_beta     94.38268474824126
_cell_angle_gamma    109.51547944083039

_space_group_name_H-M_alt    "P 1"
_space_group_IT_number       1

loop_
  _space_group_symop_operation_xyz
  'x, y, z'

loop_
  _atom_site_type_symbol
  _atom_site_label
  _atom_site_symmetry_multiplicity
  _atom_site_fract_x
  _atom_site_fract_y
  _atom_site_fract_z
  _atom_site_occupancy
  Zn  Zn1       1.0  0.20538298742302893  0.15737342868580842  0.4956458643617481  1.0000
  Zn  Zn2       1.0  0.7946136007210569  0.8426232299653266  0.5043557963962897  1.0000
  Zn  Zn3       1.0  0.22892120851427927  0.4762672960232878  0.15296929750839178  1.0000
  Zn  Zn4       1.0  0.7710820305011268  0.5237322028264161  0.8470299853397733  1.0000
  H   H1        1.0  0.012525324296760223  0.33493390997140443  0.5249156682910723  1.0000
  H   H2        1.0  0.9874669470153138  0.6650628029498978  0.4750876223746943  1.0000
  H   H3        1.0  0.06137640805506092  0.5705134572619387  0.591992270181251  1.0000
  H   H4        1.0  0.9386180556504442  0.42948327367106043  0.4080129101127881  1.0000
  H   H5        1.0  0.3365501391591438  0.7178822296264544  0.650152385799032  1.0000
  H   H6        1.0  0.6634427956006803  0.2821135037260874  0.3498508112376228  1.0000
  H   H7        1.0  0.5483172569123838  0.62840224169954  0.6394044936143359  1.0000
  H   H8        1.0  0.4516790590049596  0.37159632991555475  0.3605949936156634  1.0000
  H   H9        1.0  0.7044326989457234  0.5319167403888585  0.6501346999416882  1.0000
  H   H10       1.0  0.29556527246211334  0.4680856851984958  0.34986293087875  1.0000
  H   H11       1.0  0.8781561314449391  0.40551784771021476  0.6442264206509449  1.0000
  H   H12       1.0  0.12183881982421953  0.5944826328793058  0.3557702487459906  1.0000
  H   H13       1.0  0.7821191105238084  0.17448504617415495  0.557143971386445  1.0000
  H   H14       1.0  0.21787827516336494  0.8255134993326297  0.44285435709380755  1.0000
  H   H15       1.0  0.5071507028231323  0.0830712542394068  0.48157997566124067  1.0000
  H   H16       1.0  0.4928432715043699  0.9169244128743305  0.5184196585526593  1.0000
  H   H17       1.0  0.24166049811459797  0.19719589077419647  0.2065752881033731  1.0000
  H   H18       1.0  0.7583427009264058  0.8028085178879398  0.7934263958053477  1.0000
  H   H19       1.0  0.2377553348582211  0.08786395371536324  0.0597376960282929  1.0000
  H   H20       1.0  0.7622368285245998  0.912137578724789  0.9402625865337484  1.0000
  H   H21       1.0  0.22340694842734632  0.8562761247057511  0.02545209445250413  1.0000
  H   H22       1.0  0.776590359532733  0.1437272804503636  0.9745456299970313  1.0000
  H   H23       1.0  0.20625589419545073  0.8431194478775696  0.2806176137698699  1.0000
  H   H24       1.0  0.7937486792659953  0.15687810186723544  0.7193820828383366  1.0000
  H   H25       1.0  0.5755434648538725  0.9476077332105037  0.3122098182823266  1.0000
  H   H26       1.0  0.4244580635955728  0.05239280141412911  0.6877925199994478  1.0000
  H   H27       1.0  0.489322528595018  0.016690196027909103  0.1890850506833246  1.0000
  H   H28       1.0  0.5106811695962392  0.9833103265105765  0.8109173741719643  1.0000
  H   H29       1.0  0.6816170778499141  0.18385925961518274  0.1328390499140397  1.0000
  H   H30       1.0  0.31838709683998445  0.8161373467017939  0.8671623128330664  1.0000
  H   H31       1.0  0.0371806926354878  0.22675440884674464  0.3296122725375454  1.0000
  H   H32       1.0  0.9628232475803599  0.7732441605973012  0.6703899217727809  1.0000
  H   H33       1.0  0.5207079565483994  0.6945862828844869  0.2732127768432875  1.0000
  H   H34       1.0  0.4792910207104768  0.30540838048818847  0.7267869368885513  1.0000
  H   H35       1.0  0.8075394921158149  0.7461113391924173  0.2945152021150719  1.0000
  H   H36       1.0  0.1924573793200324  0.253891072372774  0.7054811833820978  1.0000
  H   H37       1.0  0.9171283955399191  0.5999957977779999  0.2013423635046081  1.0000
  H   H38       1.0  0.08287685021257836  0.40001339825159493  0.7986551968374016  1.0000
  H   H39       1.0  0.7388612028590771  0.42283859128646384  0.08858927272301291  1.0000
  H   H40       1.0  0.26114392389915514  0.5771677583839578  0.9114127283041852  1.0000
  H   H41       1.0  0.5773322062248738  0.2934244456922529  0.9884708867410978  1.0000
  H   H42       1.0  0.422670462170963  0.706571193142118  0.01153029580338943  1.0000
  H   H43       1.0  0.3682089719046431  0.1354092983675272  0.8777612726174411  1.0000
  H   H44       1.0  0.6317925187921105  0.8645911860940175  0.12223806057306771  1.0000
  H   H45       1.0  0.0926777970034536  0.12722213753420422  0.8797791976964362  1.0000
  H   H46       1.0  0.9073246857360361  0.8727831804683464  0.1202183727136088  1.0000
  H   H47       1.0  0.039074020680928453  0.2784375591481594  0.9974258690027326  1.0000
  H   H48       1.0  0.96093063935092  0.7215677568008659  0.002572388999091413  1.0000
  C   C1        1.0  0.12834648968338777  0.40384690299999476  0.5525485083861669  1.0000
  C   C2        1.0  0.871643175362635  0.5961488284165314  0.4474533567537051  1.0000
  C   C3        1.0  0.1568164790206197  0.5339014880636698  0.5890741439880713  1.0000
  C   C4        1.0  0.8431725527798123  0.46609526305209686  0.4109302188539203  1.0000
  C   C5        1.0  0.30947225925157085  0.6153689750881598  0.6215550579571172  1.0000
  C   C6        1.0  0.6905259994840804  0.38463155760047146  0.3784459484278742  1.0000
  C   C7        1.0  0.4279683335332294  0.5645138296019071  0.6165590697207292  1.0000
  C   C8        1.0  0.5720294660265707  0.4354856793979351  0.3834387946571312  1.0000
  C   C9        1.0  0.3903307594175515  0.43260191150382354  0.5796893530867422  1.0000
  C   C10       1.0  0.6096634018590592  0.5673966922626693  0.420311249606236  1.0000
  C   C11       1.0  0.5086970601176759  0.37005352177679646  0.5733023612294446  1.0000
  C   C12       1.0  0.49129815582768555  0.6299450358161355  0.4266958806772863  1.0000
  C   C13       1.0  0.6623800163897827  0.4320436063552294  0.6135266670097295  1.0000
  C   C14       1.0  0.33761370081204944  0.5679539937877182  0.3864719957126326  1.0000
  C   C15       1.0  0.7611103619742678  0.36094249989837845  0.6093983636805689  1.0000
  C   C16       1.0  0.23888612579111182  0.6390589883042285  0.3906008899920081  1.0000
  C   C17       1.0  0.7086050465996293  0.23337813779766492  0.561844140975218  1.0000
  C   C18       1.0  0.2913891924040686  0.7666156063194908  0.43815706574847724  1.0000
  C   C19       1.0  0.5555296035911754  0.18099039332491884  0.5212706107058835  1.0000
  C   C20       1.0  0.4444619589699172  0.8190072389694267  0.4787291674794716  1.0000
  C   C21       1.0  0.23312930833237286  0.09357650546022711  0.340161432057286  1.0000
  C   C22       1.0  0.7668667655603869  0.9064240192493148  0.659838285717676  1.0000
  C   C23       1.0  0.2261736772343994  0.027182867712255615  0.2523402826000164  1.0000
  C   C24       1.0  0.7738267987679993  0.9728127531104043  0.747659010316191  1.0000
  C   C25       1.0  0.2344596761545716  0.09612000793638488  0.18989964555392183  1.0000
  C   C26       1.0  0.765538832156203  0.9038785816904212  0.810101731304357  1.0000
  C   C27       1.0  0.23197098401198704  0.03466966604450761  0.1083270017948976  1.0000
  C   C28       1.0  0.7680251049818452  0.9653308787302777  0.8916739180165649  1.0000
  C   C29       1.0  0.22342700198154827  0.9053495243115322  0.08867590245309029  1.0000
  C   C30       1.0  0.7765720218733208  0.09465781507779521  0.9113247737329073  1.0000
  C   C31       1.0  0.21309117391101762  0.8355798405465155  0.15082477654155474  1.0000
  C   C32       1.0  0.7869098425088125  0.16441960016100415  0.8491702126053156  1.0000
  C   C33       1.0  0.21305470708320948  0.8966711424470406  0.2322315640081953  1.0000
  C   C34       1.0  0.7869444042710114  0.10332638735004454  0.7677649110749485  1.0000
  C   C35       1.0  0.20815487641831262  0.6980910865385116  0.13114209602459687  1.0000
  C   C36       1.0  0.7918513223314677  0.3019102770480659  0.8688533401010403  1.0000
  C   C37       1.0  0.863791339565779  0.042032009362408515  0.40348679372238644  1.0000
  C   C38       1.0  0.13620819854042324  0.9579714639685054  0.5965158254466942  1.0000
  C   C39       1.0  0.8115413814852558  0.08312188695850863  0.3290486132504356  1.0000
  C   C40       1.0  0.18846141123366789  0.9168815682431843  0.6709541357789205  1.0000
  C   C41       1.0  0.6574315902024352  0.023201631153540302  0.288571945471837  1.0000
  C   C42       1.0  0.3425682450038396  0.9767949993357452  0.711429244128226  1.0000
  C   C43       1.0  0.6095974241820769  0.061332245769961  0.2193362874526912  1.0000
  C   C44       1.0  0.39040518913827793  0.9386682828115982  0.780666094115837  1.0000
  C   C45       1.0  0.7161323162837405  0.1552520801126676  0.188007019987829  1.0000
  C   C46       1.0  0.2838659748757736  0.844743532730917  0.8119909843183564  1.0000
  C   C47       1.0  0.8708980970529865  0.21448332084023056  0.2273044923080789  1.0000
  C   C48       1.0  0.12910823227764476  0.7855132533253555  0.7726957549760413  1.0000
  C   C49       1.0  0.9169350925964538  0.18061904145355365  0.29905686841362206  1.0000
  C   C50       1.0  0.08306664767543036  0.819379499946159  0.7009428352501673  1.0000
  C   C51       1.0  0.9857679676299257  0.31058124382319363  0.19057240708505674  1.0000
  C   C52       1.0  0.014236129332878985  0.689420222143113  0.8094283516313325  1.0000
  C   C53       1.0  0.5735065718926932  0.6361797682165646  0.23407349415539608  1.0000
  C   C54       1.0  0.42649708854587226  0.36382070415882595  0.7659259256086342  1.0000
  C   C55       1.0  0.7336541075683414  0.663705381437545  0.24560218042928034  1.0000
  C   C56       1.0  0.2663501234898007  0.3362989509531787  0.7543953396384281  1.0000
  C   C57       1.0  0.7928959949834039  0.5838232232254869  0.19381414762309393  1.0000
  C   C58       1.0  0.2071090940221439  0.41618307628183987  0.8061848483128385  1.0000
  C   C59       1.0  0.6920551673856752  0.48329396425134524  0.13023996465855703  1.0000
  C   C60       1.0  0.3079532388586088  0.5167074374121797  0.8697585631318603  1.0000
  C   C61       1.0  0.5328766469017127  0.46342311777129924  0.12152468254598152  1.0000
  C   C62       1.0  0.4671235946266422  0.5365744661784292  0.8784754419334462  1.0000
  C   C63       1.0  0.4167545338319485  0.36486247809887834  0.053395416613156506  1.0000
  C   C64       1.0  0.5832517177715887  0.6351389557160376  0.9466042266402467  1.0000
  C   C65       1.0  0.45645108000039164  0.2851347420958774  0.9903461944524707  1.0000
  C   C66       1.0  0.543552408590145  0.7148628136920082  0.009653458868982119  1.0000
  C   C67       1.0  0.3396263398140391  0.19845293141744247  0.9273958746721574  1.0000
  C   C68       1.0  0.6603749865852251  0.8015446464892125  0.07260429309402384  1.0000
  C   C69       1.0  0.18657793778083942  0.19329938190617213  0.9281819590979125  1.0000
  C   C70       1.0  0.813424779432701  0.8067039729693238  0.07181477974891953  1.0000
  C   C71       1.0  0.15520736699742343  0.27594497606508384  0.9926395035986957  1.0000
  C   C72       1.0  0.8447954030698881  0.7240584490387435  0.007361442375902543  1.0000
  N   N1        1.0  0.4755736778646593  0.5372793349134427  0.1748067128340125  1.0000
  N   N2        1.0  0.5244325737388849  0.4627220989014731  0.8251929304193908  1.0000
  N   N3        1.0  0.267543258159492  0.35859107847452537  0.053468897707411124  1.0000
  N   N4        1.0  0.7324599657548418  0.6414084003099421  0.9465291831042464  1.0000
  N   N5        1.0  0.2419565504752867  0.35424927996592004  0.5484219839743858  1.0000
  N   N6        1.0  0.7580387032227663  0.6457493277901138  0.45157926302360357  1.0000
  N   N7        1.0  0.4575488447613694  0.24610898831958394  0.5286915799139678  1.0000
  N   N8        1.0  0.5424453866917958  0.7538847457649568  0.47130902579147715  1.0000
  O   O1        1.0  0.2601390636539804  0.21437798912109687  0.3589278674235459  1.0000
  O   O2        1.0  0.739867031202607  0.7856205481715507  0.6410732114237874  1.0000
  O   O3        1.0  0.2078173045161762  0.022564936553109812  0.3938223855284306  1.0000
  O   O4        1.0  0.7921824529629973  0.9774365535855057  0.6061782000409294  1.0000
  O   O5        1.0  0.21918808344272386  0.6442336513364284  0.05992617152718081  1.0000
  O   O6        1.0  0.7808074535470907  0.3557707093336618  0.9400698002099402  1.0000
  O   O7        1.0  0.19540309794262362  0.641105579303428  0.1926441190217218  1.0000
  O   O8        1.0  0.8046032087363956  0.35889096476429233  0.8073543252076334  1.0000
  O   O9        1.0  0.7934495493072334  0.9231964036728258  0.4054388015816953  1.0000
  O   O10       1.0  0.2065487396305627  0.07680416914628553  0.594564608876304  1.0000
  O   O11       1.0  0.969557576911207  0.12655209502106865  0.4587371429833169  1.0000
  O   O12       1.0  0.030444372961398  0.8734494131292581  0.5412653322143157  1.0000
  O   O13       1.0  0.12734322925825842  0.3643685213743454  0.22960380050995613  1.0000
  O   O14       1.0  0.8726604462813867  0.6356319710662819  0.770396821290575  1.0000
  O   O15       1.0  0.9449940040241386  0.33487045041748337  0.12355985367482697  1.0000
  O   O16       1.0  0.05501039003873851  0.6651241727071879  0.8764394754725515  1.0000
