data_image0
_chemical_formula_structural       Cd2H32C24N12O12
_chemical_formula_sum              "Cd2 H32 C24 N12 O12"
_cell_length_a       8.31710730928418
_cell_length_b       9.269559750467545
_cell_length_c       11.392256206010824
_cell_angle_alpha    89.99984229572681
_cell_angle_beta     90.00005085749075
_cell_angle_gamma    114.4651272231809

_space_group_name_H-M_alt    "P 1"
_space_group_IT_number       1

loop_
  _space_group_symop_operation_xyz
  'x, y, z'

loop_
  _atom_site_type_symbol
  _atom_site_label
  _atom_site_symmetry_multiplicity
  _atom_site_fract_x
  _atom_site_fract_y
  _atom_site_fract_z
  _atom_site_occupancy
  Cd  Cd1       1.0  0.50000070020274  0.5000007237480372  1.3587293921000002e-06  1.0000
  Cd  Cd2       1.0  2.185806806729942e-07  0.5000014493137356  0.49999872658958106  1.0000
  H   H1        1.0  0.5990323279482652  0.6584457629735923  0.2810982973588523  1.0000
  H   H2        1.0  0.9009713670082888  0.34155694052284236  0.7810945310122435  1.0000
  H   H3        1.0  0.40097113681232344  0.3415562965838958  0.7189047531331667  1.0000
  H   H4        1.0  0.09903330372377174  0.6584451269694467  0.21889974158769826  1.0000
  H   H5        1.0  0.5470020756479812  0.06731460638061286  0.1573201274125537  1.0000
  H   H6        1.0  0.9529905368479703  0.9326825529707035  0.6573185774403782  1.0000
  H   H7        1.0  0.45299682113837025  0.9326826965835193  0.8426802897155667  1.0000
  H   H8        1.0  0.04700407507010601  0.0673159035138085  0.3426774507387904  1.0000
  H   H9        1.0  0.7708009982738062  0.655750108697184  0.8352923540270609  1.0000
  H   H10       1.0  0.7291991829196007  0.34425001713644576  0.335291646179634  1.0000
  H   H11       1.0  0.22919910448170092  0.34424720218315474  0.1647098186799383  1.0000
  H   H12       1.0  0.2707982519938524  0.6557520028291602  0.6647087709426955  1.0000
  H   H13       1.0  0.36880327751615727  0.8416302810512801  0.4479543399510959  1.0000
  H   H14       1.0  0.1311973165457658  0.1583726720886602  0.9479516849317519  1.0000
  H   H15       1.0  0.6311992371784357  0.15836704566765997  0.5520478327566849  1.0000
  H   H16       1.0  0.8688029413649828  0.8416329113735512  0.0520443432412705  1.0000
  H   H17       1.0  0.4213932513735372  0.03172638962292498  0.3863107624192565  1.0000
  H   H18       1.0  0.0786097817055234  0.9682767971116912  0.8863071293145026  1.0000
  H   H19       1.0  0.5786045673943717  0.9682685429568634  0.6136922880789086  1.0000
  H   H20       1.0  0.9213934271528573  0.0317299873758756  0.11369065443663831  1.0000
  H   H21       1.0  0.7382743793078392  0.07572870977497098  0.36824854836029175  1.0000
  H   H22       1.0  0.7617245814395588  0.9242712917225828  0.8682477686359107  1.0000
  H   H23       1.0  0.2617230556056141  0.924273310190635  0.6317518687620449  1.0000
  H   H24       1.0  0.23827713834390343  0.07572957473660578  0.1317491373321502  1.0000
  H   H25       1.0  0.6871598340412604  0.8834385193678924  0.425803386532735  1.0000
  H   H26       1.0  0.81284313039059  0.11656485022977135  0.9258009456151299  1.0000
  H   H27       1.0  0.3128464537160554  0.11656710368153966  0.5741979083777196  1.0000
  H   H28       1.0  0.1871560495024907  0.8834383628542919  0.0741942047709543  1.0000
  H   H29       1.0  0.5922628937435376  0.6545955233766702  0.7754305807966304  1.0000
  H   H30       1.0  0.9077355687670945  0.3454036208124122  0.2754273550264799  1.0000
  H   H31       1.0  0.4077357471382966  0.3454065044989463  0.22457510306157502  1.0000
  H   H32       1.0  0.09226145508929302  0.6545948515045054  0.7245721843104603  1.0000
  C   C1        1.0  0.571239862480624  0.7400500996215199  0.2253401456487296  1.0000
  C   C2        1.0  0.928759828002768  0.2599492294321734  0.7253357033813685  1.0000
  C   C3        1.0  0.4287607792836212  0.25994839644711476  0.774662904846366  1.0000
  C   C4        1.0  0.07124014680299219  0.7400504439240545  0.2746576914304626  1.0000
  C   C5        1.0  0.5443832862305911  0.9493485467144605  0.16170193661209  1.0000
  C   C6        1.0  0.9556140202672196  0.05065099129698319  0.6616997382954111  1.0000
  C   C7        1.0  0.4556168165252998  0.05064876416897588  0.8382984805164214  1.0000
  C   C8        1.0  0.044382875638454604  0.9493498434880788  0.3382954120925916  1.0000
  C   C9        1.0  0.887756851302555  0.5027442870912819  0.0404096340372888  1.0000
  C   C10       1.0  0.6122541851954181  0.4972593141328756  0.5404141045923367  1.0000
  C   C11       1.0  0.1122424293388348  0.4972459284916722  0.9595907830989246  1.0000
  C   C12       1.0  0.38774702277939344  0.5027510021523652  0.45959157925739896  1.0000
  C   C13       1.0  0.9828603155328466  0.56244502966684  0.9285005802524892  1.0000
  C   C14       1.0  0.5171377966337259  0.437547663693536  0.42849864461962284  1.0000
  C   C15       1.0  0.017136681120753314  0.43754280761401515  0.0715015924641378  1.0000
  C   C16       1.0  0.4828623333232258  0.5624602822120082  0.5715070392324222  1.0000
  C   C17       1.0  0.4740444439593006  0.9618500441679598  0.43949849576232225  1.0000
  C   C18       1.0  0.0259550757994589  0.03815056846507758  0.9394942859060152  1.0000
  C   C19       1.0  0.5259563257566315  0.03814608944028209  0.5605045547354663  1.0000
  C   C20       1.0  0.9740445151506801  0.9618561922676743  0.0605017422654655  1.0000
  C   C21       1.0  0.633336001754749  0.9555037786630789  0.3769192045373302  1.0000
  C   C22       1.0  0.8666641611539917  0.04449620012904629  0.8769160834610119  1.0000
  C   C23       1.0  0.3666650510673293  0.04449826506044729  0.6230812125861718  1.0000
  C   C24       1.0  0.13333568569969836  0.9555058356844764  0.1230790669266142  1.0000
  N   N1        1.0  0.5877178808637991  0.885973895105536  0.2592147518800161  1.0000
  N   N2        1.0  0.912282333748159  0.11402649947318366  0.7592123824118886  1.0000
  N   N3        1.0  0.4122845058794979  0.11402579407690178  0.7407856652465696  1.0000
  N   N4        1.0  0.0877181800663393  0.8859743590713476  0.240781890188039  1.0000
  N   N5        1.0  0.5201335959140749  0.7155192213834738  0.1144200736783318  1.0000
  N   N6        1.0  0.9798643983140921  0.28447930638338187  0.6144156100414833  1.0000
  N   N7        1.0  0.47986771281078683  0.28447809741462027  0.8855829768183056  1.0000
  N   N8        1.0  0.020134909530668082  0.7155215442402888  0.38557954034730096  1.0000
  N   N9        1.0  0.5026240018487085  0.8479961124616149  0.07322702515313749  1.0000
  N   N10       1.0  0.9973699815079584  0.15199898940836215  0.5732237487647893  1.0000
  N   N11       1.0  0.49737448388020067  0.15199764285072345  0.9267742697680745  1.0000
  N   N12       1.0  0.0026246304105013913  0.8479994670792548  0.42677052383587727  1.0000
  O   O1        1.0  0.6603569882133655  0.671064544543661  0.8505157992151382  1.0000
  O   O2        1.0  0.8396425193324787  0.32893670478544823  0.3505143210323283  1.0000
  O   O3        1.0  0.3396453985291643  0.3289351446325739  0.1494881290684376  1.0000
  O   O4        1.0  0.1603538375632993  0.6710629448020169  0.649485218303063  1.0000
  O   O5        1.0  0.755857716276445  0.5059287434584546  0.09242123312415629  1.0000
  O   O6        1.0  0.7441405707195797  0.4940757721211638  0.5924214090933403  1.0000
  O   O7        1.0  0.24414143641326544  0.49406383458489217  0.9075791840093643  1.0000
  O   O8        1.0  0.25586130421584835  0.5059333668935365  0.40758427475793724  1.0000
  O   O9        1.0  0.9637969115573738  0.6374977742595431  0.8407101535816396  1.0000
  O   O10       1.0  0.5362013943249124  0.36250350177808593  0.3407145438271755  1.0000
  O   O11       1.0  0.0362015741713435  0.3624959810512464  0.1592920191288201  1.0000
  O   O12       1.0  0.4637987356320393  0.6375044441274651  0.6592911400248695  1.0000
