data_image0
_chemical_formula_structural       Cu4H10C14N12
_chemical_formula_sum              "Cu4 H10 C14 N12"
_cell_length_a       7.916703175476074
_cell_length_b       8.15183110783553
_cell_length_c       8.151819849202349
_cell_angle_alpha    100.64353347126634
_cell_angle_beta     109.23684083783176
_cell_angle_gamma    109.23704911416831

_space_group_name_H-M_alt    "P 1"
_space_group_IT_number       1

loop_
  _space_group_symop_operation_xyz
  'x, y, z'

loop_
  _atom_site_type_symbol
  _atom_site_label
  _atom_site_symmetry_multiplicity
  _atom_site_fract_x
  _atom_site_fract_y
  _atom_site_fract_z
  _atom_site_occupancy
  Cu  Cu1       1.0  0.018188807503463543  0.4557515965537745  0.2120700806478695  1.0000
  Cu  Cu2       1.0  0.48179530837792567  0.7879209393707141  0.5442512341716821  1.0000
  Cu  Cu3       1.0  0.9818094048992163  0.5442431701116488  0.7879267143540362  1.0000
  Cu  Cu4       1.0  0.5182022384102892  0.21207527395922904  0.45574679426354703  1.0000
  H   H1        1.0  0.24999922469439176  0.3397874792096544  0.6602225056942999  1.0000
  H   H2        1.0  0.7500029510660936  0.6602212401421637  0.339784034157418  1.0000
  H   H3        1.0  0.5610327626474076  0.40322537731339736  0.9238765060830902  1.0000
  H   H4        1.0  0.9389704515965321  0.07612780511225027  0.5967768848581303  1.0000
  H   H5        1.0  0.4389699970329842  0.5967734927584444  0.07612741487097444  1.0000
  H   H6        1.0  0.06102914261457939  0.9238809760454743  0.4032263282413382  1.0000
  H   H7        1.0  0.5602087040972422  0.21122868564170713  0.12590346001248076  1.0000
  H   H8        1.0  0.9397930999677157  0.8740988850114133  0.788770865439517  1.0000
  H   H9        1.0  0.43978883802137864  0.7887647062983374  0.874092883794198  1.0000
  H   H10       1.0  0.06020321517844  0.12590578235502647  0.21122810789103147  1.0000
  C   C1        1.0  0.25000152845967694  0.25291653385496454  0.7470877000184686  1.0000
  C   C2        1.0  0.7500013806010274  0.7470906772780593  0.25291393797856904  1.0000
  C   C3        1.0  0.424125533532667  0.2894146172088411  0.8958818933875392  1.0000
  C   C4        1.0  0.0758723972145461  0.10412351138420918  0.7105886274803981  1.0000
  C   C5        1.0  0.5758766554505357  0.7105884388450647  0.10412005439995646  1.0000
  C   C6        1.0  0.9241303492431285  0.8958810219855308  0.28941988553788883  1.0000
  C   C7        1.0  0.4239868314005903  0.18124805566430516  0.009448524998305202  1.0000
  C   C8        1.0  0.07601573212944869  0.9905518923894191  0.8187551021876374  1.0000
  C   C9        1.0  0.5760160457589977  0.8187535332069941  0.9905509665487386  1.0000
  C   C10       1.0  0.923987847215315  0.009456693468990788  0.18124698700463449  1.0000
  C   C11       1.0  0.25000437574792034  0.02915948107517609  0.9708388906167047  1.0000
  C   C12       1.0  0.7499925007562356  0.9708353575293885  0.029158686623297663  1.0000
  C   C13       1.0  0.24999941540495746  0.9134299310389763  0.08656544118230863  1.0000
  C   C14       1.0  0.75000343919271  0.08657167835040978  0.9134352731718496  1.0000
  N   N1        1.0  0.018809090448925807  0.4811313984978866  0.4377614064034105  1.0000
  N   N2        1.0  0.48119965147017035  0.5622240362349442  0.5188604015553366  1.0000
  N   N3        1.0  0.981193727578031  0.5188617672398763  0.5622354768721892  1.0000
  N   N4        1.0  0.5187965547499189  0.43776942764423404  0.4811367244894384  1.0000
  N   N5        1.0  0.17779851011308517  0.6767467305097055  0.17887221143266877  1.0000
  N   N6        1.0  0.32219733855865235  0.8211155380209475  0.32324429042915875  1.0000
  N   N7        1.0  0.8222010654196339  0.3232507650883959  0.8211242631525695  1.0000
  N   N8        1.0  0.6778015394584852  0.17887778197995624  0.676751271139409  1.0000
  N   N9        1.0  0.13409912620733883  0.7311727489037024  0.027950328123573245  1.0000
  N   N10       1.0  0.3659010963166694  0.9720419799119709  0.26882308188712767  1.0000
  N   N11       1.0  0.8659037011588139  0.2688260596138718  0.9720499244091486  1.0000
  N   N12       1.0  0.6340990771447537  0.02795413057587838  0.73117582768613  1.0000
