data_image0
_chemical_formula_structural       Al4H30C38O20F6
_chemical_formula_sum              "Al4 H30 C38 O20 F6"
_cell_length_a       6.952021232473559
_cell_length_b       11.81267603189474
_cell_length_c       17.74237131460263
_cell_angle_alpha    90.00032245137626
_cell_angle_beta     89.99828194405382
_cell_angle_gamma    103.03749822148193

_space_group_name_H-M_alt    "P 1"
_space_group_IT_number       1

loop_
  _space_group_symop_operation_xyz
  'x, y, z'

loop_
  _atom_site_type_symbol
  _atom_site_label
  _atom_site_symmetry_multiplicity
  _atom_site_fract_x
  _atom_site_fract_y
  _atom_site_fract_z
  _atom_site_occupancy
  Al  Al1       1.0  0.12424274268477829  0.49684586407775566  0.5000069496148994  1.0000
  Al  Al2       1.0  0.6278502975017376  0.4984305594679697  0.500006904051972  1.0000
  Al  Al3       1.0  0.7547392439983299  0.003418816039271602  0.9999857814490695  1.0000
  Al  Al4       1.0  0.24844969668418324  0.9979062003057495  0.9999891093976243  1.0000
  H   H1        1.0  0.7907016524267406  0.17229872691760306  0.8027812991250869  1.0000
  H   H2        1.0  0.7906924177516003  0.17230607919055527  0.19722301112400942  1.0000
  H   H3        1.0  0.09913101991329397  0.321256019699554  0.692751277404618  1.0000
  H   H4        1.0  0.0991255942038052  0.3212247231347618  0.3072610924023778  1.0000
  H   H5        1.0  0.6446644137819675  0.2640843309392835  0.6922960729860749  1.0000
  H   H6        1.0  0.6446637830962489  0.2640582828512094  0.3077398104214808  1.0000
  H   H7        1.0  0.13120649264886444  0.6738507019805055  0.683354167469581  1.0000
  H   H8        1.0  0.1312270261142956  0.6738535894261234  0.3166540295883351  1.0000
  H   H9        1.0  0.13437263833229451  0.7748065795443397  0.8082716736097099  1.0000
  H   H10       1.0  0.13438238823167128  0.7748079431679713  0.19173796395473633  1.0000
  H   H11       1.0  0.926230303220514  0.7677804817063533  0.6815133520746315  1.0000
  H   H12       1.0  0.9262413190906856  0.767788511402422  0.3184654882943931  1.0000
  H   H13       1.0  0.6341228991133291  0.49812803218870266  0.9047773746218298  1.0000
  H   H14       1.0  0.6305052757519576  0.45964812422033674  0.808211348673865  1.0000
  H   H15       1.0  0.6814348660658283  0.3622778743281997  0.8774715425786255  1.0000
  H   H16       1.0  0.2828847221425193  0.43467733640903106  0.8613446129427588  1.0000
  H   H17       1.0  0.3361557876674368  0.33630145438140596  0.9286907004926236  1.0000
  H   H18       1.0  0.39817933002481  0.2059450312747728  0.8227181294538114  1.0000
  H   H19       1.0  0.327883087037506  0.3026312401620003  0.757050249085829  1.0000
  H   H20       1.0  0.630591224514845  0.4596051553894042  0.19179374379203304  1.0000
  H   H21       1.0  0.6814902737157381  0.3622056436110198  0.12254257706032941  1.0000
  H   H22       1.0  0.6342538468220269  0.4980681166610665  0.0952187315580062  1.0000
  H   H23       1.0  0.3362248305293818  0.33629509076171626  0.07130868797636941  1.0000
  H   H24       1.0  0.28299834510041677  0.4346916683552066  0.13865598185292777  1.0000
  H   H25       1.0  0.32786170011252125  0.302626329849609  0.24295267819441344  1.0000
  H   H26       1.0  0.39815392587338744  0.20591982797136407  0.17729425733104157  1.0000
  H   H27       1.0  0.3213770119558816  0.3450835836480551  0.49997489831118  1.0000
  H   H28       1.0  0.9360523735526273  0.6541384924787579  0.49997970329726377  1.0000
  H   H29       1.0  0.5547544609966408  0.15415683980052108  0.0001351893376267  1.0000
  H   H30       1.0  0.9369081955235925  0.84550338813343  0.00045441797985290003  1.0000
  C   C1        1.0  0.4253326518394473  0.6267002413847605  0.6051162759236703  1.0000
  C   C2        1.0  0.42533254563483064  0.6266757966110247  0.3948771858218549  1.0000
  C   C3        1.0  0.8244896279816771  0.36700675486834194  0.3957030479197954  1.0000
  C   C4        1.0  0.8244752551977683  0.36704317609365233  0.6043273597926059  1.0000
  C   C5        1.0  0.7965668569221406  0.2974313578426262  0.6739074785211726  1.0000
  C   C6        1.0  0.7965696999658647  0.2973987508083624  0.3261213853534386  1.0000
  C   C7        1.0  0.9527487949991313  0.2814884387238621  0.714746411468731  1.0000
  C   C8        1.0  0.9527398863286008  0.2814645008596414  0.2852716888368718  1.0000
  C   C9        1.0  0.0936509616016394  0.20850638287762285  0.8280008151938106  1.0000
  C   C10       1.0  0.0936541447436525  0.2085220462815016  0.17199436623864983  1.0000
  C   C11       1.0  0.9376352716683273  0.21772155874906932  0.7840800091627714  1.0000
  C   C12       1.0  0.9376232556287363  0.2177248985532216  0.2159254023871497  1.0000
  C   C13       1.0  0.6109017821521833  0.7271399812729628  0.7207820151127535  1.0000
  C   C14       1.0  0.6109128800229584  0.7271291057151433  0.2792074439248394  1.0000
  C   C15       1.0  0.4394871714808062  0.6890342163292473  0.6787996520005067  1.0000
  C   C16       1.0  0.4395069505790587  0.6890259223187342  0.321194127064949  1.0000
  C   C17       1.0  0.26842267446688345  0.7087479505138605  0.7127317218762599  1.0000
  C   C18       1.0  0.2684394402536227  0.7087390066572324  0.28727168201194087  1.0000
  C   C19       1.0  0.26949664933488987  0.765090573015513  0.7821723704626109  1.0000
  C   C20       1.0  0.2695151988460934  0.7650864338864592  0.21782785134477928  1.0000
  C   C21       1.0  0.4431870919987874  0.8082460116841407  0.8222975670840996  1.0000
  C   C22       1.0  0.443194212301968  0.8082271759079231  0.17769376515340699  1.0000
  C   C23       1.0  0.610729881530773  0.7852863022899472  0.7889624299937879  1.0000
  C   C24       1.0  0.6107468677041439  0.7852673022212925  0.2110205176179818  1.0000
  C   C25       1.0  0.8246096881061646  0.7933611096808947  0.8023412494884709  1.0000
  C   C26       1.0  0.8246186327698766  0.7933669044571159  0.19764530360983912  1.0000
  C   C27       1.0  0.8248394279736856  0.7237918900350948  0.725286572853726  1.0000
  C   C28       1.0  0.8248609634026352  0.7237870893950745  0.27469404119747765  1.0000
  C   C29       1.0  0.4543084081229408  0.8719140732767771  0.10454958744706741  1.0000
  C   C30       1.0  0.4543219061373377  0.8719335734112332  0.8954348501700622  1.0000
  C   C31       1.0  0.05486511598883231  0.13388468710017784  0.896800501973715  1.0000
  C   C32       1.0  0.054862240048741684  0.13392328092540137  0.10318054272342181  1.0000
  C   C33       1.0  0.3048609164158336  0.2689119745192983  0.8148455725263162  1.0000
  C   C34       1.0  0.3713667771244431  0.3695374756640105  0.8711346961546127  1.0000
  C   C35       1.0  0.591108534002622  0.42543759907471923  0.8650600800498083  1.0000
  C   C36       1.0  0.30484891607936504  0.2688982963035542  0.18515973176591416  1.0000
  C   C37       1.0  0.3714313384600628  0.36952952857617294  0.12886412874664194  1.0000
  C   C38       1.0  0.5911861234067287  0.4253883150469732  0.13494459555013089  1.0000
  O   O1        1.0  0.583273235880405  0.6048756827742422  0.4216198755327697  1.0000
  O   O2        1.0  0.583262107829924  0.6049029980546123  0.5783666798733336  1.0000
  O   O3        1.0  0.2537505902429018  0.6018921529179051  0.5759253570064118  1.0000
  O   O4        1.0  0.2537572078330895  0.6018717690861664  0.424065723618142  1.0000
  O   O5        1.0  0.9990265279640482  0.3951436221792335  0.5768132978924428  1.0000
  O   O6        1.0  0.9990364385895419  0.39510853060251355  0.4232092527195519  1.0000
  O   O7        1.0  0.35063442330310574  0.42924846718590004  0.5000072396935948  1.0000
  O   O8        1.0  0.6698747916463432  0.3936207345340108  0.4230404527690085  1.0000
  O   O9        1.0  0.6698678956081991  0.39366018691713833  0.5769939438582128  1.0000
  O   O10       1.0  0.9035722949531007  0.5700332759517934  0.4999930734854559  1.0000
  O   O11       1.0  0.29645744969617027  0.8932776294377333  0.9220469201971184  1.0000
  O   O12       1.0  0.29644470008447843  0.8932663081551484  0.07794949189997172  1.0000
  O   O13       1.0  0.6270591120151539  0.8992368048737944  0.0765046239068141  1.0000
  O   O14       1.0  0.6270744176928957  0.8992750217019392  0.9234658182304614  1.0000
  O   O15       1.0  0.8792917678701642  0.10753674738861459  0.07702708609564721  1.0000
  O   O16       1.0  0.8792990063757387  0.10748828128010499  0.9229568511726427  1.0000
  O   O17       1.0  0.5266890764371794  0.06999646066118712  0.9999996096355376  1.0000
  O   O18       1.0  0.2053213756064807  0.1031681179029178  0.9240680401380174  1.0000
  O   O19       1.0  0.2053392230332634  0.10323064935339939  0.07590689308906211  1.0000
  O   O20       1.0  0.973353455681959  0.9296700495340174  6.423571456100007e-06  1.0000
  F   F1        1.0  0.8699343966928269  0.7369781068868021  0.8655511432631043  1.0000
  F   F2        1.0  0.8699667058455985  0.7369872863578804  0.13442452090442458  1.0000
  F   F3        1.0  0.9441383026682927  0.9037156032949838  0.8020733011022116  1.0000
  F   F4        1.0  0.9441426299119656  0.903720494663595  0.19791166945217503  1.0000
  F   F5        1.0  0.8533243271569474  0.6111159271564546  0.7353943915541095  1.0000
  F   F6        1.0  0.8533615765414098  0.6111171471695085  0.26459373785551327  1.0000
