data_image0
_chemical_formula_structural       Gd2H18C18N2O22
_chemical_formula_sum              "Gd2 H18 C18 N2 O22"
_cell_length_a       7.449202078948905
_cell_length_b       9.24777027460755
_cell_length_c       11.536601325276564
_cell_angle_alpha    72.27883214887714
_cell_angle_beta     69.65347584612724
_cell_angle_gamma    80.96527013525116

_space_group_name_H-M_alt    "P 1"
_space_group_IT_number       1

loop_
  _space_group_symop_operation_xyz
  'x, y, z'

loop_
  _atom_site_type_symbol
  _atom_site_label
  _atom_site_symmetry_multiplicity
  _atom_site_fract_x
  _atom_site_fract_y
  _atom_site_fract_z
  _atom_site_occupancy
  Gd  Gd1       1.0  0.6104533947945326  0.5522061319881503  0.7218094673266721  1.0000
  Gd  Gd2       1.0  0.3895434745545288  0.4477936575567015  0.2781966119034109  1.0000
  H   H1        1.0  0.7266455459409684  0.006330030554650506  0.7819690096744125  1.0000
  H   H2        1.0  0.27336025398205527  0.9936689031047617  0.21802668963055546  1.0000
  H   H3        1.0  0.684715240507316  0.14834833057121694  0.11300644110030335  1.0000
  H   H4        1.0  0.31528766230326977  0.8516517397426001  0.8869870113954336  1.0000
  H   H5        1.0  0.8721521752814567  0.6845063788723209  0.10146452944538711  1.0000
  H   H6        1.0  0.12785063064771413  0.3154936323790806  0.8985324256044508  1.0000
  H   H7        1.0  0.9849027520284607  0.5564601964088566  0.7277093782412295  1.0000
  H   H8        1.0  0.01510020218970709  0.4435374970144253  0.272290686945027  1.0000
  H   H9        1.0  0.05387427033792138  0.5084351716956448  0.5952922451585537  1.0000
  H   H10       1.0  0.9461199334754866  0.4915646915659763  0.4047074506800783  1.0000
  H   H11       1.0  0.1840602042911357  0.608827708430965  0.8724712912766109  1.0000
  H   H12       1.0  0.8159394245081018  0.3911744728812678  0.12752930482324126  1.0000
  H   H13       1.0  0.3179788157298588  0.6136657334069396  0.9565375619530486  1.0000
  H   H14       1.0  0.6820134332464178  0.3863373998227857  0.04346872502090795  1.0000
  H   H15       1.0  0.6306828388160993  0.8517398552696706  0.49665627067627593  1.0000
  H   H16       1.0  0.3693188688889181  0.14825672348073474  0.5033417200632044  1.0000
  H   H17       1.0  0.5140489566009665  0.8893990344283794  0.6295232334088824  1.0000
  H   H18       1.0  0.4859452820595393  0.11060205419251191  0.3704709669881795  1.0000
  C   C1        1.0  0.8020021232722172  0.8315336552497998  0.9340512596151598  1.0000
  C   C2        1.0  0.1980033210053733  0.1684686739409713  0.06594459049707521  1.0000
  C   C3        1.0  0.7452210484545744  0.9798435952817215  0.8759467129340595  1.0000
  C   C4        1.0  0.25478607064265896  0.0201564973473793  0.12404843390211083  1.0000
  C   C5        1.0  0.7116452519171688  0.09598883703884552  0.9364634500714857  1.0000
  C   C6        1.0  0.2883632483885918  0.9040112482630677  0.06353313718335588  1.0000
  C   C7        1.0  0.7201026127383088  0.06176399684027701  0.061176094738769365  1.0000
  C   C8        1.0  0.27990312515039045  0.9382361031159974  0.9388176116787293  1.0000
  C   C9        1.0  0.7767758549985045  0.9137440753807837  0.11700469974967827  1.0000
  C   C10       1.0  0.22322840480025255  0.08625597284024879  0.8829910688032501  1.0000
  C   C11       1.0  0.8261930752274368  0.798348305501598  0.05437440725328455  1.0000
  C   C12       1.0  0.1738110740962995  0.2016528794850956  0.9456211196892214  1.0000
  C   C13       1.0  0.8240424784563984  0.7092762731657557  0.8676606219639142  1.0000
  C   C14       1.0  0.175960254811713  0.29072369378883417  0.13233896000149775  1.0000
  C   C15       1.0  0.6620721288703918  0.2541626791728788  0.8674674623091152  1.0000
  C   C16       1.0  0.3379350280408032  0.7458362323937493  0.13253055305305142  1.0000
  C   C17       1.0  0.6061407838156256  0.5026808425029543  0.4572452908854956  1.0000
  C   C18       1.0  0.39385263135288534  0.49731974408742025  0.5427786812214421  1.0000
  N   N1        1.0  0.785773382440844  0.8763291094918557  0.2471261229359882  1.0000
  N   N2        1.0  0.2142252692360032  0.1236697131474074  0.7528711306608784  1.0000
  O   O1        1.0  0.6896350371340603  0.710762511845161  0.822924426671463  1.0000
  O   O2        1.0  0.3103647263605609  0.2892385474670292  0.1770755354002915  1.0000
  O   O3        1.0  0.9692064096719265  0.6159674157458994  0.8595163848328085  1.0000
  O   O4        1.0  0.030793757908831782  0.3840302775661327  0.140481675154625  1.0000
  O   O5        1.0  0.6251012215631276  0.2771941257413104  0.763444221975334  1.0000
  O   O6        1.0  0.3749024025727081  0.7228103514175146  0.23655758524412113  1.0000
  O   O7        1.0  0.6594108328977554  0.36593773928247936  0.9123117814472509  1.0000
  O   O8        1.0  0.340587918627385  0.6340587359974492  0.08769033356308847  1.0000
  O   O9        1.0  0.6729570316509026  0.9492762318229425  0.32268191517335504  1.0000
  O   O10       1.0  0.3270456638032471  0.050724916194113207  0.6773147982660603  1.0000
  O   O11       1.0  0.9017763807812854  0.7751196907052033  0.27859790480259516  1.0000
  O   O12       1.0  0.09821842384796038  0.224874518259341  0.7214012478110945  1.0000
  O   O13       1.0  0.7250086703432925  0.5244819435113329  0.506474669807119  1.0000
  O   O14       1.0  0.2749793032788972  0.47551992727822795  0.4935362939065016  1.0000
  O   O15       1.0  0.6455339798978557  0.48562379882015694  0.3467282235033977  1.0000
  O   O16       1.0  0.354457540093307  0.5143713105491302  0.6532826925174646  1.0000
  O   O17       1.0  0.940383433586085  0.5419860736518772  0.6600171534703705  1.0000
  O   O18       1.0  0.05961388828981741  0.4580103794240244  0.33998527239834436  1.0000
  O   O19       1.0  0.31947790782491836  0.6016153385081113  0.8729436184363167  1.0000
  O   O20       1.0  0.6805182124193151  0.3983924231619298  0.1270598938822971  1.0000
  O   O21       1.0  0.5770268716835147  0.8073332781652456  0.5899767122340763  1.0000
  O   O22       1.0  0.4229717557729842  0.19266552970840686  0.4100214170013174  1.0000
