data_image0
_chemical_formula_structural       Sm2H20C16S2O20
_chemical_formula_sum              "Sm2 H20 C16 S2 O20"
_cell_length_a       5.892155028733902
_cell_length_b       7.806712078700383
_cell_length_c       14.967148502412332
_cell_angle_alpha    73.17744728229147
_cell_angle_beta     84.35476494619157
_cell_angle_gamma    74.02675344086214

_space_group_name_H-M_alt    "P 1"
_space_group_IT_number       1

loop_
  _space_group_symop_operation_xyz
  'x, y, z'

loop_
  _atom_site_type_symbol
  _atom_site_label
  _atom_site_symmetry_multiplicity
  _atom_site_fract_x
  _atom_site_fract_y
  _atom_site_fract_z
  _atom_site_occupancy
  Sm  Sm1       1.0  0.3290201565781671  0.03888006296591582  0.8181846531107269  1.0000
  Sm  Sm2       1.0  0.6709720927433267  0.9611181906883389  0.18181761816123299  1.0000
  H   H1        1.0  0.2651617062762028  0.07174130291452492  0.5946898646516274  1.0000
  H   H2        1.0  0.734846749714457  0.9282596047913786  0.4053120459963182  1.0000
  H   H3        1.0  0.35058813806802647  0.22024047384753231  0.427610575191217  1.0000
  H   H4        1.0  0.6494275910217268  0.779759017942901  0.5723905892126098  1.0000
  H   H5        1.0  0.604326532796378  0.45820266846221364  0.38190593646883286  1.0000
  H   H6        1.0  0.39569265573355483  0.5417913174576158  0.6180932292240938  1.0000
  H   H7        1.0  0.5219168680914167  0.29832229259586274  0.5473259173447075  1.0000
  H   H8        1.0  0.4780815820541021  0.7016884591756634  0.45266892549008736  1.0000
  H   H9        1.0  0.7136894322944939  0.7870169296051233  0.957644903878183  1.0000
  H   H10       1.0  0.28630035638092727  0.2129730431593302  0.0423586827685014  1.0000
  H   H11       1.0  0.7669766401659784  0.7316217371286131  0.8629409951076639  1.0000
  H   H12       1.0  0.23302154260193933  0.2683792684044164  0.1370593012658148  1.0000
  H   H13       1.0  0.47065595367099883  0.3005389806732382  0.9007161688739274  1.0000
  H   H14       1.0  0.5293482910971574  0.6994591414940532  0.09928899010860452  1.0000
  H   H15       1.0  0.6500165590627984  0.2990529933879672  0.8168002811665928  1.0000
  H   H16       1.0  0.34997612790279925  0.7009438864284905  0.18320150686540868  1.0000
  H   H17       1.0  0.2236758372129514  0.7383178035347273  0.7617921635712932  1.0000
  H   H18       1.0  0.77631595442417  0.26168185866795574  0.2382085821599347  1.0000
  H   H19       1.0  0.5028116293357741  0.6776962607272311  0.7478594246713114  1.0000
  H   H20       1.0  0.49717541160126894  0.3223075787383112  0.25214089350119195  1.0000
  C   C1        1.0  0.8281219269259095  0.10286570887253532  0.6823128075840756  1.0000
  C   C2        1.0  0.17187785619219645  0.8971408866749615  0.3176825943115206  1.0000
  C   C3        1.0  0.8874269745957759  0.1795972476262122  0.5813349842237159  1.0000
  C   C4        1.0  0.11258361454256516  0.8204022988628951  0.4186650382460897  1.0000
  C   C5        1.0  0.12127812654098585  0.15627898753173508  0.5477565127010067  1.0000
  C   C6        1.0  0.8787303778424513  0.8437164237721793  0.45224420033167684  1.0000
  C   C7        1.0  0.16947208974803368  0.23967695358137325  0.45457391963499555  1.0000
  C   C8        1.0  0.8305389437145008  0.7603212074997289  0.5454262891884127  1.0000
  C   C9        1.0  0.9824845766429817  0.35107379199736516  0.3963152186064817  1.0000
  C   C10       1.0  0.01752943853509945  0.6489203064721921  0.6036794571845903  1.0000
  C   C11       1.0  0.7482040241954165  0.371849188075025  0.4283276407400436  1.0000
  C   C12       1.0  0.251809874156855  0.628155937909142  0.571667421500848  1.0000
  C   C13       1.0  0.7023934039299036  0.2836079053419382  0.5204666614501293  1.0000
  C   C14       1.0  0.2976205345028971  0.7163971512209601  0.47953241835216426  1.0000
  C   C15       1.0  0.9876145893388824  0.9082246954960882  0.994211460603026  1.0000
  C   C16       1.0  0.012355989279406303  0.09177213594941239  0.0058018956895438  1.0000
  S   S1        1.0  0.03276240746426138  0.4678016504408192  0.2783448054798754  1.0000
  S   S2        1.0  0.9672369864025043  0.5322008225424854  0.7216498820404311  1.0000
  O   O1        1.0  0.6203501079403109  0.08104329083154484  0.7013827516215443  1.0000
  O   O2        1.0  0.3796471043860023  0.9189660397705455  0.29861502169215726  1.0000
  O   O3        1.0  0.9816391105524287  0.06929506455364283  0.742831813324699  1.0000
  O   O4        1.0  0.018351313079513414  0.9307142271346365  0.2571709101481261  1.0000
  O   O5        1.0  0.834073216923798  0.633998114418759  0.2569552751038202  1.0000
  O   O6        1.0  0.16593093269097636  0.3660055851419913  0.7430463943390037  1.0000
  O   O7        1.0  0.029059348846267593  0.34134715840273344  0.2222581605515401  1.0000
  O   O8        1.0  0.9709275768971324  0.6586622931669128  0.777736659300558  1.0000
  O   O9        1.0  0.26510185590836954  0.5084980481470325  0.2721384811468255  1.0000
  O   O10       1.0  0.7348963351717969  0.49149753040527605  0.7278566000499893  1.0000
  O   O11       1.0  0.11283676327157362  0.8433348549239102  0.9329438589735801  1.0000
  O   O12       1.0  0.8871636844621733  0.1566483233267917  0.06704961718884309  1.0000
  O   O13       1.0  0.8342455193531749  0.837825964080935  0.048057179140947405  1.0000
  O   O14       1.0  0.16575147398830842  0.16216812388067578  0.9519448500961758  1.0000
  O   O15       1.0  0.6368954453903015  0.782348036833085  0.9028292498221973  1.0000
  O   O16       1.0  0.36309633956673787  0.21765163693981296  0.0971708263154625  1.0000
  O   O17       1.0  0.5738661380251884  0.21840924892860872  0.8668877751229899  1.0000
  O   O18       1.0  0.42612952902379664  0.7815889836868166  0.13311436464690027  1.0000
  O   O19       1.0  0.36774368745631136  0.7846336364338528  0.749566015955935  1.0000
  O   O20       1.0  0.6322520063130244  0.21536454990072676  0.2504388021882206  1.0000
