data_image0
_chemical_formula_structural       Zn8H40C88N32Cl24O40
_chemical_formula_sum              "Zn8 H40 C88 N32 Cl24 O40"
_cell_length_a       15.438946589648653
_cell_length_b       19.40076489768212
_cell_length_c       17.829009736896122
_cell_angle_alpha    88.9295239329837
_cell_angle_beta     87.89036280261642
_cell_angle_gamma    87.67571111081936

_space_group_name_H-M_alt    "P 1"
_space_group_IT_number       1

loop_
  _space_group_symop_operation_xyz
  'x, y, z'

loop_
  _atom_site_type_symbol
  _atom_site_label
  _atom_site_symmetry_multiplicity
  _atom_site_fract_x
  _atom_site_fract_y
  _atom_site_fract_z
  _atom_site_occupancy
  Zn  Zn1       1.0  0.9740916711236591  0.9370035391198782  0.4129422670037143  1.0000
  Zn  Zn2       1.0  0.934526137319743  0.016406254052874693  0.6426503298009718  1.0000
  Zn  Zn3       1.0  0.5093780325435731  0.5720830865522045  0.9244714574167782  1.0000
  Zn  Zn4       1.0  0.5744277352259176  0.4577511472753811  0.13629151757949384  1.0000
  Zn  Zn5       1.0  0.8180667364570554  0.02653052519396939  0.4994704895657945  1.0000
  Zn  Zn6       1.0  0.10044647866019568  0.04674941841962269  0.5219316995323737  1.0000
  Zn  Zn7       1.0  0.4056726181102093  0.4557460258392608  0.024099259076280095  1.0000
  Zn  Zn8       1.0  0.6966105552697356  0.49391977546737564  0.9808663404573391  1.0000
  H   H1        1.0  0.7385320376412564  0.1787758978018772  0.5086567377211251  1.0000
  H   H2        1.0  0.5848952876223378  0.9562797798506537  0.38391299666350415  1.0000
  H   H3        1.0  0.8242254895131894  0.2248107271018256  0.4026822173240843  1.0000
  H   H4        1.0  0.2321476554995741  0.9342049836260672  0.49951635320344656  1.0000
  H   H5        1.0  0.7403195854007688  0.7037123709191705  0.039678199833119286  1.0000
  H   H6        1.0  0.0733530311277519  0.4492427465285899  0.0844634005953679  1.0000
  H   H7        1.0  0.1400611590606147  0.5880914994515295  0.8686410228789254  1.0000
  H   H8        1.0  0.7913994240290734  0.356651427043424  0.9038354389340524  1.0000
  H   H9        1.0  0.1506509799973017  0.1090761637080746  0.2479105867771166  1.0000
  H   H10       1.0  0.9920392845496266  0.7537521695072371  0.6163391632097869  1.0000
  H   H11       1.0  0.5856476892582165  0.1048962319392714  0.7281340701521513  1.0000
  H   H12       1.0  0.20491564412181867  0.755509090945793  0.50291988606903  1.0000
  H   H13       1.0  0.3401188865172173  0.8693477159430143  0.30449108632002714  1.0000
  H   H14       1.0  0.6106662124403356  0.6569816476187568  0.719880837620252  1.0000
  H   H15       1.0  0.5369789583832444  0.23350274650329078  0.2328664694542653  1.0000
  H   H16       1.0  0.24608983572765908  0.5733863186392938  0.15350877335811924  1.0000
  H   H17       1.0  0.7993711572820529  0.3627597345553397  0.7756288123543698  1.0000
  H   H18       1.0  0.6308537895847479  0.7631394253889566  0.5946134135136488  1.0000
  H   H19       1.0  0.5094894160011948  0.09430317107745617  0.3228591973547949  1.0000
  H   H20       1.0  0.109230386369795  0.6476539775070053  0.25435360244335203  1.0000
  H   H21       1.0  0.8407098077401541  0.22806234059417108  0.6974136616541313  1.0000
  H   H22       1.0  0.1769613675955455  0.25035452338941877  0.18588402196221662  1.0000
  H   H23       1.0  0.4025740214323291  0.9884368360695037  0.32743369342465195  1.0000
  H   H24       1.0  0.9729089911324208  0.6628441214494174  0.7612018634663966  1.0000
  H   H25       1.0  0.4676929955328433  0.19423220327904286  0.8355602966513443  1.0000
  H   H26       1.0  0.46939817421132796  0.7931441118247308  0.20503895091037086  1.0000
  H   H27       1.0  0.7428149353883099  0.7120755877110481  0.35338997828481666  1.0000
  H   H28       1.0  0.9873547390093124  0.3346117999444828  0.8063014842656029  1.0000
  H   H29       1.0  0.12876747917255926  0.6972805954061415  0.5859556466555628  1.0000
  H   H30       1.0  0.8091230473762606  0.0794761771773977  0.15377435172529624  1.0000
  H   H31       1.0  0.23507442235735718  0.2492253219931229  0.8277950750202335  1.0000
  H   H32       1.0  0.5389475863759967  0.7031857363193196  0.24247006581637004  1.0000
  H   H33       1.0  0.6883881506190621  0.16891407007567238  0.18019993726016986  1.0000
  H   H34       1.0  0.069214387615645  0.8224872046038314  0.48158395381688013  1.0000
  H   H35       1.0  0.32384744623344364  0.6804850253908441  0.6054716392318793  1.0000
  H   H36       1.0  0.32349501216253873  0.6057808423861387  0.9718408574109461  1.0000
  H   H37       1.0  0.5005630713820038  0.26790887559548804  0.9464187767342478  1.0000
  H   H38       1.0  0.8721205705722211  0.569801208865897  0.8075568914248874  1.0000
  H   H39       1.0  0.32332165156564946  0.33999858780504155  0.0343094942563624  1.0000
  H   H40       1.0  0.21012359177920098  0.22514118017434737  0.5832447073092552  1.0000
  C   C1        1.0  0.9692074462361119  0.07485258554694241  0.3305788891430338  1.0000
  C   C2        1.0  0.6763201360313855  0.8549721650552867  0.28750626440161386  1.0000
  C   C3        1.0  0.8844092459067666  0.17940617593737326  0.26898474150774376  1.0000
  C   C4        1.0  0.18994290481059292  0.8119969373569661  0.6866334395007596  1.0000
  C   C5        1.0  0.704326252944213  0.7049357723266211  0.1897694532859902  1.0000
  C   C6        1.0  0.120027033496882  0.37632475967814116  0.8730297976046512  1.0000
  C   C7        1.0  0.22437520221289733  0.663429525257385  0.758729118486677  1.0000
  C   C8        1.0  0.8308225441021831  0.2566896648195893  0.10897707426396858  1.0000
  C   C9        1.0  0.09267242912748232  0.2870572770688327  0.7735286568444832  1.0000
  C   C10       1.0  0.6877524726587011  0.7859179578866956  0.2971506870968668  1.0000
  C   C11       1.0  0.848364413978082  0.1575031868202359  0.20517695214443415  1.0000
  C   C12       1.0  0.06430652603906852  0.9028049694132817  0.6878327591581835  1.0000
  C   C13       1.0  0.19408519662658116  0.7483185530521295  0.6563236384708943  1.0000
  C   C14       1.0  0.6573818070512017  0.7306051307213365  0.2498685509886514  1.0000
  C   C15       1.0  0.13851735326880288  0.31587110284739583  0.836188852979191  1.0000
  C   C16       1.0  0.23754548090249017  0.6869425325450466  0.6870986414263169  1.0000
  C   C17       1.0  0.8034840627349807  0.2005226238575233  0.14891998089372993  1.0000
  C   C18       1.0  0.7359390452867769  0.13915152495832223  0.6072135376294551  1.0000
  C   C19       1.0  0.18002375971806828  0.7992307055563259  0.40803434652641357  1.0000
  C   C20       1.0  0.2896508765686434  0.002792615193570198  0.3708650665669494  1.0000
  C   C21       1.0  0.9386480795235529  0.8401703675502783  0.5449090861471148  1.0000
  C   C22       1.0  0.3846520846810151  0.6090484720456504  0.06206583707362507  1.0000
  C   C23       1.0  0.016453598876189808  0.1516063944552926  0.6947436092879895  1.0000
  C   C24       1.0  0.5321093916358848  0.360779572706015  0.9390619495106163  1.0000
  C   C25       1.0  0.7554645781158695  0.5773547026657155  0.8432243513543864  1.0000
  C   C26       1.0  0.39036015050660205  0.3321165670869703  0.12197471948309864  1.0000
  C   C27       1.0  0.7750382349125288  0.08850877561057052  0.7133388055749135  1.0000
  C   C28       1.0  0.12033203600127959  0.8573116915405951  0.3148533325659599  1.0000
  C   C29       1.0  0.19402972843061414  0.08868125610362648  0.38610519908759494  1.0000
  C   C30       1.0  0.8235767063146114  0.8979959813563527  0.5936093016916786  1.0000
  C   C31       1.0  0.45738572783394454  0.5767974922691222  0.16081494305578292  1.0000
  C   C32       1.0  0.5749353398481745  0.4353441743224452  0.8519846065216468  1.0000
  C   C33       1.0  0.6505055948009613  0.6575001152177793  0.8505149367655489  1.0000
  C   C34       1.0  0.8192708615632255  0.8955010534166091  0.3290037948013307  1.0000
  C   C35       1.0  0.46087959721416644  0.3509481556217011  0.22416496500273542  1.0000
  C   C36       1.0  0.1080619247020351  0.17525383405041592  0.6016736777422479  1.0000
  C   C37       1.0  0.7084927137315447  0.9544036757671462  0.3799577791808629  1.0000
  C   C38       1.0  0.8831788508910706  0.1366231728917526  0.4049865554598141  1.0000
  C   C39       1.0  0.1613605425621998  0.912997660177382  0.5936690754980203  1.0000
  C   C40       1.0  0.7012989484854656  0.6196947886469459  0.08098605223681687  1.0000
  C   C41       1.0  0.15031534777691044  0.4272832836934485  0.003174602242353298  1.0000
  C   C42       1.0  0.2626989271228409  0.5790151990776097  0.8652781410377056  1.0000
  C   C43       1.0  0.7691178948964603  0.3487892845917955  0.011082617345529407  1.0000
  C   C44       1.0  0.913685000008826  0.1341874433276686  0.3297084059031903  1.0000
  C   C45       1.0  0.37426242874024496  0.6260575524784356  0.8062289814612311  1.0000
  C   C46       1.0  0.14015087553391234  0.8708983823377919  0.6568489720458003  1.0000
  C   C47       1.0  0.08492317021180178  0.195626996941634  0.6755302326192875  1.0000
  C   C48       1.0  0.7281221126883749  0.9016851784811519  0.32781135913629805  1.0000
  C   C49       1.0  0.2831122748425727  0.621605093491212  0.8023110092864268  1.0000
  C   C50       1.0  0.7708161548954208  0.30871564061644813  0.07831165686659597  1.0000
  C   C51       1.0  0.6954809427395575  0.6379158761762653  0.15747179235361836  1.0000
  C   C52       1.0  0.1732377067014781  0.4017705531423913  0.930423052400904  1.0000
  C   C53       1.0  0.7249472043646817  0.14525751194127415  0.686005843046068  1.0000
  C   C54       1.0  0.18912459343059848  0.8100069737814765  0.3302668102376457  1.0000
  C   C55       1.0  0.26590446659651684  0.06857840721871611  0.33983884191485453  1.0000
  C   C56       1.0  0.6998991485241817  0.3378887114761611  0.12050427962401496  1.0000
  C   C57       1.0  0.8607986826879639  0.8319451357368236  0.5904157351670845  1.0000
  C   C58       1.0  0.390129150109196  0.6224633848930308  0.13833087906154864  1.0000
  C   C59       1.0  0.5749196866142867  0.3641562993820813  0.8679310768296132  1.0000
  C   C60       1.0  0.7281204949991535  0.6406012451181199  0.808871500573154  1.0000
  C   C61       1.0  0.4110440727275985  0.3009686877260762  0.19182505642299214  1.0000
  C   C62       1.0  0.25779699033139986  0.15989518514737713  0.24121000862000835  1.0000
  C   C63       1.0  0.8885982557854888  0.7294132775175939  0.6747420933255766  1.0000
  C   C64       1.0  0.6036433881018581  0.19457055558819292  0.7677857941784009  1.0000
  C   C65       1.0  0.3275665120723659  0.7793438963972932  0.25478840968846567  1.0000
  C   C66       1.0  0.7122516708767604  0.7077209854933885  0.6894817702176893  1.0000
  C   C67       1.0  0.6849085651832211  0.5735675820771675  0.19406769912572486  1.0000
  C   C68       1.0  0.4326218151888171  0.18392245297591353  0.2527593000955334  1.0000
  C   C69       1.0  0.25262810336949576  0.659631212411881  0.20676348689903523  1.0000
  C   C70       1.0  0.6966798322843885  0.31154117745766285  0.7913459225958376  1.0000
  C   C71       1.0  0.7433989564079865  0.7534541651021768  0.6342298609318602  1.0000
  C   C72       1.0  0.3981505316596524  0.1249517376511591  0.285808392664748  1.0000
  C   C73       1.0  0.2050530034644495  0.7059533818810876  0.25313757381229607  1.0000
  C   C74       1.0  0.731342967594969  0.26018681483604655  0.7441134346117619  1.0000
  C   C75       1.0  0.2900220666034273  0.22248884612402256  0.21470837719844124  1.0000
  C   C76       1.0  0.8562621460978478  0.685536289325668  0.731529618707931  1.0000
  C   C77       1.0  0.5682623292787099  0.24695128163571667  0.8134063713703197  1.0000
  C   C78       1.0  0.263802308561047  0.4069143258178868  0.9278186479184994  1.0000
  C   C79       1.0  0.37486028677538735  0.7323784033299744  0.20891139393244623  1.0000
  C   C80       1.0  0.831209990355056  0.7704975308488003  0.631094705642134  1.0000
  C   C81       1.0  0.30854536516528697  0.11417262790725854  0.28515021620403747  1.0000
  C   C82       1.0  0.24177135305708217  0.7663983077032198  0.2778429595651487  1.0000
  C   C83       1.0  0.6846373873843775  0.2012252069547671  0.7310022066408164  1.0000
  C   C84       1.0  0.378131264955165  0.23603132874666946  0.22107715784994741  1.0000
  C   C85       1.0  0.7664954501970199  0.6780365954782609  0.7444192376304455  1.0000
  C   C86       1.0  0.6127280519298212  0.30759703947548905  0.8237548844941143  1.0000
  C   C87       1.0  0.33869172088535743  0.6720604002542244  0.18447011706503247  1.0000
  C   C88       1.0  0.1293603965219532  0.24186076993714076  0.7222596314917664  1.0000
  N   N1        1.0  0.9700607297528377  0.0438754691477072  0.39878353689100254  1.0000
  N   N2        1.0  0.11266407429872768  0.8390195311453752  0.43550556691030795  1.0000
  N   N3        1.0  0.2365520839787365  0.9847931183250652  0.4282328334959826  1.0000
  N   N4        1.0  0.9432520799582064  0.9071387542287961  0.5203490625991662  1.0000
  N   N5        1.0  0.44768369276260245  0.5592611525362869  0.038913042633552684  1.0000
  N   N6        1.0  0.5118430874336966  0.42452172253890563  0.9642057114255348  1.0000
  N   N7        1.0  0.6964183361640722  0.5574013600054852  0.8957490379804866  1.0000
  N   N8        1.0  0.4246878711597546  0.39437084637294356  0.11480880709132177  1.0000
  N   N9        1.0  0.8141460197966666  0.05306303427711612  0.6571666331587946  1.0000
  N   N10       1.0  0.07339149237529341  0.8752179233975922  0.37733866882178535  1.0000
  N   N11       1.0  0.1765755145158678  0.03858830335012439  0.4370127796757116  1.0000
  N   N12       1.0  0.04112890960192322  0.9593744970006527  0.648041004679463  1.0000
  N   N13       1.0  0.8732820275588226  0.9452496783847336  0.5548247437750716  1.0000
  N   N14       1.0  0.49454188807741417  0.5408508871992483  0.10429663369630755  1.0000
  N   N15       1.0  0.5403993141630891  0.47128656810235736  0.910460418301447  1.0000
  N   N16       1.0  0.6290030569852052  0.6067829184848605  0.8996668234961898  1.0000
  N   N17       1.0  0.47144742671966355  0.40627993895726183  0.17810719195126265  1.0000
  N   N18       1.0  0.0569073534015629  0.1251934922078561  0.5794114515461998  1.0000
  N   N19       1.0  0.7813080804284596  0.9769410962124426  0.40901947391486704  1.0000
  N   N20       1.0  0.9141793738860287  0.08285489050732761  0.44622310501613055  1.0000
  N   N21       1.0  0.1014163500774075  0.9659975846796982  0.5888688452908466  1.0000
  N   N22       1.0  0.6896199494894688  0.5517155986139386  0.07330594011979487  1.0000
  N   N23       1.0  0.9983356977146157  0.1107078122974627  0.6379017667299108  1.0000
  N   N24       1.0  0.21875519766281568  0.444445297301627  0.040872706147041485  1.0000
  N   N25       1.0  0.3335428479095484  0.5603671580076224  0.9029258989684333  1.0000
  N   N26       1.0  0.7034784532055909  0.39777641741827097  0.015526532721686703  1.0000
  N   N27       1.0  0.8508227171601134  0.9391204223594232  0.3766682546613607  1.0000
  N   N28       1.0  0.40369045078617916  0.5902427472612501  0.8656931017275367  1.0000
  N   N29       1.0  0.6589630294197022  0.38925376490949753  0.08396484833602359  1.0000
  N   N30       1.0  0.6780571639858053  0.5225852076575208  0.14510026946537377  1.0000
  N   N31       1.0  0.29055981614383347  0.4310910346071849  0.9933814410307632  1.0000
  N   N32       1.0  0.7873638087618176  0.08345628612728721  0.5902926328281664  1.0000
  Cl  Cl1       1.0  0.0290046913994217  0.04121136127855609  0.2574962225122234  1.0000
  Cl  Cl2       1.0  0.0968499981055331  0.8855860150700036  0.22696752810492168  1.0000
  Cl  Cl3       1.0  0.135448723879982  0.164925875752516  0.3889858801824387  1.0000
  Cl  Cl4       1.0  0.728101056804256  0.9219690992621211  0.6385843772015746  1.0000
  Cl  Cl5       1.0  0.48365965619265683  0.5613860272238468  0.251455765765776  1.0000
  Cl  Cl6       1.0  0.6039393494739399  0.47611566007625333  0.7700006020149173  1.0000
  Cl  Cl7       1.0  0.5928181013447186  0.7341411097740576  0.8525569072353105  1.0000
  Cl  Cl8       1.0  0.4970546419494397  0.35102980234088216  0.3137744292729748  1.0000
  Cl  Cl9       1.0  0.6078350953589364  0.8879483209556297  0.2181143010981471  1.0000
  Cl  Cl10      1.0  0.2440097074225562  0.23552697719561874  0.7100457287657277  1.0000
  Cl  Cl11      1.0  0.24697224720149077  0.8283011498337982  0.7662680953758139  1.0000
  Cl  Cl12      1.0  0.003930956119404487  0.8795609251100702  0.7651764036302139  1.0000
  Cl  Cl13      1.0  0.8835199996906057  0.2673026216933109  0.2888831731838906  1.0000
  Cl  Cl14      1.0  0.0267926918506518  0.42780703537595605  0.85374602206722  1.0000
  Cl  Cl15      1.0  0.7849709230903698  0.7549427431338883  0.14603389030541788  1.0000
  Cl  Cl16      1.0  0.9399728801632107  0.27416719918527827  0.10243018559528849  1.0000
  Cl  Cl17      1.0  0.129168080965357  0.6923212224440718  0.8084524455877042  1.0000
  Cl  Cl18      1.0  0.9641363292669068  0.1442119972170559  0.7798307398641098  1.0000
  Cl  Cl19      1.0  0.8879525118690167  0.8414643446899533  0.2795663350024711  1.0000
  Cl  Cl20      1.0  0.44108520849682975  0.6713040457373437  0.7477558777146809  1.0000
  Cl  Cl21      1.0  0.6699049763162108  0.31855916471668877  0.21102246419127366  1.0000
  Cl  Cl22      1.0  0.6900727832271727  0.5553063856385875  0.2875397485846278  1.0000
  Cl  Cl23      1.0  0.33537445360133233  0.3904180768969496  0.8547528065481981  1.0000
  Cl  Cl24      1.0  0.7840095593384434  0.0618286885992276  0.8041720324976253  1.0000
  O   O1        1.0  0.7008989625672866  0.18090916833594406  0.5547799282951047  1.0000
  O   O2        1.0  0.6308845302835236  0.9835126411284276  0.40279157160831847  1.0000
  O   O3        1.0  0.8260688365621077  0.18416467557343447  0.4366296930361953  1.0000
  O   O4        1.0  0.23018540179914027  0.9033892704834939  0.5482741092926984  1.0000
  O   O5        1.0  0.719712867362027  0.6601148521125141  0.021017164633789796  1.0000
  O   O6        1.0  0.06846581098915999  0.4327319488553131  0.033411116511104  1.0000
  O   O7        1.0  0.1850349822312864  0.5586830194568436  0.8920363102674568  1.0000
  O   O8        1.0  0.8216085887641428  0.34151637421493325  0.9501017389472107  1.0000
  O   O9        1.0  0.17273885279814039  0.1513628090234178  0.2249855546043945  1.0000
  O   O10       1.0  0.9769241068428157  0.7338450361271783  0.6677013308996534  1.0000
  O   O11       1.0  0.5543484540379922  0.1376044888744659  0.7613995850092362  1.0000
  O   O12       1.0  0.22741407128796706  0.7556683249063666  0.44965625006518184  1.0000
  O   O13       1.0  0.3729173842085202  0.8353804171304374  0.2733775444687438  1.0000
  O   O14       1.0  0.6256137375548362  0.6942433358936668  0.6847679701251435  1.0000
  O   O15       1.0  0.5217843854303013  0.188705208470644  0.25470887095588063  1.0000
  O   O16       1.0  0.20974457722870452  0.6019794049466966  0.18763000735066265  1.0000
  O   O17       1.0  0.7482371054984968  0.3653110210574866  0.809840254323987  1.0000
  O   O18       1.0  0.6879643266312883  0.7812158134172763  0.5824676052332831  1.0000
  O   O19       1.0  0.4510264697830094  0.07680232901851268  0.3231152378942212  1.0000
  O   O20       1.0  0.1218389653923921  0.6918064056591857  0.27628185930152677  1.0000
  O   O21       1.0  0.8128311671480049  0.27144009175150796  0.7142411436560889  1.0000
  O   O22       1.0  0.2336667495934037  0.2711333727082916  0.18585020193244614  1.0000
  O   O23       1.0  0.35650668264430146  0.959246002999997  0.3486660837915493  1.0000
  O   O24       1.0  0.9142110229539855  0.6501795277303444  0.7778532282328282  1.0000
  O   O25       1.0  0.48797413600852474  0.23927864192899048  0.8492155523742753  1.0000
  O   O26       1.0  0.4599788813445826  0.7462530954208972  0.1877774596457157  1.0000
  O   O27       1.0  0.7327035957705093  0.7617987513909412  0.3581593655552594  1.0000
  O   O28       1.0  0.005646681342895501  0.30079681075223863  0.7678821530483332  1.0000
  O   O29       1.0  0.15767393677624847  0.7411318253591331  0.5865214097344731  1.0000
  O   O30       1.0  0.840771416861223  0.0873781584607656  0.19905878523065468  1.0000
  O   O31       1.0  0.2027990065211398  0.274561590175793  0.8674839809768213  1.0000
  O   O32       1.0  0.5859985383042741  0.6985027322822289  0.279267765226912  1.0000
  O   O33       1.0  0.7218158326489287  0.1770953689953387  0.13338684158307498  1.0000
  O   O34       1.0  0.9973954612219272  0.7924326093162577  0.5304195276621398  1.0000
  O   O35       1.0  0.2938063776302259  0.6492208638421315  0.6401248443018089  1.0000
  O   O36       1.0  0.3275171796924425  0.6381977200983969  0.01719406163267219  1.0000
  O   O37       1.0  0.5128661594873235  0.30510820152563417  0.9811488254302104  1.0000
  O   O38       1.0  0.8283544349130737  0.5386428700826613  0.8303940406396604  1.0000
  O   O39       1.0  0.34477491598229904  0.3036017090555916  0.06931812171426799  1.0000
  O   O40       1.0  0.17218802499439786  0.1968260630081957  0.5548244968028156  1.0000
