data_image0
_chemical_formula_structural       Zn8C96O26F48
_chemical_formula_sum              "Zn8 C96 O26 F48"
_cell_length_a       28.25633472668909
_cell_length_b       28.256996410972793
_cell_length_c       28.255274759957395
_cell_angle_alpha    119.99998733645982
_cell_angle_beta     90.00135023636184
_cell_angle_gamma    59.99524220751207

_space_group_name_H-M_alt    "P 1"
_space_group_IT_number       1

loop_
  _space_group_symop_operation_xyz
  'x, y, z'

loop_
  _atom_site_type_symbol
  _atom_site_label
  _atom_site_symmetry_multiplicity
  _atom_site_fract_x
  _atom_site_fract_y
  _atom_site_fract_z
  _atom_site_occupancy
  Zn  Zn1       1.0  0.5284149301717989  0.05684819526146603  0.028409947364345146  1.0000
  Zn  Zn2       1.0  0.5284657933791408  0.9431777645451046  0.9147032698453972  1.0000
  Zn  Zn3       1.0  0.41478838950337854  0.05680466907500659  0.02835424318092093  1.0000
  Zn  Zn4       1.0  0.5284180921332509  0.9431850442233979  0.02838292761557445  1.0000
  Zn  Zn5       1.0  0.9714974131767561  0.9432144572848028  0.47165618168645546  1.0000
  Zn  Zn6       1.0  0.08519441668098438  0.9431448504939794  0.4715682916579597  1.0000
  Zn  Zn7       1.0  0.971529204199953  0.05683003557435049  0.5852487049201474  1.0000
  Zn  Zn8       1.0  0.9715136217501266  0.05682663991897378  0.4715930468510123  1.0000
  C   C1        1.0  0.5904115405737611  7.226227040752296e-05  0.9096450215488617  1.0000
  C   C2        1.0  0.40964595302410306  6.795346244864971e-06  0.9095536017197787  1.0000
  C   C3        1.0  0.40959458598884163  0.1807782162496778  0.0903846824971524  1.0000
  C   C4        1.0  0.4096024800117064  2.1757075465669306e-05  0.09035391817203477  1.0000
  C   C5        1.0  0.5903984375695402  0.9999867180880382  0.09036390521450233  1.0000
  C   C6        1.0  0.5904196367218759  0.8192301689374655  0.9095906004918604  1.0000
  C   C7        1.0  0.09023117724445462  0.81923574504345  0.4097140170435766  1.0000
  C   C8        1.0  0.09029112103656439  0.9999993746995625  0.5904245785761545  1.0000
  C   C9        1.0  0.9095749253407984  3.8170076159301774e-05  0.5904613986969026  1.0000
  C   C10       1.0  0.9095122688644534  0.1807776454671807  0.5904294269612506  1.0000
  C   C11       1.0  0.9094844655948361  8.348001550525467e-06  0.40970229532232577  1.0000
  C   C12       1.0  0.09032189250904557  4.278004327316585e-05  0.40963599696947733  1.0000
  C   C13       1.0  0.871991716353584  0.9999647304537187  0.372118156562678  1.0000
  C   C14       1.0  0.8533792156304115  0.0425088195875815  0.35348113580524665  1.0000
  C   C15       1.0  0.8186071258700877  0.04238967659737347  0.3186660026331865  1.0000
  C   C16       1.0  0.8002516132982007  0.9999484452309484  0.3003012843834083  1.0000
  C   C17       1.0  0.8186010826199491  0.9574981391785397  0.31864472348187445  1.0000
  C   C18       1.0  0.8533786581344956  0.9573865536000024  0.3534593418587447  1.0000
  C   C19       1.0  0.7651745856841431  0.9999482254047717  0.2652290677112958  1.0000
  C   C20       1.0  0.7347261950756733  0.9999544793580237  0.23480040059724416  1.0000
  C   C21       1.0  0.6996569836473013  0.9999751367583368  0.1997228430561934  1.0000
  C   C22       1.0  0.681327887762947  0.0424155244363433  0.18136762503512227  1.0000
  C   C23       1.0  0.6465475416669476  0.04253701970648637  0.146562147517443  1.0000
  C   C24       1.0  0.6279134097376943  0.9999853941549043  0.1279225355509581  1.0000
  C   C25       1.0  0.6465093350745266  0.9574423632281246  0.14656384690282911  1.0000
  C   C26       1.0  0.6812939054030522  0.9575501795871159  0.18136862276806207  1.0000
  C   C27       1.0  0.1278400184282588  3.236417739313607e-05  0.6279596434810558  1.0000
  C   C28       1.0  0.1890224098999055  0.9574672350280264  0.6040183412628864  1.0000
  C   C29       1.0  0.2237169856445147  0.9575931187560226  0.6389113488788496  1.0000
  C   C30       1.0  0.19964624191006639  5.606607017244904e-05  0.699707911244815  1.0000
  C   C31       1.0  0.13885189577776177  0.042509690680965766  0.7238163554725645  1.0000
  C   C32       1.0  0.10392015689443186  0.0426191867245081  0.6891537909148299  1.0000
  C   C33       1.0  0.23473826774250015  6.371433649816471e-05  0.7347690210455226  1.0000
  C   C34       1.0  0.26519228558039015  5.392043485108455e-05  0.7651927685350941  1.0000
  C   C35       1.0  0.3002881391440367  3.2196512101568814e-05  0.8002553612977154  1.0000
  C   C36       1.0  0.3610872374862096  0.9575778700246782  0.7761526810426531  1.0000
  C   C37       1.0  0.39601318754121456  0.9574535123049297  0.8108196202899264  1.0000
  C   C38       1.0  0.3721034338586547  3.170356450346534e-06  0.8720140269009066  1.0000
  C   C39       1.0  0.31091520206825835  0.04257502982093776  0.8959529277713968  1.0000
  C   C40       1.0  0.276219829770241  0.042464362654591394  0.8610568224700047  1.0000
  C   C41       1.0  0.1277649488256571  0.7441556815693176  0.37219672614315874  1.0000
  C   C42       1.0  0.18894604958634892  0.7068931249604656  0.35356786106425636  1.0000
  C   C43       1.0  0.22363467209248006  0.6373040773847902  0.31876639987193306  1.0000
  C   C44       1.0  0.19955416432810574  0.6005907702558557  0.30041233685977187  1.0000
  C   C45       1.0  0.13875826061425298  0.6372962489196609  0.3187657281003312  1.0000
  C   C46       1.0  0.10383747034030213  0.7068906367984339  0.35357109293733663  1.0000
  C   C47       1.0  0.23462959207221712  0.5304407531714188  0.26535113632485263  1.0000
  C   C48       1.0  0.26508028199994266  0.46955837505527825  0.23491513760107108  1.0000
  C   C49       1.0  0.3001902641193013  0.3994090584775447  0.19982362668619658  1.0000
  C   C50       1.0  0.3609893252573214  0.3627255205457445  0.18147981764268215  1.0000
  C   C51       1.0  0.3959244665915591  0.29313643787045846  0.14666257758316445  1.0000
  C   C52       1.0  0.37202521458119964  0.25585616804327316  0.12798287957891574  1.0000
  C   C53       1.0  0.3108326146394375  0.2930875861264254  0.14662466281124859  1.0000
  C   C54       1.0  0.2761268527021201  0.36267982227592177  0.18144220296164087  1.0000
  C   C55       1.0  0.8720519079791414  0.25585557733332803  0.6279674460038649  1.0000
  C   C56       1.0  0.8534569253393226  0.2931059398322371  0.6040325505259786  1.0000
  C   C57       1.0  0.8186834733221315  0.3626953609660431  0.6389312363789728  1.0000
  C   C58       1.0  0.8003246960123176  0.399413400814211  0.6997301746580789  1.0000
  C   C59       1.0  0.8186655628510165  0.36272292020830577  0.7238306865083076  1.0000
  C   C60       1.0  0.8534379177422835  0.2931299793077001  0.6891596131275008  1.0000
  C   C61       1.0  0.7652402158175775  0.46956695906933266  0.7348053832219109  1.0000
  C   C62       1.0  0.7347664836461263  0.5304426177405615  0.7652541627818652  1.0000
  C   C63       1.0  0.6996726192309807  0.6005968838198964  0.8003146891421552  1.0000
  C   C64       1.0  0.6813188140577181  0.6372824113521601  0.7762072970819888  1.0000
  C   C65       1.0  0.6465283763355669  0.7068718152906185  0.8108702643772007  1.0000
  C   C66       1.0  0.6279131851707049  0.7441515253022783  0.8720590310729365  1.0000
  C   C67       1.0  0.64652614704692  0.7069107161362065  0.8960074447568687  1.0000
  C   C68       1.0  0.6813133917886771  0.6373202315402438  0.8611094761302667  1.0000
  C   C69       1.0  0.8720619593241066  5.8455488151309815e-05  0.628025875061809  1.0000
  C   C70       1.0  0.8534676361633512  0.04262508445091841  0.6892160467278997  1.0000
  C   C71       1.0  0.8186727249093263  0.0425375356541906  0.7239203054986236  1.0000
  C   C72       1.0  0.8003068984651235  0.00011847479427015386  0.6998450824141785  1.0000
  C   C73       1.0  0.8186314089793567  0.9576605617822549  0.6390495757890593  1.0000
  C   C74       1.0  0.8534218129197055  0.9575177185904874  0.6041194329279878  1.0000
  C   C75       1.0  0.7652356780348195  0.0001530841305807881  0.7349442329786696  1.0000
  C   C76       1.0  0.7347935337948356  0.00016968750055899477  0.7653912403722813  1.0000
  C   C77       1.0  0.6997173149456868  0.0001579355115878057  0.8004405340076987  1.0000
  C   C78       1.0  0.6813485414634495  0.04259852031375305  0.8612317191238149  1.0000
  C   C79       1.0  0.6465528814276594  0.04269358731538369  0.896119341450053  1.0000
  C   C80       1.0  0.627948417181507  0.0001068301202449612  0.8721482963201127  1.0000
  C   C81       1.0  0.6465995183234696  0.9575575398734978  0.810963884549473  1.0000
  C   C82       1.0  0.6813936363887618  0.9576949897455402  0.776311735287841  1.0000
  C   C83       1.0  0.1278606221043218  0.00011839897094028931  0.3721586514427814  1.0000
  C   C84       1.0  0.18904887474563756  0.957605377279051  0.35355652987853153  1.0000
  C   C85       1.0  0.22372818143155393  0.9577297382269091  0.3187689749799603  1.0000
  C   C86       1.0  0.19964735380317916  0.00016737477483285302  0.3004040315078313  1.0000
  C   C87       1.0  0.13884598686916402  0.04259787602949674  0.31876318646231994  1.0000
  C   C88       1.0  0.10393356693904096  0.04270569057236884  0.35355380475867554  1.0000
  C   C89       1.0  0.2347100597449766  0.0001773561000816219  0.265316932318548  1.0000
  C   C90       1.0  0.2651402816002885  0.00016464568260227513  0.234853887660762  1.0000
  C   C91       1.0  0.30023761083590017  0.0001077366790908483  0.19973252075550363  1.0000
  C   C92       1.0  0.36104400792849867  0.9576340660244961  0.18135195616953603  1.0000
  C   C93       1.0  0.3959584829580862  0.957495108157637  0.14653875688581042  1.0000
  C   C94       1.0  0.3720483327493653  4.38163261122635e-05  0.1279040124037039  1.0000
  C   C95       1.0  0.31085579975938765  0.04262196099972464  0.14654216240389675  1.0000
  C   C96       1.0  0.2761669122762597  0.04253157598784436  0.18135911660397855  1.0000
  O   O1        1.0  0.5000280376696226  0.9999951757826858  0.9999544543098793  1.0000
  O   O2        1.0  0.576071617547633  0.04025297913151599  0.9641692570984974  1.0000
  O   O3        1.0  0.464183213802954  0.9598187006066824  0.883677541833926  1.0000
  O   O4        1.0  0.3837465944184615  0.15210344182802518  0.07600621096401744  1.0000
  O   O5        1.0  0.5760939214658477  0.9598660017763263  0.8837454157423041  1.0000
  O   O6        1.0  0.4641224920473164  0.15214020110046533  0.07605182501160362  1.0000
  O   O7        1.0  0.38377874552177327  0.0401936925095471  0.9640747761445143  1.0000
  O   O8        1.0  0.3837382128720179  0.040202241949209766  0.07600663840470653  1.0000
  O   O9        1.0  0.5760911839042179  0.9597693739956126  0.07600276068823342  1.0000
  O   O10       1.0  0.4641357598027299  0.9598222344982047  0.0760358749282091  1.0000
  O   O11       1.0  0.5760739565369875  0.04019215808792606  0.07604409161451302  1.0000
  O   O12       1.0  0.5761459892542149  0.8478816294842345  0.8837091076198295  1.0000
  O   O13       1.0  0.5760864649208414  0.8478928978051595  0.9641152754981164  1.0000
  O   O14       1.0  0.9999525703794492  0.9999981239734833  0.5000043784608154  1.0000
  O   O15       1.0  0.03571082974190161  0.8478974694295116  0.42405311686123076  1.0000
  O   O16       1.0  0.11615914261247422  0.9597742573565636  0.5358870198213738  1.0000
  O   O17       1.0  0.9238993178759071  0.04023381506272737  0.6163088268932884  1.0000
  O   O18       1.0  0.116116765997802  0.8478807815461947  0.424006755690563  1.0000
  O   O19       1.0  0.9238867874338439  0.9598337533572798  0.5359371665201488  1.0000
  O   O20       1.0  0.03577296187629732  0.04018675959517988  0.6163070181113711  1.0000
  O   O21       1.0  0.9238037207732785  0.15213219799780828  0.6163062087590208  1.0000
  O   O22       1.0  0.9238132166766704  0.04020586902586832  0.4240270768621953  1.0000
  O   O23       1.0  0.9237997901476049  0.15211244513209696  0.5358976712362776  1.0000
  O   O24       1.0  0.9237641082975118  0.9598616623157096  0.4240775649938087  1.0000
  O   O25       1.0  0.11620384934238372  0.9597893948005446  0.4239187705958898  1.0000
  O   O26       1.0  0.03579347867404436  0.04021505880420045  0.42394588906285696  1.0000
  F   F1        1.0  0.8681543637823664  0.08522592209129692  0.36827385488640374  1.0000
  F   F2        1.0  0.8681554015221312  0.9146561700652421  0.3682208060438084  1.0000
  F   F3        1.0  0.8021076354404004  0.9159538761901941  0.30211035800016367  1.0000
  F   F4        1.0  0.8021138262612413  0.08391449200545505  0.30215813315776074  1.0000
  F   F5        1.0  0.6978466602814422  0.0839279335745358  0.197884451620112  1.0000
  F   F6        1.0  0.697777409169369  0.9160296126221747  0.1978834572278244  1.0000
  F   F7        1.0  0.6317169943337789  0.9147433124936907  0.1317915060394554  1.0000
  F   F8        1.0  0.6317917374732788  0.08525147478920286  0.1317871759113203  1.0000
  F   F9        1.0  0.21695012178953013  0.9147287098298374  0.5465196269140763  1.0000
  F   F10       1.0  0.04642910481859979  0.08535754890946379  0.7171189748042934  1.0000
  F   F11       1.0  0.11384128855856071  0.08406838909743211  0.7818581570760232  1.0000
  F   F12       1.0  0.28175174023484567  0.9160552746750666  0.6138680074480337  1.0000
  F   F13       1.0  0.38610449552638204  0.9160467730755427  0.718110596787355  1.0000
  F   F14       1.0  0.21818221864121745  0.08400574636777941  0.8861058518819789  1.0000
  F   F15       1.0  0.2829799998334293  0.08529869289629478  0.9534478084487361  1.0000
  F   F16       1.0  0.45350733629656026  0.9147346133455796  0.7828594784382616  1.0000
  F   F17       1.0  0.21688715779002635  0.7364452601772341  0.36834321425828176  1.0000
  F   F18       1.0  0.04634396273510792  0.7364428074516736  0.3683710102845836  1.0000
  F   F19       1.0  0.11373426010000282  0.604285131851924  0.3022698872628382  1.0000
  F   F20       1.0  0.2816725594539662  0.6042943125131686  0.30225503998758535  1.0000
  F   F21       1.0  0.3859814713585266  0.3957692028226559  0.19802591778462644  1.0000
  F   F22       1.0  0.21808939005759953  0.39566198359654675  0.1979403985887345  1.0000
  F   F23       1.0  0.28291581301824203  0.26351067511574644  0.13183632836127407  1.0000
  F   F24       1.0  0.4534137229949735  0.26361364407252086  0.13191681381282902  1.0000
  F   F25       1.0  0.8682524556848749  0.2635419306654042  0.5465354702490544  1.0000
  F   F26       1.0  0.8682008673335913  0.2635981778905857  0.717118520596408  1.0000
  F   F27       1.0  0.8021646614834806  0.395751663676428  0.7818728630140015  1.0000
  F   F28       1.0  0.8022060211182376  0.3956906791832393  0.6138929314947604  1.0000
  F   F29       1.0  0.6978194399201811  0.6042472980422315  0.7181639808412402  1.0000
  F   F30       1.0  0.6978148473278837  0.6043309265615869  0.8861552748314381  1.0000
  F   F31       1.0  0.631752539361699  0.7364750760298405  0.9535027743666405  1.0000
  F   F32       1.0  0.6317435899514121  0.736401496196187  0.7829084207404334  1.0000
  F   F33       1.0  0.8682632938249525  0.08532522355767436  0.7171342658544476  1.0000
  F   F34       1.0  0.8681829471240761  0.91479338464233  0.5466290211419961  1.0000
  F   F35       1.0  0.8020988990440968  0.9161563004125949  0.6140688095948692  1.0000
  F   F36       1.0  0.8021822126167064  0.08406604784804744  0.7819575032649554  1.0000
  F   F37       1.0  0.6978368807722359  0.08414455028458429  0.8862736455703484  1.0000
  F   F38       1.0  0.6979334391691836  0.9161717784134137  0.7182680677099217  1.0000
  F   F39       1.0  0.6318537800421992  0.9148202323863613  0.7829918509696872  1.0000
  F   F40       1.0  0.6317530996736592  0.08541155769097494  0.9536207982033106  1.0000
  F   F41       1.0  0.21700113782131322  0.9149124713704138  0.3683587894798849  1.0000
  F   F42       1.0  0.04643678558344524  0.08544225446465248  0.36834296148086315  1.0000
  F   F43       1.0  0.11379738028188056  0.0841373122968321  0.3022646992022829  1.0000
  F   F44       1.0  0.28176675797373474  0.9162117120192902  0.3022862002958533  1.0000
  F   F45       1.0  0.3860671779016302  0.9161066655257596  0.19785606141417134  1.0000
  F   F46       1.0  0.21812866197263495  0.08409171573824635  0.197868814605485  1.0000
  F   F47       1.0  0.2829139548151715  0.0853399929002875  0.13176593670040396  1.0000
  F   F48       1.0  0.453454652648631  0.9147514669194547  0.13175092024729917  1.0000
