data_image0
_chemical_formula_structural       Cd2H36C40N8O8
_chemical_formula_sum              "Cd2 H36 C40 N8 O8"
_cell_length_a       9.520530298130826
_cell_length_b       9.738434652899352
_cell_length_c       10.72491161100213
_cell_angle_alpha    90.00005841245489
_cell_angle_beta     89.99993735441382
_cell_angle_gamma    114.09009524326846

_space_group_name_H-M_alt    "P 1"
_space_group_IT_number       1

loop_
  _space_group_symop_operation_xyz
  'x, y, z'

loop_
  _atom_site_type_symbol
  _atom_site_label
  _atom_site_symmetry_multiplicity
  _atom_site_fract_x
  _atom_site_fract_y
  _atom_site_fract_z
  _atom_site_occupancy
  Cd  Cd1       1.0  0.5000003469907953  0.4999997845179749  0.5000003798630032  1.0000
  Cd  Cd2       1.0  0.0  0.0  0.0  1.0000
  H   H1        1.0  0.2144626316927187  0.5900320823987286  0.5904283450595214  1.0000
  H   H2        1.0  0.28553687213180723  0.9099685508195492  0.09042806759531888  1.0000
  H   H3        1.0  0.7855370124014343  0.4099674877703876  0.4095714822583715  1.0000
  H   H4        1.0  0.7144621927643086  0.09003214530859795  0.909571759723384  1.0000
  H   H5        1.0  0.4087050352952772  0.03666014813755681  0.7484339587185431  1.0000
  H   H6        1.0  0.09129403448955038  0.4633398256309891  0.2484339192916777  1.0000
  H   H7        1.0  0.5912940296008385  0.9633405479905973  0.25156586860016006  1.0000
  H   H8        1.0  0.9087056096046028  0.5366597445381275  0.7515659080262221  1.0000
  H   H9        1.0  0.6612652857549008  0.0666847955835266  0.6610037588260693  1.0000
  H   H10       1.0  0.8387346175416256  0.4333157741022546  0.16100345132765165  1.0000
  H   H11       1.0  0.33873435833925225  0.9333147745855899  0.3389960684918306  1.0000
  H   H12       1.0  0.16126549724235414  0.5666849208923778  0.8389963759905397  1.0000
  H   H13       1.0  0.6810063440780354  0.8517896254776217  0.5437192300966203  1.0000
  H   H14       1.0  0.8189945351962395  0.6482105085333602  0.04371867773976849  1.0000
  H   H15       1.0  0.3189937707059443  0.14821106951701074  0.4562805972215713  1.0000
  H   H16       1.0  0.18100510889834004  0.351789061635408  0.9562802171695066  1.0000
  H   H17       1.0  0.12599110300936897  0.24284948619038  0.227843420867785  1.0000
  H   H18       1.0  0.374007985615755  0.2571504719868826  0.7278436981749434  1.0000
  H   H19       1.0  0.8740090117746108  0.7571512088042525  0.7721564064504063  1.0000
  H   H20       1.0  0.6259916584779719  0.7428490981825964  0.2721570615515673  1.0000
  H   H21       1.0  0.6140994247249695  0.503529312471379  0.18976653391002424  1.0000
  H   H22       1.0  0.8858993296464562  0.9964686836119943  0.6897688861135405  1.0000
  H   H23       1.0  0.3859007985676541  0.4964691317383583  0.8102323609984547  1.0000
  H   H24       1.0  0.1140997352492263  0.0035320125165086  0.3102318736137731  1.0000
  H   H25       1.0  0.6114635109842866  0.3295307457573956  0.014892286142050196  1.0000
  H   H26       1.0  0.8885350054261921  0.1704685895999063  0.5148943338872269  1.0000
  H   H27       1.0  0.38853508322285535  0.670468825544539  0.9851056763591255  1.0000
  H   H28       1.0  0.11146510935736131  0.8295321053950815  0.48510642583958213  1.0000
  H   H29       1.0  0.3606381862353771  0.1240965327058703  0.9515769554644178  1.0000
  H   H30       1.0  0.1393591770945477  0.37590247119333503  0.45157772080108316  1.0000
  H   H31       1.0  0.6393588873932217  0.8759019149047802  0.048422871854206996  1.0000
  H   H32       1.0  0.8606409376890057  0.6240982238016527  0.5484230389257263  1.0000
  H   H33       1.0  0.14620649210563394  0.8794572656413424  0.7593091581039385  1.0000
  H   H34       1.0  0.3537939070797052  0.6205434943222486  0.2593094787430914  1.0000
  H   H35       1.0  0.8537931519885191  0.12054230452778116  0.24069066921396132  1.0000
  H   H36       1.0  0.6462062077042745  0.3794572006723839  0.7406903485751  1.0000
  C   C1        1.0  0.31175822801265707  0.6972996317573674  0.6067333769716894  1.0000
  C   C2        1.0  0.18824231078055223  0.802701012673765  0.10673309464494447  1.0000
  C   C3        1.0  0.6882424659693597  0.3026999372782342  0.39326645034569896  1.0000
  C   C4        1.0  0.8117567541155637  0.19729968345438212  0.8932667326737583  1.0000
  C   C5        1.0  0.29021275055333734  0.811000752945411  0.6745950716154494  1.0000
  C   C6        1.0  0.20978772614614638  0.6889999428713695  0.17459466307288804  1.0000
  C   C7        1.0  0.7097868935403894  0.18899881722406775  0.3254056881110613  1.0000
  C   C8        1.0  0.7902123886374072  0.3110007521236114  0.8254060966539211  1.0000
  C   C9        1.0  0.4193562017323914  0.9460420401933051  0.6955089967181107  1.0000
  C   C10       1.0  0.08064530571861186  0.5539586703262317  0.19550858851722802  1.0000
  C   C11       1.0  0.5806439130515882  0.05395865480132761  0.3044908306000805  1.0000
  C   C12       1.0  0.9193558589532317  0.44604202353487926  0.8044912388004516  1.0000
  C   C13       1.0  0.5605211675986581  0.9618265879860601  0.6474180962643599  1.0000
  C   C14       1.0  0.9394800874801347  0.5381747493727431  0.14741825742240874  1.0000
  C   C15       1.0  0.43947952638293236  0.038172981049896706  0.35258266346164646  1.0000
  C   C16       1.0  0.06051944810494806  0.4618270715816238  0.8525834347138143  1.0000
  C   C17       1.0  0.571996967691156  0.8436327539894963  0.5817624832164296  1.0000
  C   C18       1.0  0.9280038767733956  0.6563674088282669  0.08176183256419728  1.0000
  C   C19       1.0  0.42800314709282367  0.15636794100513643  0.41823734410176155  1.0000
  C   C20       1.0  0.07199576732075742  0.34363216134085667  0.9182379947537027  1.0000
  C   C21       1.0  0.2360283857408518  0.2661387326797212  0.18257307506728884  1.0000
  C   C22       1.0  0.2639728440821259  0.23386118895162877  0.6825743700619142  1.0000
  C   C23       1.0  0.7639727789309916  0.7338619611813899  0.817426752250391  1.0000
  C   C24       1.0  0.7360268000116008  0.7661383812178428  0.3174263896645967  1.0000
  C   C25       1.0  0.36982148809013893  0.38978100345885747  0.2225715322020605  1.0000
  C   C26       1.0  0.1301792344442205  0.11021782363430792  0.722572842609736  1.0000
  C   C27       1.0  0.6301802557801678  0.6102185644428744  0.7774273627061984  1.0000
  C   C28       1.0  0.869820409649506  0.8897817465351637  0.2774279171167747  1.0000
  C   C29       1.0  0.5080786485646059  0.4107654765070805  0.16078541780495204  1.0000
  C   C30       1.0  0.9919244045943004  0.08923508961363782  0.660787289931825  1.0000
  C   C31       1.0  0.4919215747280177  0.5892329677026568  0.8392134771035271  1.0000
  C   C32       1.0  0.008077701456762983  0.9107678538988466  0.33921346979505523  1.0000
  C   C33       1.0  0.5067373615143609  0.31445070283446336  0.06493003842255968  1.0000
  C   C34       1.0  0.9932601677317123  0.1855464207609785  0.5649319984421692  1.0000
  C   C35       1.0  0.4932607620029543  0.6855477436419619  0.9350679240783247  1.0000
  C   C36       1.0  0.006738426474150732  0.814453150542015  0.43506876128486016  1.0000
  C   C37       1.0  0.3684305755589962  0.1981673628246341  0.029811813586711394  1.0000
  C   C38       1.0  0.1315671736877846  0.3018313217091588  0.5298133000924776  1.0000
  C   C39       1.0  0.6315680186477198  0.8018322084776559  0.9701870813230751  1.0000
  C   C40       1.0  0.868432941095769  0.6981693732858218  0.47018745963432435  1.0000
  N   N1        1.0  0.4493777970427359  0.7131735341763276  0.5624812045557802  1.0000
  N   N2        1.0  0.050623832129240105  0.7868270756130471  0.06248104115820038  1.0000
  N   N3        1.0  0.5506233676286811  0.2868271596851386  0.43751955517051017  1.0000
  N   N4        1.0  0.9493768618523503  0.2131724934229098  0.9375197185678058  1.0000
  N   N5        1.0  0.23558779252901021  0.17465967152678993  0.08868135003358187  1.0000
  N   N6        1.0  0.26441247331788287  0.3253401801418078  0.5886817969080622  1.0000
  N   N7        1.0  0.7644123222549696  0.8253410234678427  0.9113184772846094  1.0000
  N   N8        1.0  0.735587749973888  0.6746582640686327  0.41131896281765273  1.0000
  O   O1        1.0  0.14832759633748088  0.7846219637108406  0.7166905801076523  1.0000
  O   O2        1.0  0.3516728418444545  0.7153787639811284  0.2166900582217294  1.0000
  O   O3        1.0  0.8516720477562458  0.21537760645863105  0.2833101796188656  1.0000
  O   O4        1.0  0.6483272729395252  0.28462193101350414  0.7833097690964619  1.0000
  O   O5        1.0  0.36293714459532816  0.4809168673927147  0.31242033687092163  1.0000
  O   O6        1.0  0.1370634957269772  0.0190820277350241  0.8124215561958646  1.0000
  O   O7        1.0  0.6370645992745593  0.5190827005093724  0.6875794904459552  1.0000
  O   O8        1.0  0.8629350984788858  0.9809175435679691  0.18757920353115756  1.0000
