data_image0
_chemical_formula_structural       Ni3H96C54N18O18
_chemical_formula_sum              "Ni3 H96 C54 N18 O18"
_cell_length_a       9.32965544200397
_cell_length_b       14.82771542558846
_cell_length_c       16.376649806558888
_cell_angle_alpha    90.48456765152994
_cell_angle_beta     98.83139718342703
_cell_angle_gamma    101.02958277862135

_space_group_name_H-M_alt    "P 1"
_space_group_IT_number       1

loop_
  _space_group_symop_operation_xyz
  'x, y, z'

loop_
  _atom_site_type_symbol
  _atom_site_label
  _atom_site_symmetry_multiplicity
  _atom_site_fract_x
  _atom_site_fract_y
  _atom_site_fract_z
  _atom_site_occupancy
  Ni  Ni1       1.0  3.325266874292627e-06  0.9999962767722649  0.9999959980365107  1.0000
  Ni  Ni2       1.0  0.5000064495644237  1.5318619758963647e-06  0.5000078558392005  1.0000
  Ni  Ni3       1.0  0.4999986029081923  0.5000066127600533  1.3995991138947387e-06  1.0000
  H   H1        1.0  0.9323056145663882  0.10841183063753591  0.09815253209711731  1.0000
  H   H2        1.0  0.06771082202100595  0.8915817874383762  0.9018417953143469  1.0000
  H   H3        1.0  0.2781061904071294  0.02432038327999919  0.048946484637859604  1.0000
  H   H4        1.0  0.7219010904491584  0.9756719571689487  0.9510466461879548  1.0000
  H   H5        1.0  0.9559885153242004  0.2589085896730836  0.028199967931484993  1.0000
  H   H6        1.0  0.04403264073903301  0.7410849076047297  0.9717995300530406  1.0000
  H   H7        1.0  0.032772251658748495  0.2043581550438489  0.9515962585749165  1.0000
  H   H8        1.0  0.9672397563732388  0.7956278650421708  0.04840125372132321  1.0000
  H   H9        1.0  0.15925331859838818  0.21188367686414009  0.14817979053805172  1.0000
  H   H10       1.0  0.8407436597728404  0.7881059450265226  0.8518169249357828  1.0000
  H   H11       1.0  0.22877556930854578  0.1810974153656346  0.05811474050310041  1.0000
  H   H12       1.0  0.7712400419865019  0.8188988975802828  0.9418845062426017  1.0000
  H   H13       1.0  0.3091579786121841  0.09211729954235177  0.1833741457401601  1.0000
  H   H14       1.0  0.6908581409424385  0.9078749147319412  0.8166219565912912  1.0000
  H   H15       1.0  0.11864862588473096  0.04644250122754559  0.1856017729320385  1.0000
  H   H16       1.0  0.8813664304006609  0.9535489884439201  0.8143973019680288  1.0000
  H   H17       1.0  0.31549995634804145  0.9131562946912265  0.1536554068051643  1.0000
  H   H18       1.0  0.6845212166212987  0.086838664098984  0.8463386314391317  1.0000
  H   H19       1.0  0.11968889856741073  0.8882032324133178  0.15073212532725222  1.0000
  H   H20       1.0  0.8803350254510959  0.111786125030747  0.8492655852561272  1.0000
  H   H21       1.0  0.7110430638115801  0.0749385364479096  0.04278986234386651  1.0000
  H   H22       1.0  0.28896815716908003  0.925055833532596  0.9572035628267062  1.0000
  H   H23       1.0  0.7257129568980288  0.1946139186734896  0.056289813064054804  1.0000
  H   H24       1.0  0.2742972842981217  0.8053804430326962  0.9437047760100868  1.0000
  H   H25       1.0  0.5004014324862424  0.07154232592274916  0.9258516158700161  1.0000
  H   H26       1.0  0.4996013028663028  0.9284409742608445  0.07414893130738422  1.0000
  H   H27       1.0  0.5216564187334711  0.1928795040552558  0.9379949980008037  1.0000
  H   H28       1.0  0.47833357568880064  0.8071053507181106  0.06200177354499911  1.0000
  H   H29       1.0  0.5009907935612573  0.15242226891017197  0.08255451179086042  1.0000
  H   H30       1.0  0.49902852908753187  0.8475803151716973  0.9174384118963916  1.0000
  H   H31       1.0  0.567650904190593  0.1707053311642639  0.49178012128718507  1.0000
  H   H32       1.0  0.4323658881312084  0.8293026151463536  0.5082250332455303  1.0000
  H   H33       1.0  0.2550256768020914  0.04093846960001459  0.4527130551687719  1.0000
  H   H34       1.0  0.7449650892717938  0.9590504344085244  0.5472893817079695  1.0000
  H   H35       1.0  0.8293892853898653  0.19959762668873535  0.4810090797603621  1.0000
  H   H36       1.0  0.17062562013499866  0.8003894976824738  0.5190051460869682  1.0000
  H   H37       1.0  0.804425972474931  0.08324748723372719  0.4440348808579487  1.0000
  H   H38       1.0  0.19556325845618971  0.916734388148228  0.5559770447554089  1.0000
  H   H39       1.0  0.6146517295614798  0.20295979719724494  0.3490961108103577  1.0000
  H   H40       1.0  0.3853686033226466  0.7970157998218069  0.6509009892414781  1.0000
  H   H41       1.0  0.6094228307674  0.08290678161490919  0.3350619194382957  1.0000
  H   H42       1.0  0.39059000921099596  0.9170637528028324  0.6649553744571506  1.0000
  H   H43       1.0  0.3846708312860229  0.9790826370015395  0.31464592512784867  1.0000
  H   H44       1.0  0.6153378486550166  0.020895573488445493  0.6853682830607326  1.0000
  H   H45       1.0  0.2157647720534968  0.021800434558336704  0.3005699595700193  1.0000
  H   H46       1.0  0.784242315721002  0.9781813506439931  0.6994369189637197  1.0000
  H   H47       1.0  0.25493479820811876  0.8558452305369572  0.3864135881523723  1.0000
  H   H48       1.0  0.7450890504861222  0.14414448042236924  0.6136067504945688  1.0000
  H   H49       1.0  0.09491793235831386  0.898331371551521  0.40271900672019006  1.0000
  H   H50       1.0  0.9050947215193045  0.10165179149480959  0.5972845763326973  1.0000
  H   H51       1.0  0.3531459637736986  0.2117672334615861  0.4274883743407116  1.0000
  H   H52       1.0  0.6468527979908671  0.7882133112434886  0.5725143012936869  1.0000
  H   H53       1.0  0.209459621479354  0.1629789480120323  0.3461476393295798  1.0000
  H   H54       1.0  0.7905525866370836  0.8370070336001519  0.653852329513491  1.0000
  H   H55       1.0  0.4752676845795916  0.3150160776023084  0.3291134283793938  1.0000
  H   H56       1.0  0.524745407010755  0.6849682693651785  0.6709030546646417  1.0000
  H   H57       1.0  0.35393940898145354  0.25226710032362826  0.24428601962463153  1.0000
  H   H58       1.0  0.6460749309114603  0.7477325289803147  0.7557230289241944  1.0000
  H   H59       1.0  0.1638804914257719  0.30960743039541694  0.3053959156602986  1.0000
  H   H60       1.0  0.8361364035120856  0.690387170958111  0.6946247583800371  1.0000
  H   H61       1.0  0.4898525068966392  0.459138341777667  0.1468778799519015  1.0000
  H   H62       1.0  0.5101377056739835  0.5408595995984768  0.8531205035442471  1.0000
  H   H63       1.0  0.23466162780569993  0.4796017973202353  0.9384476608265474  1.0000
  H   H64       1.0  0.7653140582377205  0.5203885210335814  0.061561861769782004  1.0000
  H   H65       1.0  0.4706278564436488  0.28803611842765525  0.14655871969987544  1.0000
  H   H66       1.0  0.5293413431760996  0.7119575900136468  0.8534126039214556  1.0000
  H   H67       1.0  0.4529001431831502  0.2933436159198309  0.0360736373366777  1.0000
  H   H68       1.0  0.547067214973694  0.7066631818125301  0.9639003977687112  1.0000
  H   H69       1.0  0.24000561760437475  0.3762139000789091  0.14417675160339632  1.0000
  H   H70       1.0  0.7600049712777304  0.6237987923489924  0.8558379503733278  1.0000
  H   H71       1.0  0.23245334108919025  0.34780510603246034  0.03705832939695601  1.0000
  H   H72       1.0  0.7675153047907057  0.6522005150293991  0.9629475427023096  1.0000
  H   H73       1.0  0.10711092480181608  0.4798248245992979  0.05692959628076011  1.0000
  H   H74       1.0  0.8929039901316569  0.5202138831063577  0.943096506483407  1.0000
  H   H75       1.0  0.27576465745000434  0.5431388776085911  0.1130064970847755  1.0000
  H   H76       1.0  0.7242959119856563  0.4568714474196581  0.8869970682652807  1.0000
  H   H77       1.0  0.15664127933117558  0.6269410668753467  0.959108466896879  1.0000
  H   H78       1.0  0.8433338181269788  0.3730386299262847  0.040873201475733416  1.0000
  H   H79       1.0  0.3303800233768185  0.6617127652897209  0.024233467003703893  1.0000
  H   H80       1.0  0.6695938347267754  0.33829596310130233  0.9757459042798119  1.0000
  H   H81       1.0  0.8017632337500799  0.44682614985798347  0.18902804447327531  1.0000
  H   H82       1.0  0.19817989342262615  0.5531857136702101  0.8109452961079031  1.0000
  H   H83       1.0  0.6750197996555584  0.36368297399573624  0.23005584765721923  1.0000
  H   H84       1.0  0.3249309440252616  0.6363226036109493  0.7699177685469893  1.0000
  H   H85       1.0  0.9391705521072066  0.3194023292215958  0.1561330193028496  1.0000
  H   H86       1.0  0.0608045778591162  0.6806103522199862  0.8438581586786784  1.0000
  H   H87       1.0  0.8141541337488859  0.2410245574611523  0.2055789100236467  1.0000
  H   H88       1.0  0.1858041985630621  0.758988403841002  0.7944039327696332  1.0000
  H   H89       1.0  0.9960232256500916  0.4023126855263969  0.28822636611997154  1.0000
  H   H90       1.0  0.003946600447356732  0.597695102413752  0.7117723019438673  1.0000
  H   H91       1.0  0.7465263290799979  0.7742571014494216  0.10235536009404463  1.0000
  H   H92       1.0  0.2533117216576811  0.22575735429279586  0.8976019779144765  1.0000
  H   H93       1.0  0.5350941024623593  0.6804369138089256  0.3106746499956969  1.0000
  H   H94       1.0  0.4648848820303825  0.3195976759644736  0.6893259482625852  1.0000
  H   H95       1.0  0.7258066716719326  0.9670363858955043  0.2949163210113923  1.0000
  H   H96       1.0  0.27425142958653487  0.03297582417791029  0.7051012132387485  1.0000
  C   C1        1.0  0.9545929549851024  0.19258321659819444  0.9959631973184104  1.0000
  C   C2        1.0  0.045420025131534245  0.807409011326982  0.004033940176896112  1.0000
  C   C3        1.0  0.15341728936108723  0.15603430695077952  0.10198017055638083  1.0000
  C   C4        1.0  0.8465948065844414  0.8439551614634552  0.8980174460953594  1.0000
  C   C5        1.0  0.1991645975970755  0.07275954941791701  0.14487673369303175  1.0000
  C   C6        1.0  0.8008509713767181  0.9272305735816245  0.8551211098133251  1.0000
  C   C7        1.0  0.2077335522725078  0.9093952965508548  0.11343086744072653  1.0000
  C   C8        1.0  0.7922864573853728  0.09059895687344978  0.8865649150987738  1.0000
  C   C9        1.0  0.7002923186583132  0.138088905516291  0.008926949265067211  1.0000
  C   C10       1.0  0.29972021569714263  0.8619061409747317  0.9910665740204297  1.0000
  C   C11       1.0  0.5398886630846746  0.13018734293859063  0.9702673277730441  1.0000
  C   C12       1.0  0.46011301377606617  0.8698001617196951  0.02972960831483819  1.0000
  C   C13       1.0  0.7646878347394972  0.12950056219273878  0.4846136884494713  1.0000
  C   C14       1.0  0.2353183321292533  0.8704866691162111  0.5153987941656482  1.0000
  C   C15       1.0  0.5640316913057362  0.13385611771827405  0.36712605737814397  1.0000
  C   C16       1.0  0.43598081215994705  0.8661248771056194  0.6328841799433179  1.0000
  C   C17       1.0  0.32403938441764507  0.026554962635749694  0.3401265172171364  1.0000
  C   C18       1.0  0.6759689998255495  0.9734260375647066  0.6598859191717494  1.0000
  C   C19       1.0  0.2133351360360294  0.9016947950963754  0.4263287974423307  1.0000
  C   C20       1.0  0.7866752545262727  0.09829514359878996  0.5736846273993237  1.0000
  C   C21       1.0  0.3290962456967462  0.19137352456520063  0.360958464590901  1.0000
  C   C22       1.0  0.6709173044806603  0.8086089304269422  0.6390457632234715  1.0000
  C   C23       1.0  0.3619468991280073  0.2764376772911278  0.309275026493431  1.0000
  C   C24       1.0  0.6380671391318414  0.7235481490815375  0.6907342187701034  1.0000
  C   C25       1.0  0.5023978551545198  0.3311173362945681  0.0948765073134012  1.0000
  C   C26       1.0  0.49757761529274075  0.6688803473319709  0.9051020317615299  1.0000
  C   C27       1.0  0.2799925765764398  0.400574565473839  0.08658961050470282  1.0000
  C   C28       1.0  0.7199970409788532  0.5994356898099511  0.9134164281939476  1.0000
  C   C29       1.0  0.2290513317984164  0.49032553501742626  0.0634983613718987  1.0000
  C   C30       1.0  0.7709585446594432  0.5096907596340615  0.9365066187730096  1.0000
  C   C31       1.0  0.2737364311405912  0.6196678995131464  0.9688284439583159  1.0000
  C   C32       1.0  0.7262488909045216  0.3803281950821997  0.031157976595622493  1.0000
  C   C33       1.0  0.74926529868128  0.3728863717449968  0.18352256183880666  1.0000
  C   C34       1.0  0.2506939666650966  0.6271176758854082  0.8164558007910189  1.0000
  C   C35       1.0  0.867094285799382  0.3137851334868317  0.20431167229545372  1.0000
  C   C36       1.0  0.13287815526756935  0.6862296721173067  0.7956775714016119  1.0000
  C   C37       1.0  0.8293559947772167  0.9550595745905568  0.1494219347507126  1.0000
  C   C38       1.0  0.1706507381624291  0.0449561987899258  0.8505736708588076  1.0000
  C   C39       1.0  0.5693032544500837  0.8468990956732226  0.39002982285215654  1.0000
  C   C40       1.0  0.43073912093229433  0.15311738578516548  0.6099887263609247  1.0000
  C   C41       1.0  0.5947020099781924  0.6209374610993806  0.16338722566736413  1.0000
  C   C42       1.0  0.4052724701742747  0.37908261479079636  0.8366175770381048  1.0000
  C   C43       1.0  0.7489258441635797  0.8783351498165215  0.1951577514915428  1.0000
  C   C44       1.0  0.25105168051066323  0.1216920578150251  0.804829707439801  1.0000
  C   C45       1.0  0.7147237973823052  0.7882138928904608  0.1616940329783745  1.0000
  C   C46       1.0  0.2851950120505009  0.2118112516695874  0.8382831238668447  1.0000
  C   C47       1.0  0.6372482557640209  0.7167529738485496  0.20231953740787392  1.0000
  C   C48       1.0  0.36270922815601375  0.2832812810180841  0.7976705920275651  1.0000
  C   C49       1.0  0.5944635243836202  0.7356400683823096  0.27802323257775197  1.0000
  C   C50       1.0  0.4055147804512912  0.2643944554059985  0.721982214404335  1.0000
  C   C51       1.0  0.6246729898099587  0.8258932526939942  0.311275419714967  1.0000
  C   C52       1.0  0.37533316467187205  0.17413409902871277  0.6887308780355212  1.0000
  C   C53       1.0  0.702115902291055  0.896689649869927  0.26959985109828477  1.0000
  C   C54       1.0  0.29790568679784707  0.1033389521779782  0.7304055729101293  1.0000
  N   N1        1.0  0.004046817472946904  0.126790316788373  0.05559085482394721  1.0000
  N   N2        1.0  0.9959663917629198  0.8731998666102216  0.9444044033958792  1.0000
  N   N3        1.0  0.1933657787944014  0.0007724771047463996  0.08144323635191603  1.0000
  N   N4        1.0  0.8066455543571674  0.9992184060737086  0.9185525410099872  1.0000
  N   N5        1.0  0.8064483914675975  0.16033751605213098  0.9516557752806493  1.0000
  N   N6        1.0  0.19356439299341593  0.8396574823465884  0.04834081868838781  1.0000
  N   N7        1.0  0.6054477695323044  0.12345600705091898  0.4567847609004404  1.0000
  N   N8        1.0  0.39456108774221127  0.8765429607375311  0.5432257744641902  1.0000
  N   N9        1.0  0.3018768950158659  0.9951123041218892  0.4237469360406578  1.0000
  N   N10       1.0  0.6981288926703185  0.004877000569024396  0.5762655834398205  1.0000
  N   N11       1.0  0.4059503542578823  0.11912665017402449  0.3391457129654044  1.0000
  N   N12       1.0  0.594061331963907  0.8808530370328498  0.6608601579089638  1.0000
  N   N13       1.0  0.44186036445925214  0.4158759651015346  0.09463768169576531  1.0000
  N   N14       1.0  0.558128789619566  0.5841261807493083  0.9053570907108509  1.0000
  N   N15       1.0  0.2852602168565141  0.5233570534665616  0.9876249847496227  1.0000
  N   N16       1.0  0.7147369962205657  0.47664491946144943  0.012376379613030494  1.0000
  N   N17       1.0  0.6616004889076235  0.34609593335891725  0.10192962795376563  1.0000
  N   N18       1.0  0.33837212894185603  0.6538935102086398  0.8980478920436215  1.0000
  O   O1        1.0  0.450677222469892  0.112967124640349  0.0347840708413329  1.0000
  O   O2        1.0  0.5493419482605757  0.887019430577034  0.9652193886494445  1.0000
  O   O3        1.0  0.268280420446608  0.3402611980492766  0.3167341241252686  1.0000
  O   O4        1.0  0.7317429732802053  0.6597236703986838  0.6832872709494425  1.0000
  O   O5        1.0  0.9544812249379928  0.33659479951336374  0.28441378096087533  1.0000
  O   O6        1.0  0.045488897205906674  0.6634123957941397  0.715578162223956  1.0000
  O   O7        1.0  0.8749913967490386  0.9290393045578184  0.08457825086954072  1.0000
  O   O8        1.0  0.1250032289772918  0.0709786339378766  0.9154185259471108  1.0000
  O   O9        1.0  0.8454704560928972  0.037307401999413514  0.1763738981452505  1.0000
  O   O10       1.0  0.1545851324418805  0.9627160259707707  0.8236334138527255  1.0000
  O   O11       1.0  0.5924708440643655  0.9329032909481754  0.41195024795776913  1.0000
  O   O12       1.0  0.40759988711126727  0.0671225149017403  0.5880733248763904  1.0000
  O   O13       1.0  0.5036176441828744  0.7812584293656357  0.42728987522308876  1.0000
  O   O14       1.0  0.4964353341598269  0.21876291001809278  0.5727202774835193  1.0000
  O   O15       1.0  0.5892328280036805  0.6156326063156853  0.08394637175653231  1.0000
  O   O16       1.0  0.41081856109492054  0.38438117913803177  0.916062245850739  1.0000
  O   O17       1.0  0.5654869970244789  0.5540506317623864  0.20912555285012507  1.0000
  O   O18       1.0  0.4344288646577468  0.44597629338389316  0.7908728781658141  1.0000
