data_image0
_chemical_formula_structural       Cd2H36C48N4O12
_chemical_formula_sum              "Cd2 H36 C48 N4 O12"
_cell_length_a       10.360686879840586
_cell_length_b       10.949935341291534
_cell_length_c       10.963
_cell_angle_alpha    63.20928487046588
_cell_angle_beta     80.30792563226348
_cell_angle_gamma    82.80077287984685

_space_group_name_H-M_alt    "P 1"
_space_group_IT_number       1

loop_
  _space_group_symop_operation_xyz
  'x, y, z'

loop_
  _atom_site_type_symbol
  _atom_site_label
  _atom_site_symmetry_multiplicity
  _atom_site_fract_x
  _atom_site_fract_y
  _atom_site_fract_z
  _atom_site_occupancy
  Cd  Cd1       1.0  0.891403094739374  0.11676158626184471  0.5794774364537646  1.0000
  Cd  Cd2       1.0  0.10859350126610676  0.8832407542162599  0.42052031835854825  1.0000
  H   H1        1.0  0.6825441067357686  0.6695093309720549  0.9960576274029549  1.0000
  H   H2        1.0  0.31745749528498374  0.3304909601403452  0.003941165709008495  1.0000
  H   H3        1.0  0.7514078282908301  0.4672943182974621  0.20552817682207092  1.0000
  H   H4        1.0  0.2485927394664671  0.5327069974977832  0.7944703195370835  1.0000
  H   H5        1.0  0.36297250536836867  0.7464660871789804  0.6931874241709579  1.0000
  H   H6        1.0  0.6370280623889286  0.2535352286162649  0.306812896506365  1.0000
  H   H7        1.0  0.6966283935169386  0.613971520413017  0.7041749385761664  1.0000
  H   H8        1.0  0.3033692918526469  0.386028770699383  0.2958244776891733  1.0000
  H   H9        1.0  0.43525341113684135  0.9481298204793873  0.7007777976290799  1.0000
  H   H10       1.0  0.5647451982948724  0.051871495315857906  0.2992219224658541  1.0000
  H   H11       1.0  0.5248210629729257  0.8711290029098393  0.5978651443127562  1.0000
  H   H12       1.0  0.4751795598850349  0.1288712882025536  0.4021347167466305  1.0000
  H   H13       1.0  0.9298212949400834  0.5306760760858255  0.6999723402371245  1.0000
  H   H14       1.0  0.0701753010653974  0.46932626439227226  0.30002359025702685  1.0000
  H   H15       1.0  0.33628177428719397  0.35296327975972025  0.7042096735340024  1.0000
  H   H16       1.0  0.663717979609288  0.6470349619869752  0.2957903362369478  1.0000
  H   H17       1.0  0.20035995509413596  0.0540673906669298  0.606336053715232  1.0000
  H   H18       1.0  0.7996357168492093  0.9459339251283155  0.3936613972674934  1.0000
  H   H19       1.0  0.6139223011281487  0.2851364477609266  0.6175248004298126  1.0000
  H   H20       1.0  0.38607468058193456  0.7148587199372118  0.38248159512502866  1.0000
  H   H21       1.0  0.2425425032717499  0.025912179952342705  0.06254629668290329  1.0000
  H   H22       1.0  0.7574611672758991  0.9740860617943528  0.9374549142528251  1.0000
  H   H23       1.0  0.9781253781357504  0.3724752906206987  0.0793807869974685  1.0000
  H   H24       1.0  0.021877147947137097  0.6275260251745465  0.9206183099440753  1.0000
  H   H25       1.0  0.13094571911034336  0.33283748387060547  0.14607493079551398  1.0000
  H   H26       1.0  0.869055882910409  0.6671628072417946  0.8539256866346109  1.0000
  H   H27       1.0  0.38864054704857415  0.1569609192146402  0.6404699964379007  1.0000
  H   H28       1.0  0.6113552350960844  0.8430383472149074  0.35952835962712737  1.0000
  H   H29       1.0  0.107269314104478  0.44932547981105847  0.7127685002973435  1.0000
  H   H30       1.0  0.8927302193893779  0.5506768606670462  0.28722969930900893  1.0000
  H   H31       1.0  0.8238741430494584  0.2682793901685514  0.07681959293115169  1.0000
  H   H32       1.0  0.1761273487699739  0.7317229503095461  0.9231782950985092  1.0000
  H   H33       1.0  0.5318519033382784  0.4897317986998857  0.6650165455158615  1.0000
  H   H34       1.0  0.4681422510847496  0.5102613196325478  0.3349948711226389  1.0000
  H   H35       1.0  0.32351310468548167  0.8345273314491594  0.0002814001965702905  1.0000
  H   H36       1.0  0.676490565862167  0.165470910297536  0.9997179864209969  1.0000
  C   C1        1.0  0.634980858338011  0.5730272430270773  0.038383569009411644  1.0000
  C   C2        1.0  0.3650197094192933  0.42697407276817506  0.9616158395088235  1.0000
  C   C3        1.0  0.49261718573585966  0.6733457435686034  0.8504210318278568  1.0000
  C   C4        1.0  0.5073844162848927  0.3266545475437894  0.14957867344318743  1.0000
  C   C5        1.0  0.972440820524106  0.23069094912174395  0.29390248333957913  1.0000
  C   C6        1.0  0.02756089169796638  0.7693072926249516  0.7060963026955988  1.0000
  C   C7        1.0  0.5326336119205236  0.562215814259396  0.9729050736197068  1.0000
  C   C8        1.0  0.4673679901002288  0.4377844768530039  0.02709371949225666  1.0000
  C   C9        1.0  0.0323571132223961  0.3032046804839439  0.6627479267062597  1.0000
  C   C10       1.0  0.9676394276824212  0.696798684677006  0.33725119988306324  1.0000
  C   C11       1.0  0.671741568241309  0.4618973137178629  0.15489285871614553  1.0000
  C   C12       1.0  0.3282599786787799  0.5381040020773895  0.8451063940137405  1.0000
  C   C13       1.0  0.8940835245060652  0.35920667237478204  0.6633721641385293  1.0000
  C   C14       1.0  0.10591301639875175  0.640796692786175  0.3366251381326322  1.0000
  C   C15       1.0  0.6369752253122769  0.0037790303568599  0.629362643720988  1.0000
  C   C16       1.0  0.36302332901878026  0.9962233101212448  0.3706366238327875  1.0000
  C   C17       1.0  0.3919842537571938  0.6624287724672017  0.7876243485026392  1.0000
  C   C18       1.0  0.6080163691007668  0.3375715186451913  0.21237642471582777  1.0000
  C   C19       1.0  0.7264063279279966  0.5234428398360791  0.6869527995122696  1.0000
  C   C20       1.0  0.27359135744158886  0.4765574512763138  0.3130457045939963  1.0000
  C   C21       1.0  0.5315455452035776  0.9010722852005487  0.6801852986248137  1.0000
  C   C22       1.0  0.4684540984915912  0.0989280059118514  0.31981563038199573  1.0000
  C   C23       1.0  0.8572047324755728  0.47562806392987517  0.6861550366461415  1.0000
  C   C24       1.0  0.14279480101827596  0.5243742765482226  0.3138395143238881  1.0000
  C   C25       1.0  0.04420728283488979  0.0298438880540957  0.0211198507870094  1.0000
  C   C26       1.0  0.9557953534493107  0.970155378375452  0.9788810633959174  1.0000
  C   C27       1.0  0.25910677107373187  0.3079930234496757  0.6838980116729516  1.0000
  C   C28       1.0  0.7408908591951968  0.6920082923455766  0.3161018642103244  1.0000
  C   C29       1.0  0.18519636532487027  0.142513915689328  0.6289367712637031  1.0000
  C   C30       1.0  0.814800285781267  0.8574874001059243  0.3710632604079153  1.0000
  C   C31       1.0  0.6790925733049703  0.34165487980899206  0.6396209476473018  1.0000
  C   C32       1.0  0.32090533246724817  0.6583413125719987  0.36038301525988453  1.0000
  C   C33       1.0  0.1773294667097147  0.9797904712294496  0.028878098523406864  1.0000
  C   C34       1.0  0.8226732797757987  0.0202067458343933  0.9711246329008958  1.0000
  C   C35       1.0  0.9935645854929687  0.1395310639081941  0.055577577603344364  1.0000
  C   C36       1.0  0.006440064217478904  0.8604671778385011  0.9444216532258735  1.0000
  C   C37       1.0  0.041406316863003695  0.288532246731272  0.14634471932678386  1.0000
  C   C38       1.0  0.9585952851577486  0.711468044381121  0.8536549859442603  1.0000
  C   C39       1.0  0.28800301783534366  0.19764287779056391  0.651226328502041  1.0000
  C   C40       1.0  0.7119957568983536  0.8023553639561315  0.34877383705725856  1.0000
  C   C41       1.0  0.1304929798513967  0.3614507278198786  0.690010818850972  1.0000
  C   C42       1.0  0.8695066087431085  0.6385505879753737  0.3099878332965319  1.0000
  C   C43       1.0  0.8631945838240114  0.18620741716623  0.0488273551935592  1.0000
  C   C44       1.0  0.1368100658864293  0.8137908245804654  0.9511718756356655  1.0000
  C   C45       1.0  0.6350327978824595  0.4550134943205251  0.6643030973301266  1.0000
  C   C46       1.0  0.3649630944635192  0.5449837227433179  0.3357007246126074  1.0000
  C   C47       1.0  0.2215616954831887  0.8739499548004163  0.9942874981164567  1.0000
  C   C48       1.0  0.7784419750644601  0.1260482869462791  0.005713712819272066  1.0000
  N   N1        1.0  0.06098977076894129  0.19416920292349  0.634361678830146  1.0000
  N   N2        1.0  0.9390068803371887  0.8058321128717552  0.3656383528414794  1.0000
  N   N3        1.0  0.8052246906630742  0.2949979955251365  0.6395396324650662  1.0000
  N   N4        1.0  0.19477299470651124  0.7050022955872564  0.36046069595936103  1.0000
  O   O1        1.0  0.959846803929885  0.1019897582725591  0.36584915522299605  1.0000
  O   O2        1.0  0.040149957377565194  0.8980095081569887  0.6341453964173597  1.0000
  O   O3        1.0  0.9333151365858325  0.3176629555206247  0.34036833227624913  1.0000
  O   O4        1.0  0.06668956822526441  0.6823342615432182  0.6596331754122815  1.0000
  O   O5        1.0  0.5641866641332669  0.7856315151344759  0.8023902689141168  1.0000
  O   O6        1.0  0.4358138485233738  0.21437082534362872  0.19760868706297427  1.0000
  O   O7        1.0  0.7500174239356595  0.9556612394389603  0.6675378667921095  1.0000
  O   O8        1.0  0.2499811854960611  0.0443400763562849  0.3324627654618979  1.0000
  O   O9        1.0  0.0846484542908215  0.1917263590051732  0.09355988339809332  1.0000
  O   O10       1.0  0.9153540717920591  0.8082749567900721  0.9064373892252962  1.0000
  O   O11       1.0  0.6070639496251075  0.1264499626241218  0.5505558332521261  1.0000
  O   O12       1.0  0.39293465980661313  0.8735513531711235  0.44944297468371985  1.0000
