data_image0
_chemical_formula_structural       Zn4H18C27N2O17
_chemical_formula_sum              "Zn4 H18 C27 N2 O17"
_cell_length_a       10.831984896081194
_cell_length_b       10.919732576598461
_cell_length_c       19.494022902883216
_cell_angle_alpha    97.54665872598038
_cell_angle_beta     92.05652057533084
_cell_angle_gamma    98.09814117844002

_space_group_name_H-M_alt    "P 1"
_space_group_IT_number       1

loop_
  _space_group_symop_operation_xyz
  'x, y, z'

loop_
  _atom_site_type_symbol
  _atom_site_label
  _atom_site_symmetry_multiplicity
  _atom_site_fract_x
  _atom_site_fract_y
  _atom_site_fract_z
  _atom_site_occupancy
  Zn  Zn1       1.0  0.40263840533248907  0.5847145925230209  0.44404991291689555  1.0000
  Zn  Zn2       1.0  0.398845749340289  0.38354546873404155  0.5508184758016199  1.0000
  Zn  Zn3       1.0  0.6157636148522556  0.623852468972494  0.5655184620543281  1.0000
  Zn  Zn4       1.0  0.6010557042518981  0.4006811729410558  0.4372408520238764  1.0000
  H   H1        1.0  0.3015087554478768  0.5179470841533274  0.2310164626053677  1.0000
  H   H2        1.0  0.4466977174058471  0.31110759314861264  0.7513331107573222  1.0000
  H   H3        1.0  0.6538931773476334  0.5346533265684101  0.00866641993108169  1.0000
  H   H4        1.0  0.6567272737882844  0.3950947905760316  0.0978681533299621  1.0000
  H   H5        1.0  0.6674521137978573  0.4100555694074046  0.22693147748063316  1.0000
  H   H6        1.0  0.3810950130506611  0.4062315154922516  0.9871973930868094  1.0000
  H   H7        1.0  0.6382949337473035  0.683154273774825  0.9142327499118251  1.0000
  H   H8        1.0  0.49922430125076284  0.010059801614694702  0.5802926114832374  1.0000
  H   H9        1.0  0.5003236511048498  0.9823964888237878  0.4203085994061268  1.0000
  H   H10       1.0  0.024589080669244392  0.6466100151259937  0.5140564599546309  1.0000
  H   H11       1.0  0.9847908458900462  0.35773544172300115  0.4917458510201627  1.0000
  H   H12       1.0  0.9921006022968085  0.4904083044076727  0.0746213440469958  1.0000
  H   H13       1.0  0.05369858442379888  0.4652138020015498  0.9916299919786978  1.0000
  H   H14       1.0  0.9645050485995482  0.3395085935370332  0.025066580491873897  1.0000
  H   H15       1.0  0.1931846984935746  0.322267939571816  0.0370298727173548  1.0000
  H   H16       1.0  0.1321156119477109  0.3475488559445239  0.11923239381942348  1.0000
  H   H17       1.0  0.21070459097512637  0.5767757210699429  0.1280964481779705  1.0000
  H   H18       1.0  0.2754224945471718  0.5526765931764928  0.046725844920303  1.0000
  C   C1        1.0  0.4939383806999231  0.16496469150188633  0.4815688753556699  1.0000
  C   C2        1.0  0.5084086175024466  0.8289528037436326  0.5171278312695975  1.0000
  C   C3        1.0  0.173639010763381  0.46543219756095067  0.4980921985746675  1.0000
  C   C4        1.0  0.8361411556466152  0.5364995328233063  0.5055317118295477  1.0000
  C   C5        1.0  0.5164037778239106  0.5070070423479933  0.6846349698828149  1.0000
  C   C6        1.0  0.4915102738710502  0.47723941974505385  0.3135720807891786  1.0000
  C   C7        1.0  0.48483581795318287  0.46535052039477887  0.236485953062342  1.0000
  C   C8        1.0  0.3782930621423048  0.48989062092611146  0.2009347669757702  1.0000
  C   C9        1.0  0.3693514412621397  0.4808738640890338  0.1287806848914528  1.0000
  C   C10       1.0  0.4725994843621777  0.4484885507113815  0.09139360968594448  1.0000
  C   C11       1.0  0.5793324159072738  0.42341692291329736  0.127392153833803  1.0000
  C   C12       1.0  0.5855819815057899  0.4306395615576761  0.19908672707441608  1.0000
  C   C13       1.0  0.507389300557321  0.38487909582818264  0.8570562393326638  1.0000
  C   C14       1.0  0.4884801287773256  0.39296310476925084  0.7869431709076123  1.0000
  C   C15       1.0  0.5799794403903179  0.6079592186951714  0.809144584502917  1.0000
  C   C16       1.0  0.5984057960585856  0.5998789080015142  0.879080748413415  1.0000
  C   C17       1.0  0.5602014439637911  0.48765466724672996  0.905481901854479  1.0000
  C   C18       1.0  0.4699592981111778  0.44342042323275876  0.0159557849860121  1.0000
  C   C19       1.0  0.5675831501382547  0.48703010036958005  0.9806197041753391  1.0000
  C   C20       1.0  0.5260145742098885  0.505196810579548  0.761419128661771  1.0000
  C   C21       1.0  0.49818884364123756  0.9641622272341903  0.5270465120389858  1.0000
  C   C22       1.0  0.49499107934931885  0.0282576883577264  0.47308050694367404  1.0000
  C   C23       1.0  0.9744372691086696  0.5515616733873756  0.505113551038562  1.0000
  C   C24       1.0  0.035406853614567496  0.4524862830471434  0.49693381445464985  1.0000
  C   C25       1.0  0.2523157470732471  0.5081733366129058  0.0930785483994754  1.0000
  C   C26       1.0  0.1536656313636868  0.39175605253266343  0.07259265521169309  1.0000
  C   C27       1.0  0.03438564065240259  0.4231959761233028  0.039126760555348  1.0000
  N   N1        1.0  0.6098345100160002  0.7335501626239491  0.787836980903009  1.0000
  N   N2        1.0  0.4754230397641237  0.2597053071020809  0.8785381906752862  1.0000
  O   O1        1.0  0.5050577765775657  0.4986253113712209  0.5013137541362125  1.0000
  O   O2        1.0  0.5418711061542395  0.2208811596609124  0.4330370720732688  1.0000
  O   O3        1.0  0.4638293750612519  0.7648434477015873  0.45981589859227506  1.0000
  O   O4        1.0  0.2223404882750231  0.3778412254042678  0.5213086708136743  1.0000
  O   O5        1.0  0.789753129576539  0.6267875510650069  0.5385515208622991  1.0000
  O   O6        1.0  0.4240209220741704  0.43566949958390916  0.6518838279022106  1.0000
  O   O7        1.0  0.5856962149864344  0.4419665172520126  0.34266703991207237  1.0000
  O   O8        1.0  0.6038679138142201  0.57521853937741  0.6597545264715947  1.0000
  O   O9        1.0  0.40284039833287716  0.5223872994178933  0.3451488307275383  1.0000
  O   O10       1.0  0.2312862311552877  0.5610668097584509  0.47567338860774555  1.0000
  O   O11       1.0  0.776041893518851  0.435530969025649  0.47276934580504093  1.0000
  O   O12       1.0  0.4464887175437509  0.21496754286034292  0.5353709884297402  1.0000
  O   O13       1.0  0.5619820526227529  0.7888156639561289  0.5673935224169284  1.0000
  O   O14       1.0  0.5268793316186021  0.7701021243052966  0.7540676328333404  1.0000
  O   O15       1.0  0.713120616740177  0.7935962712995773  0.807832032427413  1.0000
  O   O16       1.0  0.371776382665601  0.20058120233882454  0.8577849136644815  1.0000
  O   O17       1.0  0.5554729788586102  0.2221961618254795  0.9140059697842843  1.0000
