data_image0
_chemical_formula_structural       Cd2H12C12I4N4O2
_chemical_formula_sum              "Cd2 H12 C12 I4 N4 O2"
_cell_length_a       7.881745525902984
_cell_length_b       8.031274961407915
_cell_length_c       9.085756577513672
_cell_angle_alpha    105.99372865411347
_cell_angle_beta     97.63250038286535
_cell_angle_gamma    102.13660804888744

_space_group_name_H-M_alt    "P 1"
_space_group_IT_number       1

loop_
  _space_group_symop_operation_xyz
  'x, y, z'

loop_
  _atom_site_type_symbol
  _atom_site_label
  _atom_site_symmetry_multiplicity
  _atom_site_fract_x
  _atom_site_fract_y
  _atom_site_fract_z
  _atom_site_occupancy
  Cd  Cd1       1.0  0.2096946059127234  0.42987902087634217  0.4181349655426701  1.0000
  Cd  Cd2       1.0  0.7903053905740408  0.5701213022038373  0.5818640304812419  1.0000
  H   H1        1.0  0.19779412858878942  0.020909416583101897  0.8353139490622115  1.0000
  H   H2        1.0  0.8022032959043913  0.9790908588104655  0.16468473580951584  1.0000
  H   H3        1.0  0.3172089156590161  0.786606903158649  0.9047837231462525  1.0000
  H   H4        1.0  0.6827923719079722  0.21339345724865671  0.09521433175622465  1.0000
  H   H5        1.0  0.3890145471367887  0.8059819450743788  0.19033273878409332  1.0000
  H   H6        1.0  0.6109880213435518  0.19401842569240563  0.809666568392011  1.0000
  H   H7        1.0  0.34008457919357943  0.0665769992170979  0.3907726442586537  1.0000
  H   H8        1.0  0.6599150967793366  0.9334219830860704  0.6092259772447408  1.0000
  H   H9        1.0  0.14389246520917  0.24926874247132966  0.8145467202704284  1.0000
  H   H10       1.0  0.8561072056803029  0.7507302263480256  0.1854529979304971  1.0000
  H   H11       1.0  0.03334985670100108  0.4151584551432633  0.8771241429726474  1.0000
  H   H12       1.0  0.9666504501327323  0.5848431817462867  0.12287742096685858  1.0000
  C   C1        1.0  0.20393285490532526  0.16850614792362956  0.07676064016034452  1.0000
  C   C2        1.0  0.796065209473511  0.8314914562754154  0.9232385479439672  1.0000
  C   C3        1.0  0.23111114393404367  0.030339447701116698  0.9581154122885709  1.0000
  C   C4        1.0  0.7688875614724823  0.9696608380519436  0.04188452485679044  1.0000
  C   C5        1.0  0.2981246032456184  0.8970044254106923  0.9970352466839503  1.0000
  C   C6        1.0  0.7018737816470662  0.10299451956535681  0.0029643159408863063  1.0000
  C   C7        1.0  0.3372884690439903  0.9070250619080367  0.15359547689550376  1.0000
  C   C8        1.0  0.6627115325262026  0.09297527465595581  0.8464024224308774  1.0000
  C   C9        1.0  0.30943190225128353  0.0511499489156861  0.2661926143685349  1.0000
  C   C10       1.0  0.690567448124341  0.9488476791266649  0.7338067293118727  1.0000
  C   C11       1.0  0.12232728682224092  0.31182426284542697  0.04590666557773206  1.0000
  C   C12       1.0  0.8776752664077849  0.688176067469904  0.9540959316909794  1.0000
  I   I1        1.0  0.1317254176397853  0.7717638783222895  0.52564365994742  1.0000
  I   I2        1.0  0.8682745737635358  0.2282364312740768  0.47435643277403033  1.0000
  I   I3        1.0  0.4293857913727308  0.40211815571154125  0.6834559686252533  1.0000
  I   I4        1.0  0.5706122730061055  0.5978794484875036  0.3165432194790583  1.0000
  N   N1        1.0  0.24333276906926932  0.17767461076153515  0.22823376135768572  1.0000
  N   N2        1.0  0.7566656107399724  0.8223243207307008  0.7717668979646819  1.0000
  N   N3        1.0  0.09388056190787351  0.3205304395461964  0.9011786982456231  1.0000
  N   N4        1.0  0.9061216860586189  0.6794685904435767  0.09882023440996338  1.0000
  O   O1        1.0  0.0767265139767375  0.4167714711272694  0.15606889314643277  1.0000
  O   O2        1.0  0.9232750788537842  0.5832301896055794  0.8439328263691693  1.0000
