data_image0
_chemical_formula_structural       Zn4H40C60N8O26
_chemical_formula_sum              "Zn4 H40 C60 N8 O26"
_cell_length_a       10.959254959214729
_cell_length_b       11.699238133339948
_cell_length_c       12.202931508278317
_cell_angle_alpha    77.05402094738365
_cell_angle_beta     88.10101060430695
_cell_angle_gamma    74.72993334521126

_space_group_name_H-M_alt    "P 1"
_space_group_IT_number       1

loop_
  _space_group_symop_operation_xyz
  'x, y, z'

loop_
  _atom_site_type_symbol
  _atom_site_label
  _atom_site_symmetry_multiplicity
  _atom_site_fract_x
  _atom_site_fract_y
  _atom_site_fract_z
  _atom_site_occupancy
  Zn  Zn1       1.0  0.4974028809302027  0.24381604902039564  0.018782419652559675  1.0000
  Zn  Zn2       1.0  0.502598543616024  0.7561860376828516  0.9812174097118956  1.0000
  Zn  Zn3       1.0  0.5479504055810908  0.4471966078277632  0.1310347227147943  1.0000
  Zn  Zn4       1.0  0.45204854857287546  0.5528045628595565  0.8689645165883277  1.0000
  H   H1        1.0  0.0720934822080394  0.7345287154229325  0.030917372333234956  1.0000
  H   H2        1.0  0.9279074159458529  0.26546884754466765  0.9690817058134229  1.0000
  H   H3        1.0  0.6509636173953123  0.3694649270923946  0.9645431927133288  1.0000
  H   H4        1.0  0.3490362510205144  0.6305362709102696  0.03545520235277163  1.0000
  H   H5        1.0  0.2940632462707171  0.27241172334770175  0.8551403606983712  1.0000
  H   H6        1.0  0.7059373869692676  0.7275867110342349  0.14486019344941775  1.0000
  H   H7        1.0  0.26194405942115395  0.17889364886485742  0.6966041089237008  1.0000
  H   H8        1.0  0.7380570849481668  0.821102949327333  0.3033976101500002  1.0000
  H   H9        1.0  0.639735228206284  0.9409560443362464  0.7733658897847349  1.0000
  H   H10       1.0  0.3602690396429438  0.059042387273756006  0.2266362277287755  1.0000
  H   H11       1.0  0.6563699580952685  0.04674628135541071  0.9244902090036788  1.0000
  H   H12       1.0  0.34362898857930435  0.9532548519874812  0.07551067707070287  1.0000
  H   H13       1.0  0.3405390221103631  0.029126790970622103  0.5836187087681495  1.0000
  H   H14       1.0  0.6594634209548501  0.9708716046809159  0.4163842738337633  1.0000
  H   H15       1.0  0.5854169504149523  0.8342229665442604  0.6778365931737155  1.0000
  H   H16       1.0  0.41458342539051063  0.16577637659644037  0.3221637902039305  1.0000
  H   H17       1.0  0.3938935791992859  0.8592117462397014  0.48737513116894604  1.0000
  H   H18       1.0  0.6061060205629331  0.14079030450508165  0.5126255632839118  1.0000
  H   H19       1.0  0.6417781418778146  0.6711859753972221  0.5851934003350008  1.0000
  H   H20       1.0  0.35822081601585143  0.32881521396231517  0.4148050155824876  1.0000
  H   H21       1.0  0.3583677526903485  0.7494040641344172  0.3770573837362435  1.0000
  H   H22       1.0  0.6416300372466351  0.25059802534075715  0.6229408822624904  1.0000
  H   H23       1.0  0.3595170659753462  0.6351010499837103  0.23058817574990093  1.0000
  H   H24       1.0  0.6404828024404734  0.364900148018954  0.7694102193162067  1.0000
  H   H25       1.0  0.7084104835698141  0.3995235276125798  0.34146920715880913  1.0000
  H   H26       1.0  0.29158846310475883  0.6004776057303118  0.6585316789155726  1.0000
  H   H27       1.0  0.7265174354797493  0.5086827662720664  0.4913613591261807  1.0000
  H   H28       1.0  0.2734785221938266  0.491319249900215  0.5086394187322227  1.0000
  H   H29       1.0  0.84380522321517  0.9784288108863637  0.0981460257130492  1.0000
  H   H30       1.0  0.1561954365069056  0.02157603943760481  0.9018516445697244  1.0000
  H   H31       1.0  0.1885953978685037  0.9135761855983091  0.2891099603641648  1.0000
  H   H32       1.0  0.811403675501367  0.08642134141083353  0.7108899828708956  1.0000
  H   H33       1.0  0.8613646069271182  0.1984680726991428  0.3332208079071393  1.0000
  H   H34       1.0  0.13863497009270276  0.8015275807758188  0.6667819470250933  1.0000
  H   H35       1.0  0.22551288459558086  0.4881170311299171  0.290352593391539  1.0000
  H   H36       1.0  0.774487786345574  0.5118878752106965  0.7096426067343343  1.0000
  H   H37       1.0  0.8231135948877364  0.5529920680928485  0.24636736335029497  1.0000
  H   H38       1.0  0.1768862660486902  0.44700909256538074  0.7536326784870653  1.0000
  H   H39       1.0  0.07958668596883456  0.32345527413581016  0.06028289587099066  1.0000
  H   H40       1.0  0.9204147460567849  0.6765468499118655  0.9397152867222047  1.0000
  C   C1        1.0  0.3673700737509191  0.19868891004289682  0.8329369429757562  1.0000
  C   C2        1.0  0.6326309514024899  0.8013113318274776  0.16706407216599928  1.0000
  C   C3        1.0  0.3504424334565001  0.14581055604082147  0.7458004101542457  1.0000
  C   C4        1.0  0.6495588528711239  0.8541887957430062  0.2541999523720193  1.0000
  C   C5        1.0  0.44688172438236506  0.0484979452865701  0.7223784402630784  1.0000
  C   C6        1.0  0.5531208606411439  0.9515032039565982  0.27762318579139833  1.0000
  C   C7        1.0  0.5599967245724143  0.0136545464093132  0.7876405164279916  1.0000
  C   C8        1.0  0.44000586419080157  0.9863466215060727  0.21236028624085168  1.0000
  C   C9        1.0  0.5704600476833973  0.07146862347048712  0.8725512985940823  1.0000
  C   C10       1.0  0.4295409812097119  0.9285316370721048  0.1274488931620326  1.0000
  C   C11       1.0  0.4258278955140822  0.987107326620354  0.6369836722958266  1.0000
  C   C12       1.0  0.5741761149006307  0.012892013748413002  0.3630182744475405  1.0000
  C   C13       1.0  0.5015469098583764  0.8789182794156574  0.6234208789539294  1.0000
  C   C14       1.0  0.4984548913382765  0.12107925485064192  0.37657982511260707  1.0000
  C   C15       1.0  0.47838537937396086  0.816620509869594  0.5415444023658935  1.0000
  C   C16       1.0  0.5216131716474876  0.18337879731264203  0.45845684610014803  1.0000
  C   C17       1.0  0.5580931247161939  0.7094758389701497  0.529434495786063  1.0000
  C   C18       1.0  0.44190594865367666  0.290521688038993  0.47056544744900447  1.0000
  C   C19       1.0  0.545297052081466  0.642194853720703  0.4464550241343801  1.0000
  C   C20       1.0  0.4547003384627003  0.35780539092160524  0.5535444276416469  1.0000
  C   C21       1.0  0.4395632234275196  0.6735992316790347  0.37252869085890683  1.0000
  C   C22       1.0  0.5604357344661464  0.3264019576805026  0.6274697250585745  1.0000
  C   C23       1.0  0.4386708276172512  0.6087052525549269  0.29065461503596157  1.0000
  C   C24       1.0  0.5613287796243541  0.39129683553428424  0.7093444326456292  1.0000
  C   C25       1.0  0.6341852248202358  0.47867117420106103  0.3522580396257949  1.0000
  C   C26       1.0  0.36581190454971574  0.5213299605277939  0.6477420647657296  1.0000
  C   C27       1.0  0.6428220877373005  0.5393757064164506  0.43595916356352393  1.0000
  C   C28       1.0  0.35717438854501177  0.4606245109105204  0.5640411324495247  1.0000
  C   C29       1.0  0.8391088710288627  0.096411502639036  0.21141324343106757  1.0000
  C   C30       1.0  0.1608915047766002  0.9035878405016649  0.7885871399465784  1.0000
  C   C31       1.0  0.8970157387551296  7.462278401960333e-05  0.16083113178869718  1.0000
  C   C32       1.0  0.10298165178903654  0.999925621858296  0.8391683199873297  1.0000
  C   C33       1.0  0.02278313939836337  0.9342421572419469  0.188313113396667  1.0000
  C   C34       1.0  0.977216329624639  0.06575719592784421  0.8116864674467267  1.0000
  C   C35       1.0  0.09057156730093381  0.9635356902797698  0.26825181134862663  1.0000
  C   C36       1.0  0.9094255430663197  0.0364590658514956  0.7317495301366462  1.0000
  C   C37       1.0  0.030013701875212476  0.056740936904049015  0.3203342433128995  1.0000
  C   C38       1.0  0.969985229536355  0.9432538365134565  0.6796670564696043  1.0000
  C   C39       1.0  0.90558758364876  0.12425411738319532  0.2930501995119242  1.0000
  C   C40       1.0  0.09441240024327154  0.8757434182690673  0.706949722871748  1.0000
  C   C41       1.0  0.708108150772837  0.1744738524294007  0.1747384697137306  1.0000
  C   C42       1.0  0.2918923669909289  0.8255282443029301  0.8252605571164793  1.0000
  C   C43       1.0  0.0912146155485728  0.834600407907871  0.13256230276029868  1.0000
  C   C44       1.0  0.9087836967368401  0.16539990139420982  0.867434658007447  1.0000
  C   C45       1.0  0.16562037400928625  0.39737708893643037  0.1746969865037683  1.0000
  C   C46       1.0  0.8343778190602151  0.6026268640438276  0.8252992703320386  1.0000
  C   C47       1.0  0.14555143102603546  0.4706978746605728  0.2530393195250936  1.0000
  C   C48       1.0  0.8544490942171236  0.5293042594161933  0.746958060533849  1.0000
  C   C49       1.0  0.022513307784471623  0.523236942887472  0.2793168749152741  1.0000
  C   C50       1.0  0.9774885236339725  0.4767670259930696  0.7206801219006209  1.0000
  C   C51       1.0  0.9187850815323129  0.5088282400879082  0.22655641230898738  1.0000
  C   C52       1.0  0.08121583188457744  0.4911756828050784  0.7734422521295556  1.0000
  C   C53       1.0  0.9384320535366865  0.43766843389802557  0.1462023238048218  1.0000
  C   C54       1.0  0.06157003157657918  0.5623346075515415  0.8537956671668424  1.0000
  C   C55       1.0  0.06237448940488119  0.3794339493079518  0.12244507127546457  1.0000
  C   C56       1.0  0.9376275957083847  0.6205690921416149  0.8775529196961998  1.0000
  C   C57       1.0  0.2999850513941169  0.35051252967356566  0.14277243655511276  1.0000
  C   C58       1.0  0.7000176868067879  0.6494914291778855  0.8572253627950274  1.0000
  C   C59       1.0  0.8230881809456888  0.4302780684619876  0.08618040807039049  1.0000
  C   C60       1.0  0.1769128479474204  0.5697221920806044  0.9138197836857316  1.0000
  N   N1        1.0  0.475408153871271  0.16212271012481952  0.8961071271575634  1.0000
  N   N2        1.0  0.5245919644996773  0.8378775417746456  0.10389308544994683  1.0000
  N   N3        1.0  0.5352016684531191  0.5135433123687536  0.27886477482024213  1.0000
  N   N4        1.0  0.4647952072220105  0.4864587497910835  0.7211343354155061  1.0000
  N   N5        1.0  0.09980025123243763  0.0856898793123833  0.4067895890017112  1.0000
  N   N6        1.0  0.9002007549182732  0.9143039839603941  0.5932126632337926  1.0000
  N   N7        1.0  0.0019762160783471606  0.5994828545522849  0.36275039954670507  1.0000
  N   N8        1.0  0.99802455538024  0.4005183147490713  0.637249621439274  1.0000
  O   O1        1.0  0.6494402136333477  0.1365704858269936  0.10685258066899908  1.0000
  O   O2        1.0  0.3505587405206185  0.8634306848603333  0.8931466586341229  1.0000
  O   O3        1.0  0.6679703072227594  0.2695606603260146  0.21176308295039087  1.0000
  O   O4        1.0  0.3320298111481888  0.7304395915734504  0.7882371296571122  1.0000
  O   O5        1.0  0.039322097970369896  0.1536741217747561  0.46564181117624054  1.0000
  O   O6        1.0  0.9606773408308482  0.8463187967807856  0.5343614769178018  1.0000
  O   O7        1.0  0.216356758523375  0.0398510257721014  0.4162730933709824  1.0000
  O   O8        1.0  0.7836433445845754  0.9601428662019843  0.5837275329446427  1.0000
  O   O9        1.0  0.2065225974751853  0.7910496523165023  0.14499165515792353  1.0000
  O   O10       1.0  0.7934807710709676  0.20894882666701864  0.8550080130500747  1.0000
  O   O11       1.0  0.01678483509533612  0.7999282495224451  0.06950001024203796  1.0000
  O   O12       1.0  0.983215398751824  0.2000683400266255  0.9305017296830442  1.0000
  O   O13       1.0  0.3242078357472521  0.270758362770934  0.08244597524466707  1.0000
  O   O14       1.0  0.675793185666457  0.7292418604272229  0.9175558632827218  1.0000
  O   O15       1.0  0.38033008520675066  0.3943735744512794  0.17821010731214665  1.0000
  O   O16       1.0  0.6196719961668221  0.605629448326063  0.821788707045158  1.0000
  O   O17       1.0  0.8915593502174629  0.6397972565133472  0.39023079559036217  1.0000
  O   O18       1.0  0.10844063367456863  0.3602002791389154  0.6097691267933171  1.0000
  O   O19       1.0  0.09601476414005818  0.6193977760167755  0.40107352156807236  1.0000
  O   O20       1.0  0.9039841750551214  0.38060331998168107  0.5989290112775763  1.0000
  O   O21       1.0  0.833621227439721  0.35898881078517775  0.019874750468773072  1.0000
  O   O22       1.0  0.16638136132348777  0.641012357130208  0.9801260522000704  1.0000
  O   O23       1.0  0.7187883227921361  0.5001750949021754  0.10692250234993846  1.0000
  O   O24       1.0  0.28121296353548786  0.4998242568816524  0.8930778601763193  1.0000
  O   O25       1.0  0.5589701331560946  0.39072418248647983  0.9756508378078834  1.0000
  O   O26       1.0  0.4410299852148467  0.6092760694129853  0.024349374799626757  1.0000
