data_image0
_chemical_formula_structural       Cd6H12C20N8O20
_chemical_formula_sum              "Cd6 H12 C20 N8 O20"
_cell_length_a       7.644733742287715
_cell_length_b       9.867780137037851
_cell_length_c       9.842881527006297
_cell_angle_alpha    90.00013011916407
_cell_angle_beta     89.99994561509484
_cell_angle_gamma    106.04180929463207

_space_group_name_H-M_alt    "P 1"
_space_group_IT_number       1

loop_
  _space_group_symop_operation_xyz
  'x, y, z'

loop_
  _atom_site_type_symbol
  _atom_site_label
  _atom_site_symmetry_multiplicity
  _atom_site_fract_x
  _atom_site_fract_y
  _atom_site_fract_z
  _atom_site_occupancy
  Cd  Cd1       1.0  0.0  0.0  0.0  1.0000
  Cd  Cd2       1.0  0.50000042016854  4.303259971012703e-07  0.4999997296018747  1.0000
  Cd  Cd3       1.0  0.9444706895568445  0.27595744024736035  0.4917167327728222  1.0000
  Cd  Cd4       1.0  0.5555292887182902  0.7240426810188154  0.9917183376330031  1.0000
  Cd  Cd5       1.0  0.05552923338740367  0.7240433229546923  0.5082838790407962  1.0000
  Cd  Cd6       1.0  0.444470266091365  0.2759570277422867  0.0082812582168899  1.0000
  H   H1        1.0  0.32133154896581567  0.9542962891436343  0.9594964219380699  1.0000
  H   H2        1.0  0.178670023479647  0.045703990872866  0.4594985551613036  1.0000
  H   H3        1.0  0.6786693162041217  0.0457034260503661  0.04050317391132551  1.0000
  H   H4        1.0  0.8213295313300082  0.9542957178882362  0.5405010406885894  1.0000
  H   H5        1.0  0.3335363495262698  0.053306773075753704  0.8231643666985065  1.0000
  H   H6        1.0  0.16646323056060908  0.9466910982759554  0.3231645224612976  1.0000
  H   H7        1.0  0.6664632052833852  0.9466929356853484  0.1768352291513935  1.0000
  H   H8        1.0  0.8335363242490458  0.0533086104851392  0.6768350733885953  1.0000
  H   H9        1.0  0.18968781916628796  0.5075064670480033  0.0163392231395605  1.0000
  H   H10       1.0  0.3103146659604831  0.4924949682913321  0.5163400977101844  1.0000
  H   H11       1.0  0.8103134141384489  0.4924943025858539  0.9836603727109078  1.0000
  H   H12       1.0  0.6896861992094472  0.5075047469026686  0.48365949813921116  1.0000
  C   C1        1.0  0.06915973404540673  0.2538715571017677  0.196742449081647  1.0000
  C   C2        1.0  0.430840264502109  0.7461270966639261  0.6967427994058681  1.0000
  C   C3        1.0  0.9308381422689679  0.7461270907876737  0.803258162730323  1.0000
  C   C4        1.0  0.5691579799468585  0.2538726056664657  0.30325882836982737  1.0000
  C   C5        1.0  0.09859981531497652  0.40632046360363455  0.2161088934765516  1.0000
  C   C6        1.0  0.4013992332975461  0.5936792798411543  0.7161099310445779  1.0000
  C   C7        1.0  0.901398429134396  0.5936792387245687  0.7838907023738386  1.0000
  C   C8        1.0  0.5986003215119097  0.4063204289210347  0.28389068076796065  1.0000
  C   C9        1.0  0.15464451307393287  0.5154229731105389  0.12209384590747159  1.0000
  C   C10       1.0  0.34535981440554764  0.4845765937682459  0.6220926432710883  1.0000
  C   C11       1.0  0.8453572943212818  0.48457569407759143  0.877906765902999  1.0000
  C   C12       1.0  0.6546423611248713  0.5154231278575594  0.37790593661515715  1.0000
  C   C13       1.0  0.14589128098332796  0.6359633512646212  0.19305389950986301  1.0000
  C   C14       1.0  0.35411301824852603  0.3640363683008728  0.6930524122501254  1.0000
  C   C15       1.0  0.8541118367721694  0.3640353223564077  0.8069467123001175  1.0000
  C   C16       1.0  0.6458878469214113  0.6359633468931208  0.3069471835992701  1.0000
  C   C17       1.0  0.18186208479682622  0.7780052750741433  0.13227103593089848  1.0000
  C   C18       1.0  0.31813699719013044  0.22199428797210166  0.6322702649428251  1.0000
  C   C19       1.0  0.8181374700128285  0.22199443368695881  0.8677285599189943  1.0000
  C   C20       1.0  0.6818608791242443  0.7780043599173397  0.3677303468691377  1.0000
  N   N1        1.0  0.06087293847490119  0.4591143807074117  0.3367088152476327  1.0000
  N   N2        1.0  0.4391286828501464  0.5408856351006293  0.836708686051324  1.0000
  N   N3        1.0  0.9391266163347538  0.5408853280536904  0.6632907806022601  1.0000
  N   N4        1.0  0.5608721823199903  0.45911408009227733  0.1632898938354188  1.0000
  N   N5        1.0  0.08813506127342666  0.5991314947999768  0.32292540084599614  1.0000
  N   N6        1.0  0.4118699225289291  0.40087061309394295  0.8229239539457965  1.0000
  N   N7        1.0  0.9118678505261785  0.40087033570772224  0.6770752109677005  1.0000
  N   N8        1.0  0.5881313107760063  0.5991301565388198  0.1770746259420193  1.0000
  O   O1        1.0  0.9859900207147588  0.1671493634843344  0.2852699329753321  1.0000
  O   O2        1.0  0.5140122923283742  0.8328492719887989  0.7852708047213639  1.0000
  O   O3        1.0  0.014008223734620719  0.8328503388438692  0.7147296628750582  1.0000
  O   O4        1.0  0.48598763061588096  0.1671514912132537  0.2147298070922545  1.0000
  O   O5        1.0  0.12833058738846861  0.21704293690378051  0.0832654515815321  1.0000
  O   O6        1.0  0.3716679400150298  0.7829586231470245  0.5832689803352622  1.0000
  O   O7        1.0  0.8716680251957102  0.7829578198642866  0.916734144269931  1.0000
  O   O8        1.0  0.6283332932893017  0.217042146489014  0.4167326474405044  1.0000
  O   O9        1.0  0.09633331593057184  0.8643981522339883  0.1741227338980451  1.0000
  O   O10       1.0  0.40366538126136225  0.13560044642574806  0.6741216977845355  1.0000
  O   O11       1.0  0.9036645603840014  0.13560049565435858  0.8258768619512793  1.0000
  O   O12       1.0  0.5963321269184121  0.8643971470227356  0.3258778980637089  1.0000
  O   O13       1.0  0.2931275463673515  0.8039251065720379  0.0320432595833822  1.0000
  O   O14       1.0  0.20687288587862437  0.1960742472427199  0.5320414987021564  1.0000
  O   O15       1.0  0.70687331880238  0.19607460862305004  0.9679573522286588  1.0000
  O   O16       1.0  0.7931270370658225  0.8039265159582384  0.46795809714880937  1.0000
  O   O17       1.0  0.30183247300321636  0.0448754392701787  0.9217137622219199  1.0000
  O   O18       1.0  0.1981661256275515  0.9551236921414696  0.4217149289314719  1.0000
  O   O19       1.0  0.6981661395809555  0.9551253174978882  0.07828583362954332  1.0000
  O   O20       1.0  0.8018334291821035  0.0448760166196251  0.5782846669184281  1.0000
