data_image0
_chemical_formula_structural       CoH18C18N4O6
_chemical_formula_sum              "Co1 H18 C18 N4 O6"
_cell_length_a       7.0334496727858555
_cell_length_b       8.419309129455876
_cell_length_c       8.634693044953364
_cell_angle_alpha    97.63890487347481
_cell_angle_beta     113.88155765562446
_cell_angle_gamma    104.95786174293104

_space_group_name_H-M_alt    "P 1"
_space_group_IT_number       1

loop_
  _space_group_symop_operation_xyz
  'x, y, z'

loop_
  _atom_site_type_symbol
  _atom_site_label
  _atom_site_symmetry_multiplicity
  _atom_site_fract_x
  _atom_site_fract_y
  _atom_site_fract_z
  _atom_site_occupancy
  Co  Co1       1.0  0.5000003311142152  0.4999988194573246  0.4999991951285381  1.0000
  H   H1        1.0  0.8053626488189778  0.6325849307160142  0.15748918602957235  1.0000
  H   H2        1.0  0.1946323197097968  0.3674138562047629  0.8425109994012414  1.0000
  H   H3        1.0  0.6635735326041683  0.736350870722461  0.8766707018098285  1.0000
  H   H4        1.0  0.33642042295103647  0.26364915629863367  0.12333049174615955  1.0000
  H   H5        1.0  0.5777835877846442  0.15251072399674823  0.5722506280868842  1.0000
  H   H6        1.0  0.4222161396446112  0.847491947333026  0.4277504982351489  1.0000
  H   H7        1.0  0.6725285814178293  0.9473358391268079  0.7481782249622809  1.0000
  H   H8        1.0  0.3274684912324944  0.052664259908155486  0.2518216721579876  1.0000
  H   H9        1.0  0.8188788079455093  0.0318624379838184  0.07349444270285224  1.0000
  H   H10       1.0  0.1811203637429629  0.9681389890919689  0.926504008501844  1.0000
  H   H11       1.0  0.8692020791493321  0.32072024782947745  0.22961120102011995  1.0000
  H   H12       1.0  0.1307981156795108  0.6792799072927308  0.7703885572694347  1.0000
  H   H13       1.0  0.09069985080570596  0.9635527651496788  0.36865697101987394  1.0000
  H   H14       1.0  0.9093049618249934  0.0364436419719922  0.631343745096373  1.0000
  H   H15       1.0  0.220863992118808  0.523925531081204  0.5958482504077764  1.0000
  H   H16       1.0  0.7791376932499787  0.4760708358798595  0.40415144693415767  1.0000
  H   H17       1.0  0.16635615478998741  0.6581689744144937  0.4896477020946719  1.0000
  H   H18       1.0  0.8336377225908225  0.3418272602917937  0.5103517635215269  1.0000
  C   C1        1.0  0.6821731376835487  0.6131805404550691  0.8816914197593916  1.0000
  C   C2        1.0  0.31782603400493065  0.38682088662071823  0.11830703144530473  1.0000
  C   C3        1.0  0.64119142394582  0.18850852302594492  0.7142163811989377  1.0000
  C   C4        1.0  0.3588098620309951  0.81149418431076  0.2857840969052389  1.0000
  C   C5        1.0  0.6952126786744515  0.07542656368474347  0.8145359998031195  1.0000
  C   C6        1.0  0.3047870385880104  0.9245761394982921  0.18546281130888082  1.0000
  C   C7        1.0  0.7770242432867105  0.12291250406860847  0.9984009968773149  1.0000
  C   C8        1.0  0.2229749334851548  0.8770889070805481  0.0015986119323941226  1.0000
  C   C9        1.0  0.8073188583263048  0.28467404033532523  0.08809298517415703  1.0000
  C   C10       1.0  0.19268031844556086  0.7153273708138314  0.9119066236355522  1.0000
  C   C11       1.0  0.7509093552680283  0.3972542530024937  0.9872780713892693  1.0000
  C   C12       1.0  0.2490913800513965  0.6027471941535935  0.012720889202583421  1.0000
  C   C13       1.0  0.6688081248142482  0.3513079949528758  0.8022407083936614  1.0000
  C   C14       1.0  0.3311952652841086  0.6486960244980153  0.19775948139996297  1.0000
  C   C15       1.0  0.16030823820388918  0.22588605698017963  0.5069077526194761  1.0000
  C   C16       1.0  0.8396981329743696  0.774110386148429  0.4930923152789078  1.0000
  C   C17       1.0  0.05987823586009  0.038795612263037085  0.4629079265655135  1.0000
  C   C18       1.0  0.9401282134925636  0.9612046231803856  0.5370938692726596  1.0000
  N   N1        1.0  0.7576195565435669  0.5635320288369668  0.03180873405607097  1.0000
  N   N2        1.0  0.24237908990450313  0.436468058425035  0.9681939876613795  1.0000
  N   N3        1.0  0.6276292529192065  0.49033745147905705  0.7408166083137218  1.0000
  N   N4        1.0  0.3723714824002187  0.5096639956770304  0.2591823522781311  1.0000
  O   O1        1.0  0.28376280319233865  0.27801511225535336  0.43439858262843956  1.0000
  O   O2        1.0  0.7162405239818029  0.7219850671008313  0.5656033520404405  1.0000
  O   O3        1.0  0.12307589378432483  0.3236468726763349  0.6101444891819128  1.0000
  O   O4        1.0  0.8769300932521348  0.6763558630480091  0.3898598322937588  1.0000
  O   O5        1.0  0.29077980776226303  0.6326085503330532  0.5743211673952685  1.0000
  O   O6        1.0  0.709219295918608  0.36738905257465854  0.4256778710796709  1.0000
