data_image0
_chemical_formula_structural       Cr4Cu2H32C24N16O14
_chemical_formula_sum              "Cr4 Cu2 H32 C24 N16 O14"
_cell_length_a       9.524175555373102
_cell_length_b       9.844837454489502
_cell_length_c       13.217257378146897
_cell_angle_alpha    69.26295907497243
_cell_angle_beta     80.27461428911643
_cell_angle_gamma    62.391729050422214

_space_group_name_H-M_alt    "P 1"
_space_group_IT_number       1

loop_
  _space_group_symop_operation_xyz
  'x, y, z'

loop_
  _atom_site_type_symbol
  _atom_site_label
  _atom_site_symmetry_multiplicity
  _atom_site_fract_x
  _atom_site_fract_y
  _atom_site_fract_z
  _atom_site_occupancy
  Cr  Cr1       1.0  0.24095820089377906  0.6556141712549747  0.6128596097845431  1.0000
  Cr  Cr2       1.0  0.7590405267418489  0.34438728302028215  0.38714054599947195  1.0000
  Cr  Cr3       1.0  0.2947325901306002  0.48663955677707804  0.8722237364626154  1.0000
  Cr  Cr4       1.0  0.7052645595292333  0.5133631010239699  0.12777705635194533  1.0000
  Cu  Cu1       1.0  0.4999999658303195  5.30861988999858e-07  1.3144029865281758e-06  1.0000
  Cu  Cu2       1.0  0.9999982168728819  0.49999885028673674  0.4999995182866003  1.0000
  H   H1        1.0  0.07202739507661701  0.12170920478155267  0.2877106657098594  1.0000
  H   H2        1.0  0.9279760954329103  0.8782861958052381  0.7122942721582106  1.0000
  H   H3        1.0  0.8279378917322617  0.2125831517091045  0.10666204492888912  1.0000
  H   H4        1.0  0.17206138512022295  0.7874219391443236  0.8933348136401378  1.0000
  H   H5        1.0  0.6731763656951985  0.10643089468536725  0.4147047810498279  1.0000
  H   H6        1.0  0.32682765393049346  0.8935681520697686  0.5852945897972504  1.0000
  H   H7        1.0  0.3945940430708602  0.47979842867950856  0.18830419822068484  1.0000
  H   H8        1.0  0.6054035818398588  0.520200613087795  0.8116952184579419  1.0000
  H   H9        1.0  0.17882747499086799  0.23411456739028583  0.0995758488247986  1.0000
  H   H10       1.0  0.8211717747972499  0.7658832484741684  0.9004282270372813  1.0000
  H   H11       1.0  0.25546166983097846  0.8262474624267429  0.378786042583627  1.0000
  H   H12       1.0  0.7445423339852155  0.1737467332701641  0.6212183919928193  1.0000
  H   H13       1.0  0.505190457187254  0.7469256810321243  0.23446107603106728  1.0000
  H   H14       1.0  0.4948114218453269  0.2530709390640738  0.7655407158575401  1.0000
  H   H15       1.0  0.5627955514531919  0.2777164404321085  0.036329763032064484  1.0000
  H   H16       1.0  0.4372052921202255  0.7222850229647763  0.9636686120701015  1.0000
  H   H17       1.0  0.013609071963656901  0.9089731224168819  0.15839102703120025  1.0000
  H   H18       1.0  0.9863907629515155  0.09103317149380531  0.8416069576925268  1.0000
  H   H19       1.0  0.8442862777680772  0.7755617700802592  0.10620282311152345  1.0000
  H   H20       1.0  0.15571355259245925  0.22444209670295132  0.8937980717778872  1.0000
  H   H21       1.0  0.9368934457760998  0.8590005096221704  0.4850027151622455  1.0000
  H   H22       1.0  0.063108971218476  0.1409973231214465  0.5149979330750583  1.0000
  H   H23       1.0  0.49408626340523637  0.032871487448311115  0.3426291357948232  1.0000
  H   H24       1.0  0.5059167028061963  0.967129981873477  0.6573682152274998  1.0000
  H   H25       1.0  0.6619870139707655  0.7015818349737589  0.3777386730974328  1.0000
  H   H26       1.0  0.33801277163375687  0.2984196238623085  0.6222605923456543  1.0000
  H   H27       1.0  0.342791485715331  0.45882962243230463  0.3890791159053251  1.0000
  H   H28       1.0  0.6572045231638126  0.5411682117169223  0.6109200649595223  1.0000
  H   H29       1.0  0.1503094781440524  0.5297204202955896  0.09751278277365569  1.0000
  H   H30       1.0  0.8496875887039864  0.47027741841445453  0.9024855077502637  1.0000
  H   H31       1.0  0.9207834608112787  0.5469131356658752  0.26042494283773004  1.0000
  H   H32       1.0  0.07921361729162867  0.4530871269749144  0.7395711941225116  1.0000
  C   C1        1.0  0.23578018125250808  0.11279464793557992  0.15501132188695274  1.0000
  C   C2        1.0  0.7642233159572454  0.8872007494545004  0.8449943725831162  1.0000
  C   C3        1.0  0.27767051978444346  0.8976333498175466  0.2998564542162612  1.0000
  C   C4        1.0  0.7223329640248436  0.10236205396596892  0.70014772704981  1.0000
  C   C5        1.0  0.4002510013525933  0.8596396445282867  0.2274887916315861  1.0000
  C   C6        1.0  0.5997519243940204  0.14035455619796985  0.7725142634797848  1.0000
  C   C7        1.0  0.6600358001279929  0.1581973387783151  0.0628153226410433  1.0000
  C   C8        1.0  0.3399619054489306  0.8418089524041862  0.9371829295605211  1.0000
  C   C9        1.0  0.8958343330483557  0.9636773102295566  0.12572316761229274  1.0000
  C   C10       1.0  0.10416759984951086  0.0363265720687309  0.8742744333912711  1.0000
  C   C11       1.0  0.8112250447384497  0.8988656494352868  0.10031989281286964  1.0000
  C   C12       1.0  0.1887753168838485  0.10113943319206703  0.8996791018232315  1.0000
  C   C13       1.0  0.8415409929891523  0.8591656614955241  0.45019761164071775  1.0000
  C   C14       1.0  0.1584598259289435  0.14083338436405063  0.5498014038211353  1.0000
  C   C15       1.0  0.6102431963172775  0.9469852958544538  0.3766308411335899  1.0000
  C   C16       1.0  0.3897592386323936  0.05301495762319771  0.6233684101420282  1.0000
  C   C17       1.0  0.6945485408761981  0.7835743272806328  0.39376252709956827  1.0000
  C   C18       1.0  0.3054522713416645  0.21642472177566677  0.606235731760279  1.0000
  C   C19       1.0  0.2574055037304034  0.48122166915429443  0.3332646066422954  1.0000
  C   C20       1.0  0.7425926165318939  0.5187737469890907  0.6667357037063937  1.0000
  C   C21       1.0  0.1549474867252769  0.5164637867265895  0.1820609689555468  1.0000
  C   C22       1.0  0.8450517027607842  0.48353405790835796  0.8179362974885295  1.0000
  C   C23       1.0  0.04246794669867169  0.5253694706906273  0.2628843170341284  1.0000
  C   C24       1.0  0.9575264775044445  0.4746295701811151  0.7371147442592658  1.0000
  N   N1        1.0  0.37255114405611084  0.9947505244173768  0.13786448234044715  1.0000
  N   N2        1.0  0.6274496971082614  0.005246081527843702  0.8621404696950848  1.0000
  N   N3        1.0  0.1759629897464663  0.057312948554447005  0.2526115612206183  1.0000
  N   N4        1.0  0.8240415788326414  0.9426824470029944  0.7473947561125273  1.0000
  N   N5        1.0  0.6648341194051853  0.02130720694427171  0.06153576467907131  1.0000
  N   N6        1.0  0.3351651528926637  0.9786954567816868  0.9384640040556391  1.0000
  N   N7        1.0  0.7985595815378089  0.12679471682715623  0.10144124847162327  1.0000
  N   N8        1.0  0.20144131804648435  0.8732115784476238  0.8985566025131747  1.0000
  N   N9        1.0  0.8382483880191531  0.7307438203476624  0.43960076391949326  1.0000
  N   N10       1.0  0.16175243759916919  0.26925522231519494  0.5603990081443584  1.0000
  N   N11       1.0  0.7047714175731843  0.9917864705876981  0.41267672850663933  1.0000
  N   N12       1.0  0.2952320640905199  0.008211363520011604  0.5873237859917424  1.0000
  N   N13       1.0  0.1078261747920094  0.5033685671546525  0.3562502753564232  1.0000
  N   N14       1.0  0.8921698273869083  0.49662927019129216  0.6437481489064255  1.0000
  N   N15       1.0  0.2888993621045016  0.4887285373969804  0.22832194681941329  1.0000
  N   N16       1.0  0.7110971667815419  0.5112680886656451  0.7716774873558166  1.0000
  O   O1        1.0  0.09013312074335285  0.8156567145337947  0.6303959791985108  1.0000
  O   O2        1.0  0.909867653418729  0.1843399233786371  0.36960140681702575  1.0000
  O   O3        1.0  0.19762318669014434  0.5996798881450118  0.5255929415283163  1.0000
  O   O4        1.0  0.8023771122210447  0.4003203658011716  0.4744058206231543  1.0000
  O   O5        1.0  0.3914967981695767  0.6978263028133258  0.5718919411489907  1.0000
  O   O6        1.0  0.6085051055183258  0.302172734820175  0.42810921037993666  1.0000
  O   O7        1.0  0.288445742529852  0.4928439084659787  0.7368420052469561  1.0000
  O   O8        1.0  0.7115545743364321  0.5071587662142322  0.2631553599428287  1.0000
  O   O9        1.0  0.3290242926717609  0.30508475977774924  0.9498664340315273  1.0000
  O   O10       1.0  0.6709744931203403  0.6949190960512084  0.050136864402801996  1.0000
  O   O11       1.0  0.12713659103912522  0.6195267679961419  0.9035279369031456  1.0000
  O   O12       1.0  0.8728584764475114  0.38048315247553444  0.09646817590220993  1.0000
  O   O13       1.0  0.4368465507316516  0.5286604359154056  0.8829473361324462  1.0000
  O   O14       1.0  0.5631506302837365  0.47134463622622763  0.1170535729244335  1.0000
