data_image0
_chemical_formula_structural       Tb2Cu2H20C32N10O18
_chemical_formula_sum              "Tb2 Cu2 H20 C32 N10 O18"
_cell_length_a       10.490852019753856
_cell_length_b       10.878893971368514
_cell_length_c       11.622108415052079
_cell_angle_alpha    72.99754937072468
_cell_angle_beta     81.70511503873259
_cell_angle_gamma    59.07381404226992

_space_group_name_H-M_alt    "P 1"
_space_group_IT_number       1

loop_
  _space_group_symop_operation_xyz
  'x, y, z'

loop_
  _atom_site_type_symbol
  _atom_site_label
  _atom_site_symmetry_multiplicity
  _atom_site_fract_x
  _atom_site_fract_y
  _atom_site_fract_z
  _atom_site_occupancy
  Tb  Tb1       1.0  0.4353466425141264  0.0077328192190791074  0.8247312649421303  1.0000
  Tb  Tb2       1.0  0.5646494986085954  0.9922733584040062  0.17526109390082198  1.0000
  Cu  Cu1       1.0  0.9999941191248355  5.907602890401075e-06  0.9999963071987565  1.0000
  Cu  Cu2       1.0  7.3892345611653305e-06  0.9999920010913356  0.5000018605141888  1.0000
  H   H1        1.0  0.9265964800286354  0.7694497752656774  0.48985630311445044  1.0000
  H   H2        1.0  0.07342173117012858  0.23054353112748058  0.5101267944366867  1.0000
  H   H3        1.0  0.026056703765910134  0.49627175889450825  0.5854643448228957  1.0000
  H   H4        1.0  0.9739503709123556  0.5037219729164307  0.4145109299287099  1.0000
  H   H5        1.0  0.35980804459469345  0.4939216145391327  0.7619691079946592  1.0000
  H   H6        1.0  0.6401756085457251  0.5060590125454495  0.23804896686240082  1.0000
  H   H7        1.0  0.25121462663921085  0.766897213736584  0.6587535381952278  1.0000
  H   H8        1.0  0.7487815423674036  0.23308183678160788  0.34126902906861295  1.0000
  H   H9        1.0  0.017823093860656166  0.25342176570187286  0.8203012847408786  1.0000
  H   H10       1.0  0.9821696997708997  0.7465834636983786  0.17969360146601338  1.0000
  H   H11       1.0  0.8697801374903874  0.5328380552012746  0.7682755621280036  1.0000
  H   H12       1.0  0.13022049273391906  0.4671745152558626  0.2317348990644916  1.0000
  H   H13       1.0  0.582057577136773  0.49973606983408553  0.06360217678574291  1.0000
  H   H14       1.0  0.41795201241434654  0.5002761482112064  0.9364104059815332  1.0000
  H   H15       1.0  0.7367175238275364  0.2222370766851895  0.10443177418950003  1.0000
  H   H16       1.0  0.2632815880645866  0.7777679276174252  0.895574225235066  1.0000
  H   H17       1.0  0.2128399168434568  0.9806409255119138  0.7194362571064871  1.0000
  H   H18       1.0  0.7871613344659566  0.019358525104863095  0.28055809233149626  1.0000
  H   H19       1.0  0.3324742395722494  0.9455648457613889  0.6190074892658403  1.0000
  H   H20       1.0  0.6675236514291996  0.05442712126086491  0.38098611075410815  1.0000
  C   C1        1.0  0.804552142038581  0.0278823986567929  0.7086304159972983  1.0000
  C   C2        1.0  0.19544835404001762  0.9721083846223665  0.29136655525008587  1.0000
  C   C3        1.0  0.814608342915122  0.014872853687748492  0.8311832690743088  1.0000
  C   C4        1.0  0.18538161825952662  0.9851281409009401  0.16881328957708064  1.0000
  C   C5        1.0  0.6941892041963696  0.04448602322717932  0.6270685017538327  1.0000
  C   C6        1.0  0.30580877822814767  0.9555059464007343  0.37292766560465646  1.0000
  C   C7        1.0  0.7313057793237759  0.9923634790131219  0.9418150377901852  1.0000
  C   C8        1.0  0.26867246877889533  0.0076564741770468025  0.05817963146716212  1.0000
  C   C9        1.0  0.022790301900073476  0.7043057875881902  0.5501116734734095  1.0000
  C   C10       1.0  0.9772193985426654  0.2956835273306382  0.4498799546743512  1.0000
  C   C11       1.0  0.07770262259698774  0.5537741219368754  0.6032472696551139  1.0000
  C   C12       1.0  0.9223062799977768  0.4462141148392647  0.3967353268751379  1.0000
  C   C13       1.0  0.19966123829367896  0.4762671985153516  0.6813366872340653  1.0000
  C   C14       1.0  0.8003314894429181  0.5237217252553991  0.31866291601856733  1.0000
  C   C15       1.0  0.26417495538905894  0.5527140248714844  0.7020214866238277  1.0000
  C   C16       1.0  0.7358161960964226  0.44727063236177145  0.2979873464730148  1.0000
  C   C17       1.0  0.2043806688648785  0.7027709737339835  0.6455734984977113  1.0000
  C   C18       1.0  0.7956157939849644  0.297214552636305  0.35443251800335673  1.0000
  C   C19       1.0  0.2624269934407764  0.31406328239820885  0.7428503565254374  1.0000
  C   C20       1.0  0.7375665114564639  0.685929952664246  0.2571452961759917  1.0000
  C   C21       1.0  0.9202321149074066  0.31214174992899757  0.8718025280484909  1.0000
  C   C22       1.0  0.07976467596378707  0.6878676799512463  0.12819567577505347  1.0000
  C   C23       1.0  0.8388375044001748  0.4661887794284284  0.843500886850869  1.0000
  C   C24       1.0  0.1611655437828787  0.5338204236170725  0.15650671863132712  1.0000
  C   C25       1.0  0.7144953905951114  0.535950826754032  0.9123424270558473  1.0000
  C   C26       1.0  0.2855180785704974  0.4640677667542691  0.0876711424706826  1.0000
  C   C27       1.0  0.6784312584141787  0.44776137263381344  0.009017885890806125  1.0000
  C   C28       1.0  0.3215751762789264  0.5522531364175266  0.9909902325282828  1.0000
  C   C29       1.0  0.7643271559121205  0.2943554308794702  0.03212519120031483  1.0000
  C   C30       1.0  0.23566918087352207  0.7056572873266234  0.9678755791016868  1.0000
  C   C31       1.0  0.6185121347288175  0.7019556793530484  0.8807560104067561  1.0000
  C   C32       1.0  0.3815092728081169  0.2980582435032773  0.11925678500963952  1.0000
  N   N1        1.0  0.9290087594603591  0.029980384940586195  0.6585606110660648  1.0000
  N   N2        1.0  0.07098971606859554  0.9700126541444972  0.34143603011479234  1.0000
  N   N3        1.0  0.011414820129047598  0.021340350637565595  0.7406024225795278  1.0000
  N   N4        1.0  0.9885806267115671  0.9786571613850081  0.2593942696318623  1.0000
  N   N5        1.0  0.9424301350871646  0.012373687757417397  0.8445565569496551  1.0000
  N   N6        1.0  0.05755812434067315  0.9876349837975054  0.15543719530180766  1.0000
  N   N7        1.0  0.08537814021055824  0.7767804360803012  0.5718668260422318  1.0000
  N   N8        1.0  0.9146289148936688  0.22320682769550607  0.428132701487776  1.0000
  N   N9        1.0  0.8823453592681573  0.2284233242474158  0.9642065380899965  1.0000
  N   N10       1.0  0.11764909225055917  0.7715829402784281  0.035793812000420575  1.0000
  O   O1        1.0  0.7396068548365663  0.033345539655762486  0.5214610901682661  1.0000
  O   O2        1.0  0.26039822357766695  0.9666352678341429  0.47853544981160917  1.0000
  O   O3        1.0  0.5653780884776867  0.07331210108008432  0.6666641006920598  1.0000
  O   O4        1.0  0.43462015180095637  0.9266852879710401  0.33332787877399994  1.0000
  O   O5        1.0  0.6195894718439093  0.9785870793404426  0.9384566066339203  1.0000
  O   O6        1.0  0.38037773913735856  0.02145290711968779  0.0615417817288275  1.0000
  O   O7        1.0  0.7778864005268745  0.9834389360534672  0.041449476823146404  1.0000
  O   O8        1.0  0.2221114466149245  0.016561743060613303  0.9585467806804003  1.0000
  O   O9        1.0  0.22374608941240848  0.23769351188149554  0.7067464115652555  1.0000
  O   O10       1.0  0.7762566624661389  0.7622906656257059  0.2932555514634601  1.0000
  O   O11       1.0  0.3552251389594119  0.2578513559913986  0.8281679351964825  1.0000
  O   O12       1.0  0.6447659522513405  0.7421474249399225  0.17183166547589926  1.0000
  O   O13       1.0  0.502426632963804  0.7599613974715211  0.9430194883233725  1.0000
  O   O14       1.0  0.4975770400081172  0.24005211252291775  0.056979887710042476  1.0000
  O   O15       1.0  0.6537263061067409  0.7795668098710066  0.7917240890074597  1.0000
  O   O16       1.0  0.3463114743070648  0.22044214249268623  0.2083030351822188  1.0000
  O   O17       1.0  0.32171971032872887  0.9370674748219161  0.7071110935808205  1.0000
  O   O18       1.0  0.6782821126913844  0.06292651248598702  0.292883020236104  1.0000
