data_image0
_chemical_formula_structural       Cu12H8C8I8N12
_chemical_formula_sum              "Cu12 H8 C8 I8 N12"
_cell_length_a       4.025512581142601
_cell_length_b       9.490235030732952
_cell_length_c       20.769547792949883
_cell_angle_alpha    98.89229018799014
_cell_angle_beta     90.00089982637495
_cell_angle_gamma    89.99959571339747

_space_group_name_H-M_alt    "P 1"
_space_group_IT_number       1

loop_
  _space_group_symop_operation_xyz
  'x, y, z'

loop_
  _atom_site_type_symbol
  _atom_site_label
  _atom_site_symmetry_multiplicity
  _atom_site_fract_x
  _atom_site_fract_y
  _atom_site_fract_z
  _atom_site_occupancy
  Cu  Cu1       1.0  0.9999945375924072  0.49999920553809557  0.49999988040232074  1.0000
  Cu  Cu2       1.0  1.6007219400599997e-05  0.9999997690264453  1.625993299111784e-06  1.0000
  Cu  Cu3       1.0  0.5017027887094586  0.7499975628246248  0.7499986349593399  1.0000
  Cu  Cu4       1.0  0.4982794751465249  0.24999747123082022  0.24999978624010313  1.0000
  Cu  Cu5       1.0  0.35278335755035073  0.0381541431059418  0.6711519974145973  1.0000
  Cu  Cu6       1.0  0.35279569160853447  0.4618457347001055  0.8288497555065674  1.0000
  Cu  Cu7       1.0  0.6472187796514319  0.9618398205660552  0.328848755237928  1.0000
  Cu  Cu8       1.0  0.6471989927231833  0.538162106942991  0.17114379679074432  1.0000
  Cu  Cu9       1.0  0.8477197092817194  0.2098030513889668  0.6623163513875597  1.0000
  Cu  Cu10      1.0  0.8477357642528319  0.29020234628590913  0.8376863956907813  1.0000
  Cu  Cu11      1.0  0.152277459520711  0.7901930484201715  0.33768262693084244  1.0000
  Cu  Cu12      1.0  0.15225643608683734  0.7098001573270025  0.16231014815958392  1.0000
  H   H1        1.0  0.07755892867278652  0.8400742358384363  0.5379286443760665  1.0000
  H   H2        1.0  0.07761429802015841  0.6599333657672659  0.9620749099830945  1.0000
  H   H3        1.0  0.9224009779118705  0.15992719053922141  0.4620745636270059  1.0000
  H   H4        1.0  0.9224350381759692  0.3400669939973896  0.037928222479308715  1.0000
  H   H5        1.0  0.3845202588213184  0.4969356552199357  0.6303920157156498  1.0000
  H   H6        1.0  0.38448922172463545  0.0030609719060735  0.8696062365440369  1.0000
  H   H7        1.0  0.6154868465670589  0.503057247279493  0.3696052913288527  1.0000
  H   H8        1.0  0.6154980103844637  0.9969436609457601  0.13039286575105546  1.0000
  C   C1        1.0  0.18023595956704241  0.7779755815052241  0.5728334917911226  1.0000
  C   C2        1.0  0.18025521930574942  0.7220286431585236  0.9271667773356428  1.0000
  C   C3        1.0  0.8197463043134976  0.22202158408413195  0.4271660436009697  1.0000
  C   C4        1.0  0.8197692752959327  0.2779717181611829  0.0728353922492957  1.0000
  C   C5        1.0  0.33630393472049763  0.6037199594490942  0.6200459982974993  1.0000
  C   C6        1.0  0.33629904976893243  0.8962797213409815  0.8799544420055838  1.0000
  C   C7        1.0  0.6636882657834917  0.3962740072976203  0.3799528286604499  1.0000
  C   C8        1.0  0.6637130240413215  0.1037227730566173  0.12004787891341102  1.0000
  I   I1        1.0  0.8444134371015084  0.04435356689501901  0.7559440592724728  1.0000
  I   I2        1.0  0.844414309016706  0.45564650630998205  0.7440568551010359  1.0000
  I   I3        1.0  0.15558124757558292  0.9556467967506139  0.24405666600759457  1.0000
  I   I4        1.0  0.15559776459375033  0.544354929985353  0.25594009452292005  1.0000
  I   I5        1.0  0.3435050605136496  0.1992231204091794  0.5807301363418845  1.0000
  I   I6        1.0  0.34352231403833144  0.3007789016070816  0.919275109704124  1.0000
  I   I7        1.0  0.6565045291998713  0.8007665763560254  0.4192707950359989  1.0000
  I   I8        1.0  0.6564798229892831  0.6992406596335387  0.08072697776346162  1.0000
  N   N1        1.0  0.1864622326516852  0.632711893387743  0.5650159414988423  1.0000
  N   N2        1.0  0.18647705045447788  0.8672965832665864  0.934986574913303  1.0000
  N   N3        1.0  0.81352499954604  0.3672874044975671  0.43498422667358483  1.0000
  N   N4        1.0  0.8135375074869202  0.13270377959489826  0.06501463181680832  1.0000
  N   N5        1.0  0.4149999907394745  0.723265999004994  0.6596958496639118  1.0000
  N   N6        1.0  0.4150214559429984  0.7767367405363926  0.8403055380982565  1.0000
  N   N7        1.0  0.5849822731604919  0.27672796698409735  0.34030345869881984  1.0000
  N   N8        1.0  0.5849856493928983  0.2232678930642322  0.15969308280713793  1.0000
  N   N9        1.0  0.3167270911181462  0.8352762732667073  0.6290070606212979  1.0000
  N   N10       1.0  0.316733052094456  0.6647298400231421  0.8709947371493316  1.0000
  N   N11       1.0  0.6832576569801463  0.1647230223214109  0.3709945518069659  1.0000
  N   N12       1.0  0.6832666007426554  0.33527692741742504  0.12900355367778363  1.0000
