data_image0
_chemical_formula_structural       Zn2H10C40Br6N2Cl4O8
_chemical_formula_sum              "Zn2 H10 C40 Br6 N2 Cl4 O8"
_cell_length_a       10.961793426294586
_cell_length_b       14.809172645096181
_cell_length_c       16.200400115008584
_cell_angle_alpha    90.40518253781865
_cell_angle_beta     88.56540471814591
_cell_angle_gamma    90.38418459021332

_space_group_name_H-M_alt    "P 1"
_space_group_IT_number       1

loop_
  _space_group_symop_operation_xyz
  'x, y, z'

loop_
  _atom_site_type_symbol
  _atom_site_label
  _atom_site_symmetry_multiplicity
  _atom_site_fract_x
  _atom_site_fract_y
  _atom_site_fract_z
  _atom_site_occupancy
  Zn  Zn1       1.0  0.502555679049273  0.5945628980704215  0.4968499216131761  1.0000
  Zn  Zn2       1.0  0.4974430589934613  0.4054498752112393  0.5031330327598909  1.0000
  H   H1        1.0  0.7287128950595019  0.1731447817288654  0.736367065133912  1.0000
  H   H2        1.0  0.27128526264679215  0.8268552314745036  0.2636467027760999  1.0000
  H   H3        1.0  0.8078810684079584  0.1335866989475178  0.5950749772790189  1.0000
  H   H4        1.0  0.1921088721835886  0.8664092279282231  0.4049388425022754  1.0000
  H   H5        1.0  0.1134999550209415  0.381267973494353  0.5717634117726218  1.0000
  H   H6        1.0  0.8864946307609075  0.6187212086567798  0.4282453994833445  1.0000
  H   H7        1.0  0.6023160703368902  0.624142025881632  0.9217367329219925  1.0000
  H   H8        1.0  0.39772662087070654  0.3758371446584619  0.0782352005415632  1.0000
  H   H9        1.0  0.6907476732521332  0.08719551174695543  0.4664198551334664  1.0000
  H   H10       1.0  0.30922479179457696  0.9128179187558061  0.5336028350379962  1.0000
  C   C1        1.0  0.5067847448157465  0.49378410621567076  0.3386310257469134  1.0000
  C   C2        1.0  0.49320126346836474  0.5062481933299595  0.6613508904618185  1.0000
  C   C3        1.0  0.1277267794730079  0.5000603247834904  0.49766875940150607  1.0000
  C   C4        1.0  0.8722697662567782  0.49992817295662917  0.5023326242209618  1.0000
  C   C5        1.0  0.0650857539237251  0.5684482661854846  0.4566218616896123  1.0000
  C   C6        1.0  0.9349098032413536  0.4315429386294767  0.5433838637603543  1.0000
  C   C7        1.0  0.5576002320754014  0.5700002501078031  0.9563263742425929  1.0000
  C   C8        1.0  0.44245146863213597  0.4299769471614355  0.04365164654237929  1.0000
  C   C9        1.0  0.4925423367877002  0.5032515788400717  0.9125610663312924  1.0000
  C   C10       1.0  0.5075020706109826  0.4967215345506092  0.08741638112376648  1.0000
  C   C11       1.0  0.43494149927384035  0.43324870047069913  0.9584272423290798  1.0000
  C   C12       1.0  0.5651165850088731  0.5667251473852987  0.041550708862402495  1.0000
  C   C13       1.0  0.4887565318844834  0.5069586914168694  0.825700395098586  1.0000
  C   C14       1.0  0.5112605224429602  0.4930332141300298  0.1742773704979825  1.0000
  C   C15       1.0  0.5105889558951162  0.4907355051416928  0.24941268572599273  1.0000
  C   C16       1.0  0.4894044393783974  0.509283982349153  0.7505635539629196  1.0000
  C   C17       1.0  0.6097036353938138  0.9544735332122374  0.4799408875624706  1.0000
  C   C18       1.0  0.39025996642316585  0.04554117704226  0.5200676857948564  1.0000
  C   C19       1.0  0.5007728301971426  0.906301139447379  0.4985681632377919  1.0000
  C   C20       1.0  0.4991943591711134  0.09371832156866591  0.501444104700532  1.0000
  C   C21       1.0  0.3916630369113606  0.9516791674189025  0.5188702240361563  1.0000
  C   C22       1.0  0.6083032111211254  0.04833489034331959  0.48114326231769405  1.0000
  C   C23       1.0  0.7359849202764933  0.5024077536330154  0.501218168482083  1.0000
  C   C24       1.0  0.26400791814108965  0.4975800604380822  0.4987863303399179  1.0000
  C   C25       1.0  0.4996294782683818  0.8105406196733255  0.4967138797220869  1.0000
  C   C26       1.0  0.5003494978876049  0.18947214708374105  0.5033019613331147  1.0000
  C   C27       1.0  0.7754661859228733  0.31371877869659687  0.7252111321920864  1.0000
  C   C28       1.0  0.2245319799854997  0.6862785319994344  0.27480200619429235  1.0000
  C   C29       1.0  0.8270779399449849  0.38115556250319577  0.6743164368347081  1.0000
  C   C30       1.0  0.17292390832094645  0.6188404088404696  0.3256948121158771  1.0000
  C   C31       1.0  0.8725178439940039  0.3604648419802103  0.5940783913985115  1.0000
  C   C32       1.0  0.1274768240765596  0.6395270314517276  0.4059261100168284  1.0000
  C   C33       1.0  0.8633474969431917  0.27041071382458165  0.5675219179161174  1.0000
  C   C34       1.0  0.13664067288407014  0.7295831725017551  0.4324888212465011  1.0000
  C   C35       1.0  0.8121070922034194  0.20305071200257876  0.6173748391450431  1.0000
  C   C36       1.0  0.18788559640577773  0.7969445497510321  0.382638336847961  1.0000
  C   C37       1.0  0.768217080233647  0.22489344567625122  0.6962565912793153  1.0000
  C   C38       1.0  0.2317828888184224  0.7751045508072139  0.30375776941258437  1.0000
  C   C39       1.0  0.062248431875119116  0.4329035290558351  0.5401580570481952  1.0000
  C   C40       1.0  0.9377489834357677  0.5670870039779744  0.45984579755307914  1.0000
  Br  Br1       1.0  0.7557439854531438  0.8925058656463565  0.4554540779818764  1.0000
  Br  Br2       1.0  0.24422329129663475  0.10751088303912583  0.5445532384890724  1.0000
  Br  Br3       1.0  0.9182428988771605  0.2368620737940503  0.4589370015719324  1.0000
  Br  Br4       1.0  0.0817116268585067  0.7631262523489613  0.5410672096430033  1.0000
  Br  Br5       1.0  0.6546522552905715  0.6577462659840452  0.09688560561335889  1.0000
  Br  Br6       1.0  0.34541136094502184  0.3422181427023574  0.9030885520100965  1.0000
  N   N1        1.0  0.5031097660284515  0.2677198577582942  0.5049106886674365  1.0000
  N   N2        1.0  0.49689479546326254  0.7322943632080198  0.4951030883192472  1.0000
  Cl  Cl1       1.0  0.7229469518148975  0.3380687892231435  0.8236937644415434  1.0000
  Cl  Cl2       1.0  0.27705667930398187  0.6619298965426169  0.1763199507329603  1.0000
  Cl  Cl3       1.0  0.8355557490038522  0.49057670298901  0.7100471575191918  1.0000
  Cl  Cl4       1.0  0.16446068864064503  0.5094200066723644  0.2899645873871535  1.0000
  O   O1        1.0  0.5078471446638275  0.5724793056630091  0.3707918856573116  1.0000
  O   O2        1.0  0.4922146934896361  0.427555328233261  0.6291844544697582  1.0000
  O   O3        1.0  0.5022421152263874  0.4184363960431342  0.37603539193462854  1.0000
  O   O4        1.0  0.49769451378970336  0.5816031375421814  0.6239531519185773  1.0000
  O   O5        1.0  0.6871229655748011  0.5797303673864037  0.49573261832700416  1.0000
  O   O6        1.0  0.3128739446119938  0.42026360517670003  0.5042990353271577  1.0000
  O   O7        1.0  0.6808656448191144  0.42663651912139505  0.5048719749075372  1.0000
  O   O8        1.0  0.3191371630083921  0.5733478518448933  0.4950861244389628  1.0000
