data_image0
_chemical_formula_structural       Co2H20C32N2O8
_chemical_formula_sum              "Co2 H20 C32 N2 O8"
_cell_length_a       7.306887979738858
_cell_length_b       9.403819842890984
_cell_length_c       10.85952195524834
_cell_angle_alpha    82.96835658452508
_cell_angle_beta     73.21840765867621
_cell_angle_gamma    68.8963847280095

_space_group_name_H-M_alt    "P 1"
_space_group_IT_number       1

loop_
  _space_group_symop_operation_xyz
  'x, y, z'

loop_
  _atom_site_type_symbol
  _atom_site_label
  _atom_site_symmetry_multiplicity
  _atom_site_fract_x
  _atom_site_fract_y
  _atom_site_fract_z
  _atom_site_occupancy
  Co  Co1       1.0  0.37140425179813263  0.11667349357760061  0.4976041297497673  1.0000
  Co  Co2       1.0  0.6286012056486501  0.8833251708330039  0.5023917842577886  1.0000
  H   H1        1.0  0.5689977596386131  0.6230695076844555  0.2494312578589017  1.0000
  H   H2        1.0  0.4310058925803448  0.3769268835876786  0.7505633893771133  1.0000
  H   H3        1.0  0.4551246883019645  0.4902297625654556  0.11701539894802694  1.0000
  H   H4        1.0  0.5448550363672381  0.5097688298597732  0.8829909774559893  1.0000
  H   H5        1.0  0.15844547725975378  0.6412168057237367  0.026243235148463454  1.0000
  H   H6        1.0  0.8415372033198382  0.3587909066529135  0.9737634974543069  1.0000
  H   H7        1.0  0.9867595173255804  0.9141848523842669  0.07023167963426157  1.0000
  H   H8        1.0  0.013243670628021719  0.08582172713226298  0.9297749218049772  1.0000
  H   H9        1.0  0.6917214511049252  0.3994954061672828  0.3230664624746352  1.0000
  H   H10       1.0  0.3082720289696186  0.60050433630839  0.6769390044713076  1.0000
  H   H11       1.0  0.9123427707801992  0.5405619732088381  0.1871879351202923  1.0000
  H   H12       1.0  0.08764614611434497  0.45944460758686023  0.8128177167783832  1.0000
  H   H13       1.0  0.3664552691158107  0.1126262585952915  0.04663802556971322  1.0000
  H   H14       1.0  0.6335431109884768  0.8873814546254195  0.9533693826922374  1.0000
  H   H15       1.0  0.24979212838533033  0.3923526683117585  0.0424510921653791  1.0000
  H   H16       1.0  0.7501967953078932  0.6076539237396757  0.9575527155561049  1.0000
  H   H17       1.0  0.35438858471404433  0.44148861997603467  0.38174302505957053  1.0000
  H   H18       1.0  0.6456317129552999  0.558496376287451  0.6182514235169804  1.0000
  H   H19       1.0  0.10299251919066427  0.7125507846866553  0.3937806339676584  1.0000
  H   H20       1.0  0.8970259732508625  0.2874319384383596  0.6062125478373516  1.0000
  C   C1        1.0  0.41528979583514336  0.9066798192544708  0.3220797265037304  1.0000
  C   C2        1.0  0.5847263154163826  0.09331428634428109  0.6779164476784912  1.0000
  C   C3        1.0  0.34898254709447946  0.8417498176637249  0.23095944672589747  1.0000
  C   C4        1.0  0.6510253769240536  0.15824655746662591  0.7690380672203503  1.0000
  C   C5        1.0  0.44463253989471235  0.6853899866045908  0.20655744460025718  1.0000
  C   C6        1.0  0.5553705660764834  0.3146075053463306  0.7934436424344895  1.0000
  C   C7        1.0  0.37934781834717773  0.6121026989073713  0.13323944877220834  1.0000
  C   C8        1.0  0.620638013943463  0.3878982011653704  0.8667627623162274  1.0000
  C   C9        1.0  0.21360320803906077  0.6953475698423118  0.08404701623536676  1.0000
  C   C10       1.0  0.7863878020643966  0.30465445628575333  0.9159577728604801  1.0000
  C   C11       1.0  0.1171348047858984  0.8504882595136607  0.10771205313539411  1.0000
  C   C12       1.0  0.8828628319920496  0.14951492856017268  0.8922895075549064  1.0000
  C   C13       1.0  0.18448528485397733  0.9267182846592592  0.1788928302225017  1.0000
  C   C14       1.0  0.8155155924161053  0.07328718993201731  0.8211078791807722  1.0000
  C   C15       1.0  0.09684529728237828  0.09559921661081458  0.18569254587010411  1.0000
  C   C16       1.0  0.9031505138717223  0.9044016645573335  0.8143132805802297  1.0000
  C   C17       1.0  0.9020481361722618  0.1781919292437948  0.26082931487103866  1.0000
  C   C18       1.0  0.09795130243416851  0.821813526340641  0.7391744346794055  1.0000
  C   C19       1.0  0.8394817295200172  0.3381694195422043  0.2604204882169228  1.0000
  C   C20       1.0  0.16051708085624475  0.6618280491554175  0.739584186727754  1.0000
  C   C21       1.0  0.9627972142850115  0.41655401054908475  0.18470774833770068  1.0000
  C   C22       1.0  0.03719260522344572  0.5834537068158524  0.8152985369467557  1.0000
  C   C23       1.0  0.21722438546251505  0.17628042570910912  0.1067793407518352  1.0000
  C   C24       1.0  0.7827730988265387  0.8237261621981062  0.8932255899471498  1.0000
  C   C25       1.0  0.15166303252208024  0.33451728645201223  0.10540599720546602  1.0000
  C   C26       1.0  0.8483376034780293  0.6654824891512945  0.8945944119791845  1.0000
  C   C27       1.0  0.1953813770305501  0.4685874958206497  0.4349990900312974  1.0000
  C   C28       1.0  0.8046251423177042  0.5314089165815473  0.5649922431761637  1.0000
  C   C29       1.0  0.05747583476963318  0.6172048804207364  0.44165267004539993  1.0000
  C   C30       1.0  0.9425218529983895  0.3827983920711445  0.5583350593159652  1.0000
  C   C31       1.0  0.7584391619939909  0.10482303854681159  0.34517515326133724  1.0000
  C   C32       1.0  0.24156252910891843  0.8951744737923591  0.65482251930041  1.0000
  N   N1        1.0  0.13872747624664333  0.35083903803271  0.4932798361594521  1.0000
  N   N2        1.0  0.8612927029271947  0.6491494143428512  0.5067087615398193  1.0000
  O   O1        1.0  0.31318653414889047  0.0430644068393704  0.36005081922727555  1.0000
  O   O2        1.0  0.686819207879644  0.9569274241372624  0.6399438872944998  1.0000
  O   O3        1.0  0.5707337420498036  0.19094725584521646  0.3780982248706052  1.0000
  O   O4        1.0  0.42926770526340635  0.8090571574623624  0.6218895901137742  1.0000
  O   O5        1.0  0.8254500572550969  0.9653596087560883  0.381127596086472  1.0000
  O   O6        1.0  0.1745318630014553  0.034643550334337185  0.618877899387641  1.0000
  O   O7        1.0  0.5677764997878826  0.8171270996372612  0.3617058458781058  1.0000
  O   O8        1.0  0.4322402294957969  0.18287497596470098  0.6382921691756707  1.0000
