data_image0
_chemical_formula_structural       Cd2H40C52N8O16
_chemical_formula_sum              "Cd2 H40 C52 N8 O16"
_cell_length_a       10.397244191773794
_cell_length_b       11.348217587590547
_cell_length_c       11.552376992731677
_cell_angle_alpha    97.84146971431869
_cell_angle_beta     108.74094412756234
_cell_angle_gamma    103.30554415082575

_space_group_name_H-M_alt    "P 1"
_space_group_IT_number       1

loop_
  _space_group_symop_operation_xyz
  'x, y, z'

loop_
  _atom_site_type_symbol
  _atom_site_label
  _atom_site_symmetry_multiplicity
  _atom_site_fract_x
  _atom_site_fract_y
  _atom_site_fract_z
  _atom_site_occupancy
  Cd  Cd1       1.0  0.6435346711554643  0.31209941133708696  0.20592936636329998  1.0000
  Cd  Cd2       1.0  0.35646594567352713  0.6879009424972081  0.7940704712355073  1.0000
  H   H1        1.0  0.0465315667307209  0.011850794899785898  0.608016718301876  1.0000
  H   H2        1.0  0.9534650143984322  0.9881495669936342  0.3919776088855827  1.0000
  H   H3        1.0  0.138840857626171  0.6646538566269838  0.45615182408847943  1.0000
  H   H4        1.0  0.8611595040182679  0.3353427719944121  0.5438517696810126  1.0000
  H   H5        1.0  0.3309073521180395  0.6216507514023772  0.08920847376843  1.0000
  H   H6        1.0  0.6690928413997882  0.37835145884428556  0.9107966812647207  1.0000
  H   H7        1.0  0.32181851620785545  0.13010146537360603  0.39255626232586144  1.0000
  H   H8        1.0  0.6781857078325049  0.8699035398592161  0.6074417912050338  1.0000
  H   H9        1.0  0.4102533821615779  0.04810771804113049  0.7588693690871583  1.0000
  H   H10       1.0  0.5897407140086274  0.9518852041642702  0.24112237093687136  1.0000
  H   H11       1.0  0.7538788178389809  0.18939955802199657  0.6345916936993847  1.0000
  H   H12       1.0  0.2461208550430315  0.8105980040549313  0.36540922579671803  1.0000
  H   H13       1.0  0.7608344059786277  0.02736131886962309  0.9535180566534154  1.0000
  H   H14       1.0  0.2391688690253347  0.9726408938166315  0.046481942809961714  1.0000
  H   H15       1.0  0.5748391911751654  0.9761844124788793  0.8671348780493491  1.0000
  H   H16       1.0  0.42516321122158024  0.02381221566437119  0.13286758276746016  1.0000
  H   H17       1.0  0.9029222912378502  0.18842877718812182  0.19068521885773765  1.0000
  H   H18       1.0  0.09707631028592804  0.8115715810703392  0.8093114315177985  1.0000
  H   H19       1.0  0.14450227363177248  0.1652255780492453  0.21991914014972028  1.0000
  H   H20       1.0  0.855497037012114  0.8347738499104906  0.780076728358445  1.0000
  H   H21       1.0  0.35992191696232123  0.3391270482699795  0.33368252734904064  1.0000
  H   H22       1.0  0.6400783987894628  0.6608723770830663  0.6663153667883608  1.0000
  H   H23       1.0  0.3464591366979519  0.547316690504239  0.4264912254570775  1.0000
  H   H24       1.0  0.6535418525479955  0.45268179902566164  0.5735119350592799  1.0000
  H   H25       1.0  0.8706754629774383  0.6718514782189615  0.46494609648615187  1.0000
  H   H26       1.0  0.1293254447499166  0.32814980251817616  0.5350574126444414  1.0000
  H   H27       1.0  0.8548843510185337  0.7018874735082292  0.313700980293689  1.0000
  H   H28       1.0  0.1451153218634786  0.2981100885687055  0.6862999392024067  1.0000
  H   H29       1.0  0.6437193899288687  0.6757566949677098  0.19776748167839747  1.0000
  H   H30       1.0  0.3562795636541908  0.3242417958295433  0.802235947755449  1.0000
  H   H31       1.0  0.5618682338154387  0.6706847486063906  0.31159366719819565  1.0000
  H   H32       1.0  0.4381317350543554  0.32931374116258644  0.6884100597945066  1.0000
  H   H33       1.0  0.046996934710563196  0.4561722656732313  0.9279977348126495  1.0000
  H   H34       1.0  0.9530015344004144  0.543830875900433  0.07200790452902346  1.0000
  H   H35       1.0  0.9315792910898111  0.23117065606204074  0.82153394314917  1.0000
  H   H36       1.0  0.0684191882000106  0.7688324870900298  0.17846996812211552  1.0000
  H   H37       1.0  0.06806121234284751  0.0795395711603248  0.8436339574782539  1.0000
  H   H38       1.0  0.9319362872861846  0.9204635785444426  0.1563636079878564  1.0000
  H   H39       1.0  0.3252624434235186  0.1435461280627095  0.980810376907478  1.0000
  H   H40       1.0  0.6747351326346872  0.856454229645621  0.019187703979589785  1.0000
  C   C1        1.0  0.5440759514706742  0.16954547246410098  0.5047934422960412  1.0000
  C   C2        1.0  0.4559270122772504  0.8304558101625049  0.4952063417763029  1.0000
  C   C3        1.0  0.3987633946971769  0.1300076920019677  0.4820496264296637  1.0000
  C   C4        1.0  0.601234166092766  0.8699926633387562  0.5179510465629633  1.0000
  C   C5        1.0  0.3528940284940489  0.08784711060491897  0.5741162362636489  1.0000
  C   C6        1.0  0.6471065068163426  0.9121560344366132  0.42588394994939455  1.0000
  C   C7        1.0  0.449787812100709  0.0835848121497378  0.6899530187973825  1.0000
  C   C8        1.0  0.5502088352787808  0.9164127561688389  0.3100435518813996  1.0000
  C   C9        1.0  0.5947465213444261  0.11963067438717447  0.7097171259230566  1.0000
  C   C10       1.0  0.4052510496243614  0.8803696825319565  0.2902818189991978  1.0000
  C   C11       1.0  0.6409346706995437  0.1643577037949484  0.6182319341009263  1.0000
  C   C12       1.0  0.35906500727188023  0.8356398590711933  0.38176812135998267  1.0000
  C   C13       1.0  0.595131447297355  0.21122115861012244  0.4056026104048485  1.0000
  C   C14       1.0  0.4048719143146259  0.7887782636580951  0.5943961764090986  1.0000
  C   C15       1.0  0.19753004047762346  0.044646298633537584  0.5429667331326089  1.0000
  C   C16       1.0  0.8024663261823405  0.9553503443606032  0.457024437944007  1.0000
  C   C17       1.0  0.668880112810129  0.05821993280306971  0.9065091969588724  1.0000
  C   C18       1.0  0.3311222284256986  0.9417794897042243  0.09349015633141289  1.0000
  C   C19       1.0  0.650235007846824  0.1496988278514948  0.004359963207811348  1.0000
  C   C20       1.0  0.34976529772611537  0.8503005959231512  0.9956396589999627  1.0000
  C   C21       1.0  0.9903871587084226  0.38340706617906034  0.28715736269816017  1.0000
  C   C22       1.0  0.00961314177509822  0.616592356806386  0.7128431235448077  1.0000
  C   C23       1.0  0.9985203062382337  0.2664997743287428  0.23871697995821253  1.0000
  C   C24       1.0  0.0014785963627517284  0.7335015124109673  0.7612816138787367  1.0000
  C   C25       1.0  0.1335344200887079  0.2543877892400346  0.25721982470587085  1.0000
  C   C26       1.0  0.8664638701790254  0.7456116389587703  0.7427766102786393  1.0000
  C   C27       1.0  0.257451540983176  0.3544273458452309  0.3231619735885759  1.0000
  C   C28       1.0  0.7425474431364093  0.6455711496872425  0.6768362716341303  1.0000
  C   C29       1.0  0.2507983762438429  0.4704342341542683  0.374120905934845  1.0000
  C   C30       1.0  0.749201286459325  0.5295633263442595  0.6258817416316305  1.0000
  C   C31       1.0  0.11535412324584368  0.48295507469907745  0.3549339014652021  1.0000
  C   C32       1.0  0.8846461619694211  0.5170443459187553  0.6450691768833325  1.0000
  C   C33       1.0  0.9255584599029021  0.5436980696733755  0.347436504370208  1.0000
  C   C34       1.0  0.07444284568851596  0.4563013507053879  0.6525660075019887  1.0000
  C   C35       1.0  0.8378193766110442  0.6276190863577112  0.36456308510199875  1.0000
  C   C36       1.0  0.16218028609212345  0.37237847414081654  0.6354395624644766  1.0000
  C   C37       1.0  0.5949777438358409  0.6135978464535583  0.24777109301923167  1.0000
  C   C38       1.0  0.40502385774335886  0.3864025016172403  0.7522342263495646  1.0000
  C   C39       1.0  0.4684335507693902  0.5137797985528606  0.15551309179176098  1.0000
  C   C40       1.0  0.5315663365818111  0.4862214824233532  0.8444909838151704  1.0000
  C   C41       1.0  0.24906310649853228  0.4224029697569592  0.02005708827530843  1.0000
  C   C42       1.0  0.7509371175558145  0.5775992452249171  0.9799428825467092  1.0000
  C   C43       1.0  0.10656218900676613  0.38845450664921083  0.9411015750286824  1.0000
  C   C44       1.0  0.8934370146714272  0.6115477085717413  0.058898962269673  1.0000
  C   C45       1.0  0.0437806809367629  0.2632014108647737  0.8804501521477094  1.0000
  C   C46       1.0  0.9562178288895778  0.7368017370225103  0.11954857491244297  1.0000
  C   C47       1.0  0.12137656926630311  0.1758886682767056  0.8949653005637475  1.0000
  C   C48       1.0  0.8786206241961027  0.8241135521576122  0.10503118547615027  1.0000
  C   C49       1.0  0.2643562217467874  0.21031830321248174  0.972060660905186  1.0000
  C   C50       1.0  0.7356417470860566  0.7896801933482677  0.027937286758671725  1.0000
  C   C51       1.0  0.3273283153143042  0.3347955901074613  0.03671406423659828  1.0000
  C   C52       1.0  0.6726702963883185  0.6652047697293995  0.9632808580685579  1.0000
  N   N1        1.0  0.8736369328170496  0.4254761552060342  0.2836225988762281  1.0000
  N   N2        1.0  0.12636437786378  0.574523265961929  0.716379048960782  1.0000
  N   N3        1.0  0.06965034184717916  0.5822466078865957  0.3919763579732347  1.0000
  N   N4        1.0  0.9303509433865571  0.4177528093353544  0.6080296100397221  1.0000
  N   N5        1.0  0.4644164412675452  0.3958258433230597  0.12184040465678701  1.0000
  N   N6        1.0  0.5355814511361247  0.6041754452341266  0.8781570275861129  1.0000
  N   N7        1.0  0.3419676655799293  0.5344144610652889  0.09766449148555982  1.0000
  N   N8        1.0  0.6580336451009074  0.4655849601026745  0.9023371563514433  1.0000
  O   O1        1.0  0.726960409387118  0.23849720759656629  0.4237934183868362  1.0000
  O   O2        1.0  0.27304433992856053  0.7615003493389879  0.5762089889035168  1.0000
  O   O3        1.0  0.5019698889857765  0.2180703866779012  0.3048045127913498  1.0000
  O   O4        1.0  0.498035498110248  0.7819290327445715  0.6951957331754886  1.0000
  O   O5        1.0  0.11338226504026491  0.018948340081855992  0.4314046536299261  1.0000
  O   O6        1.0  0.8866161382702985  0.9810696923228547  0.5685977599628205  1.0000
  O   O7        1.0  0.15670692855365329  0.038176139835997  0.6394229251603678  1.0000
  O   O8        1.0  0.8432901268687375  0.9618195697026051  0.36057092018964454  1.0000
  O   O9        1.0  0.7016686644717751  0.11110621465896739  0.8108985333705265  1.0000
  O   O10       1.0  0.2983289931050308  0.888891351842126  0.1890991989022979  1.0000
  O   O11       1.0  0.6469144460141577  0.2576273852706876  0.9882168679175793  1.0000
  O   O12       1.0  0.35308484936146556  0.7423720403214344  0.011781592696159708  1.0000
  O   O13       1.0  0.6421498621032241  0.11330302143006318  0.1018708477606155  1.0000
  O   O14       1.0  0.3578504485591338  0.8866964031337827  0.8981279104119723  1.0000
  O   O15       1.0  0.6927113264352939  0.5550728595842144  0.3156036885163828  1.0000
  O   O16       1.0  0.3072873209811391  0.44492470194258255  0.6843986614912438  1.0000
