data_image0
_chemical_formula_structural       Er4H32C24O28
_chemical_formula_sum              "Er4 H32 C24 O28"
_cell_length_a       7.497416249127236
_cell_length_b       8.414710396002492
_cell_length_c       13.817539286965683
_cell_angle_alpha    96.47364415057275
_cell_angle_beta     98.05965395715953
_cell_angle_gamma    99.3979670586937

_space_group_name_H-M_alt    "P 1"
_space_group_IT_number       1

loop_
  _space_group_symop_operation_xyz
  'x, y, z'

loop_
  _atom_site_type_symbol
  _atom_site_label
  _atom_site_symmetry_multiplicity
  _atom_site_fract_x
  _atom_site_fract_y
  _atom_site_fract_z
  _atom_site_occupancy
  Er  Er1       1.0  0.597496624548441  0.9852285109364163  0.7071088999315339  1.0000
  Er  Er2       1.0  0.4024998965358151  0.014770731238648699  0.2928906707511772  1.0000
  Er  Er3       1.0  0.1402254384342356  0.07954222816153592  0.7945210345031416  1.0000
  Er  Er4       1.0  0.8597732848451755  0.9204545877161151  0.20547926253110668  1.0000
  H   H1        1.0  0.34500854046058993  0.5927140178503479  0.8408860805110908  1.0000
  H   H2        1.0  0.654996323997132  0.4072864746819747  0.15911278077784635  1.0000
  H   H3        1.0  0.5430635099153349  0.7201736795441603  0.9091919335935332  1.0000
  H   H4        1.0  0.4569404894523856  0.2798292379959122  0.09080775301264053  1.0000
  H   H5        1.0  0.04228305498774181  0.661261282843725  0.7550064610163789  1.0000
  H   H6        1.0  0.9577155030242678  0.33874158914434094  0.2449993114495755  1.0000
  H   H7        1.0  0.9565413966167499  0.6234487273979211  0.8635385802531349  1.0000
  H   H8        1.0  0.043447736057906604  0.37655411782203174  0.13646500761482375  1.0000
  H   H9        1.0  0.9694688836887337  0.7962662863789163  0.4308645232711898  1.0000
  H   H10       1.0  0.03052837001872889  0.2037366047966955  0.5691353589842623  1.0000
  H   H11       1.0  0.9625358884612609  0.6373233402602166  0.5032639361160919  1.0000
  H   H12       1.0  0.0374629629594025  0.3626807749081848  0.49673543239485013  1.0000
  H   H13       1.0  0.3657687761673003  0.5219164464944583  0.005245401505689501  1.0000
  H   H14       1.0  0.6342353556672152  0.47808039703730987  0.9947531482105069  1.0000
  H   H15       1.0  0.1858544666635069  0.6339416069315433  0.9940381153198106  1.0000
  H   H16       1.0  0.8141483171323074  0.3660552319239372  0.005960328908180703  1.0000
  H   H17       1.0  0.6125791658977775  0.6123174283063051  0.4843093368202036  1.0000
  H   H18       1.0  0.3874178490687187  0.3876842495187701  0.5156897184873801  1.0000
  H   H19       1.0  0.6964679870258905  0.5619031874828622  0.3724870684722391  1.0000
  H   H20       1.0  0.3035312246689941  0.4380960610618132  0.6275134362771698  1.0000
  H   H21       1.0  0.7819485272726754  0.44828419875582176  0.6549938010433822  1.0000
  H   H22       1.0  0.2180498083986748  0.5517174688306526  0.3450089752038466  1.0000
  H   H23       1.0  0.7005822592330446  0.40747591315256665  0.7631530017103362  1.0000
  H   H24       1.0  0.29941803442572723  0.5925221118029781  0.23685039703084246  1.0000
  H   H25       1.0  0.0281879322749816  0.1408013671483701  0.99464974009603  1.0000
  H   H26       1.0  0.9718123777840971  0.8591966667561052  0.0053514893742842955  1.0000
  H   H27       1.0  0.873838800287338  0.16796036927292587  0.9121380898035344  1.0000
  H   H28       1.0  0.1261628687439753  0.8320376752738099  0.08786179897440863  1.0000
  H   H29       1.0  0.24241557096599567  0.8487653531843834  0.5951107446161148  1.0000
  H   H30       1.0  0.7575769114689307  0.1512338779447688  0.4048877865117009  1.0000
  H   H31       1.0  0.3878099601884912  0.8230260674468752  0.5186119858375735  1.0000
  H   H32       1.0  0.612187054778005  0.1769756103782001  0.48138706947001014  1.0000
  C   C1        1.0  0.3181685310971005  0.8382061425718278  0.8704860123171446  1.0000
  C   C2        1.0  0.6818316628954905  0.16179797428988957  0.12951418477229035  1.0000
  C   C3        1.0  0.3929293620829455  0.6932254500334454  0.9019103002475861  1.0000
  C   C4        1.0  0.6070748869592819  0.30677868682312237  0.09808876712588704  1.0000
  C   C5        1.0  0.7934862614944861  0.7439903181207511  0.768156707003975  1.0000
  C   C6        1.0  0.2065131889413649  0.2560101437744606  0.23184462469330222  1.0000
  C   C7        1.0  0.9155091076019417  0.6204170170902188  0.7835945004192839  1.0000
  C   C8        1.0  0.0844862768507326  0.37958341884418456  0.21640940717453117  1.0000
  C   C9        1.0  0.8967448291650584  0.8558583862916506  0.5730135024949166  1.0000
  C   C10       1.0  0.10325083229597  0.14414328387414338  0.4269861704147503  1.0000
  C   C11       1.0  0.43754734166562764  0.761071474032022  0.08604647935290195  1.0000
  C   C12       1.0  0.5624554093295728  0.23892534692557627  0.9139563034168181  1.0000
  C   C13       1.0  0.9494635650624232  0.32716355760189225  0.7462677789143088  1.0000
  C   C14       1.0  0.05053590724050139  0.6728369162252362  0.2537306604218159  1.0000
  C   C15       1.0  0.8898399242370729  0.7344890629938873  0.48143776625423856  1.0000
  C   C16       1.0  0.11015707979588998  0.2655126088652224  0.5185627352339213  1.0000
  C   C17       1.0  0.5950851155550225  0.7817990067392557  0.38164973482491876  1.0000
  C   C18       1.0  0.40491226515246137  0.21819780744507256  0.6183497336308366  1.0000
  C   C19       1.0  0.3340277470298929  0.6431625719504197  0.9972320082742887  1.0000
  C   C20       1.0  0.6659757584555948  0.35683790993964226  0.002768193707019916  1.0000
  C   C21       1.0  0.6933515855629508  0.6617441758326023  0.4306482630250415  1.0000
  C   C22       1.0  0.3066530182867239  0.3382550914172597  0.5693526636771795  1.0000
  C   C23       1.0  0.8265332790375338  0.45045796445516834  0.7345566738841856  1.0000
  C   C24       1.0  0.17346456821834982  0.5495412704642748  0.26544589464788265  1.0000
  O   O1        1.0  0.36857712798747133  0.830426465838073  0.5887624928654421  1.0000
  O   O2        1.0  0.6314185444070972  0.1695752102936865  0.41123573386365575  1.0000
  O   O3        1.0  0.357458615366916  0.8922048411827035  0.7905190090538955  1.0000
  O   O4        1.0  0.6425338889350912  0.1077944018783725  0.20947662971277495  1.0000
  O   O5        1.0  0.20948512291460727  0.9043308517915135  0.9170622486893125  1.0000
  O   O6        1.0  0.7905172787399195  0.09567084175576211  0.08293795166137134  1.0000
  O   O7        1.0  0.6305798749589826  0.7036734680640392  0.7242599136271795  1.0000
  O   O8        1.0  0.36942205468037775  0.2963258017651498  0.2757379097374867  1.0000
  O   O9        1.0  0.8596759022195145  0.8964568596735987  0.7997546706965439  1.0000
  O   O10       1.0  0.140325734011185  0.1035411669752548  0.20024955662312754  1.0000
  O   O11       1.0  0.04821302569631309  0.8988476951031288  0.6330784704720432  1.0000
  O   O12       1.0  0.9517810325847407  0.10115274808689631  0.3669224392724147  1.0000
  O   O13       1.0  0.7501485327162598  0.9062219535677084  0.5842936125918998  1.0000
  O   O14       1.0  0.2498473893528157  0.09378094188053862  0.4157039949044902  1.0000
  O   O15       1.0  0.44692627001490587  0.8168565631915783  0.4057014151090997  1.0000
  O   O16       1.0  0.5530754372837947  0.18314150223601194  0.5942934120368337  1.0000
  O   O17       1.0  0.6565197997166692  0.8483900161266719  0.3109081451083712  1.0000
  O   O18       1.0  0.34348115855851796  0.15160439135144085  0.6890885397356856  1.0000
  O   O19       1.0  0.8779413413792767  0.1741627553866749  0.7232168043788721  1.0000
  O   O20       1.0  0.12206000017843614  0.8258401736816622  0.27677760961888975  1.0000
  O   O21       1.0  0.6097526876505697  0.7733887938191942  0.10147113831261834  1.0000
  O   O22       1.0  0.3902511562420585  0.22660680951522488  0.8985330922682953  1.0000
  O   O23       1.0  0.3466551611636178  0.8416548064649447  0.13959990998770175  1.0000
  O   O24       1.0  0.6533459975851486  0.15834079348284297  0.860402663436233  1.0000
  O   O25       1.0  0.010363879124895383  0.18020642675161005  0.9309988586256926  1.0000
  O   O26       1.0  0.9896363355935448  0.8197843257599969  0.06899896082619963  1.0000
  O   O27       1.0  0.1191453591303286  0.3662001256949808  0.7774919272697647  1.0000
  O   O28       1.0  0.8808546289219167  0.6338027957140753  0.22250310433008025  1.0000
