data_image0
_chemical_formula_structural       Al6H74C105Br6O31
_chemical_formula_sum              "Al6 H74 C105 Br6 O31"
_cell_length_a       13.612784121382932
_cell_length_b       14.019033846062259
_cell_length_c       27.167800753877184
_cell_angle_alpha    89.91336467678474
_cell_angle_beta     88.77220443311789
_cell_angle_gamma    60.5777318255144

_space_group_name_H-M_alt    "P 1"
_space_group_IT_number       1

loop_
  _space_group_symop_operation_xyz
  'x, y, z'

loop_
  _atom_site_type_symbol
  _atom_site_label
  _atom_site_symmetry_multiplicity
  _atom_site_fract_x
  _atom_site_fract_y
  _atom_site_fract_z
  _atom_site_occupancy
  Al  Al1       1.0  0.8506534075599251  0.5661097155644157  0.4927164094393747  1.0000
  Al  Al2       1.0  0.6110932946976462  0.5749680967191821  0.4944956857028232  1.0000
  Al  Al3       1.0  0.6130392291281339  0.7873417900523663  0.4981438856303414  1.0000
  Al  Al4       1.0  0.8337707794406983  0.09439314668721012  0.9822331991633606  1.0000
  Al  Al5       1.0  0.08775716931025809  0.05267380760627559  0.9809001186903292  1.0000
  Al  Al6       1.0  0.05521473590230391  0.8568946340463979  0.9867918581775899  1.0000
  H   H1        1.0  0.35971232967138184  0.9552964576069269  0.20297975485528508  1.0000
  H   H2        1.0  0.2528908556965063  0.7118465830167793  0.20493778316983224  1.0000
  H   H3        1.0  0.7477375560522931  0.05351631163178891  0.2191465579794355  1.0000
  H   H4        1.0  0.05075895230180553  0.2421208604456097  0.20513029019263487  1.0000
  H   H5        1.0  0.2372451744396925  0.9963686149991703  0.8610339271333206  1.0000
  H   H6        1.0  0.04345296936482141  0.7543529677748854  0.8547450675107345  1.0000
  H   H7        1.0  0.781002954192985  0.1967078629756074  0.853418451115431  1.0000
  H   H8        1.0  0.3990985691088865  0.9327468638668959  0.6210717489313354  1.0000
  H   H9        1.0  0.9755750772292802  0.6469200014753439  0.618278065826978  1.0000
  H   H10       1.0  0.6541858165113015  0.3684906031358963  0.6185181201448702  1.0000
  H   H11       1.0  0.2677986212727177  0.0732586890471012  0.784369399260051  1.0000
  H   H12       1.0  0.9051413872005725  0.7043401426157985  0.19706683059096267  1.0000
  H   H13       1.0  0.12665040944867212  0.6553816682999026  0.7755550524686472  1.0000
  H   H14       1.0  0.6595305935684123  0.23213317459092755  0.7812355117778227  1.0000
  H   H15       1.0  0.32359951240417917  0.05150031580900821  0.6958431204096274  1.0000
  H   H16       1.0  0.10252207625189418  0.6173731871230713  0.6889283894298759  1.0000
  H   H17       1.0  0.6139184084400214  0.2931129391584761  0.6949154275884908  1.0000
  H   H18       1.0  0.3877076833439548  0.5410150000754114  0.7906909312504526  1.0000
  H   H19       1.0  0.5649390450307267  0.0238330168227705  0.7950925866615679  1.0000
  H   H20       1.0  0.119711206043867  0.3028219955235016  0.7647785591174883  1.0000
  H   H21       1.0  0.44231916102403807  0.5197935962941856  0.7029322248004634  1.0000
  H   H22       1.0  0.5434332472039571  0.9922433465077418  0.7078930664585104  1.0000
  H   H23       1.0  0.6977146007043445  0.3552039248292473  0.18661791946630765  1.0000
  H   H24       1.0  0.07770204386437032  0.3572501524408125  0.6782096111773939  1.0000
  H   H25       1.0  0.4125804779995831  0.9156753962414756  0.2846905522893978  1.0000
  H   H26       1.0  0.9244375658633426  0.6893525699462092  0.28251598100097663  1.0000
  H   H27       1.0  0.6862871645200529  0.34769242056584915  0.2729760989872646  1.0000
  H   H28       1.0  0.4677629012680384  0.5989323080984974  0.6243067905043418  1.0000
  H   H29       1.0  0.625750867728108  0.8925384430037369  0.6289508787634334  1.0000
  H   H30       1.0  0.9505385396313597  0.402734313093987  0.6069552048987109  1.0000
  H   H31       1.0  0.15187498838861302  0.9010620753441998  0.31047130278202684  1.0000
  H   H32       1.0  0.9320571493858056  0.9448889906872752  0.301247705654177  1.0000
  H   H33       1.0  0.9855495481950102  0.14078160928747963  0.2885100131522408  1.0000
  H   H34       1.0  0.5022285332334491  0.7764311648695497  0.2695815241213496  1.0000
  H   H35       1.0  0.2110604861736718  0.9880686010584442  0.30421893356353996  1.0000
  H   H36       1.0  0.013582726293584646  0.8002380095583207  0.3000960413994634  1.0000
  H   H37       1.0  0.8465384348196566  0.16192125523051  0.2938688952007595  1.0000
  H   H38       1.0  0.1557970948382206  0.014042712055228902  0.22227897754292064  1.0000
  H   H39       1.0  0.024848318735372545  0.7958065024014189  0.21418335081516918  1.0000
  H   H40       1.0  0.8287742622944237  0.15975505870072476  0.208025788702571  1.0000
  H   H41       1.0  0.11251152961734337  0.9144170733414255  0.22722060184317172  1.0000
  H   H42       1.0  0.9592761725310979  0.9404066925943012  0.2154822504081154  1.0000
  H   H43       1.0  0.9762539473094877  0.10499705008140839  0.20439294637921537  1.0000
  H   H44       1.0  0.396281251148551  0.6749268554030009  0.19472536023020134  1.0000
  H   H45       1.0  0.7770284425060937  0.7431672094742795  0.2864808968315914  1.0000
  H   H46       1.0  0.6630899249716079  0.99285067273658  0.20715032044803658  1.0000
  H   H47       1.0  0.9608849443581919  0.38057320294607416  0.1892873171008703  1.0000
  H   H48       1.0  0.1987870726934987  0.7432046242345788  0.3607238394237983  1.0000
  H   H49       1.0  0.334320254742835  0.6240943237999302  0.35399936392183673  1.0000
  H   H50       1.0  0.11309261739582872  0.6333924370110395  0.32452803072300185  1.0000
  H   H51       1.0  0.2487005444423644  0.5166907794806122  0.32351047593050464  1.0000
  H   H52       1.0  0.2555066872296834  0.5315811467733838  0.4167786919733204  1.0000
  H   H53       1.0  0.13705706898804243  0.5193136928342453  0.39953207137989477  1.0000
  H   H54       1.0  0.11836420413322908  0.6482292411487762  0.4169968409591435  1.0000
  H   H55       1.0  0.6523456820287379  0.20163566225502189  0.341282270066536  1.0000
  H   H56       1.0  0.703940126970551  0.4645087265286564  0.2736501217111425  1.0000
  H   H57       1.0  0.5643307819111529  0.1410229034688868  0.3375952175561282  1.0000
  H   H58       1.0  0.6344410538872224  0.2340170507533657  0.24933983451314398  1.0000
  H   H59       1.0  0.545042364175373  0.17601750571056132  0.24725791341671777  1.0000
  H   H60       1.0  0.40996517188138887  0.3203166303313338  0.30849528134419313  1.0000
  H   H61       1.0  0.4284848739143144  0.3806373384534537  0.2539155620087429  1.0000
  H   H62       1.0  0.4977085951829211  0.3806609138205488  0.30822282488688313  1.0000
  H   H63       1.0  0.15659218732949404  0.3376918946382474  0.3066361049310374  1.0000
  H   H64       1.0  0.11547354198039975  0.34775774250810093  0.24455883305966358  1.0000
  H   H65       1.0  0.2650152678997203  0.1380068999067348  0.30142115025159216  1.0000
  H   H66       1.0  0.20213326270718576  0.1360788559608608  0.24552252581681705  1.0000
  H   H67       1.0  0.4561828929576563  0.8176132122583581  0.18712905609105232  1.0000
  H   H68       1.0  0.29932329823905235  0.22281794055626847  0.2009545656765327  1.0000
  H   H69       1.0  0.4019099524904847  0.10545378213419102  0.23238348261215697  1.0000
  H   H70       1.0  0.3558167584569603  0.2380124165260469  0.2567226541225126  1.0000
  H   H71       1.0  0.7566497504188591  0.7849987752242099  0.20263205835867387  1.0000
  H   H72       1.0  0.7471772143237133  0.4505692014846048  0.18986617646102397  1.0000
  H   H73       1.0  0.033729571741822895  0.44833079138641807  0.46288187111030527  1.0000
  H   H74       1.0  0.6498854754226715  0.16665664452408177  0.9543299787832145  1.0000
  C   C1        1.0  0.7750774669400186  0.7777569805092597  0.43413311254189335  1.0000
  C   C2        1.0  0.25559589520626275  0.8661475697984498  0.1490653436151562  1.0000
  C   C3        1.0  0.6260297384909991  0.15600141737446188  0.3170037524103508  1.0000
  C   C4        1.0  0.572490650224907  0.22147458586067614  0.27099462036765243  1.0000
  C   C5        1.0  0.4716770141179368  0.3317460844219155  0.2860998249020953  1.0000
  C   C6        1.0  0.1362386826956481  0.2962314661464802  0.2774797896379654  1.0000
  C   C7        1.0  0.2338414192004521  0.18190352879636154  0.2666258474788422  1.0000
  C   C8        1.0  0.3280421178979651  0.18704057319239098  0.23743906813096777  1.0000
  C   C9        1.0  0.8522458752783781  0.8897525523156842  0.1510830638512601  1.0000
  C   C10       1.0  0.8962908688231084  0.2614800794175948  0.13903515386369494  1.0000
  C   C11       1.0  0.36863334531945224  0.7995053956232779  0.3460648596752734  1.0000
  C   C12       1.0  0.82395885479594  0.844390785108679  0.3514272651967759  1.0000
  C   C13       1.0  0.8348582896721483  0.3392417104916206  0.33917660629993673  1.0000
  C   C14       1.0  0.4076120171000285  0.7827117736563733  0.38710104241848614  1.0000
  C   C15       1.0  0.8075968138718326  0.8200069918319315  0.3924979740490714  1.0000
  C   C16       1.0  0.80918884920726  0.3791406999750535  0.380279667127738  1.0000
  C   C17       1.0  0.9447080650758509  0.1741321168684991  0.9062888636503391  1.0000
  C   C18       1.0  0.7782255304593664  0.44690974887215873  0.42382800981270224  1.0000
  C   C19       1.0  0.21550923446138623  0.8628870686102984  0.9199232156480692  1.0000
  C   C20       1.0  0.8943146732755737  0.8986686565106795  0.9161572587150534  1.0000
  C   C21       1.0  0.9267597615477854  0.20065628389057366  0.045932966708839715  1.0000
  C   C22       1.0  0.190210219903541  0.8954747323514524  0.05632023178304732  1.0000
  C   C23       1.0  0.8869563444216767  0.914592531842203  0.056955873833949504  1.0000
  C   C24       1.0  0.39965487434707114  0.8656136697196716  0.6416287108601043  1.0000
  C   C25       1.0  0.9057571472759208  0.710004032278597  0.6401876306478871  1.0000
  C   C26       1.0  0.7302654189778865  0.3597542307339481  0.6352855696445234  1.0000
  C   C27       1.0  0.3657282606464778  0.8804181432245953  0.6914356406533673  1.0000
  C   C28       1.0  0.9222484307860981  0.7324348886664112  0.6887149146244769  1.0000
  C   C29       1.0  0.4723260669845076  0.7486684085041871  0.4312168619605431  1.0000
  C   C30       1.0  0.7568965507250811  0.320454696797036  0.6834702612906868  1.0000
  C   C31       1.0  0.301088989358604  0.9058297201020766  0.7928452157572112  1.0000
  C   C32       1.0  0.9496801221772416  0.7747950174392313  0.7885315056554136  1.0000
  C   C33       1.0  0.8087466284957544  0.25099032238810537  0.7825744106190131  1.0000
  C   C34       1.0  0.7801678001130486  0.7399272539589105  0.5688107717060549  1.0000
  C   C35       1.0  0.7684126347281011  0.44182307896699763  0.5594135112113039  1.0000
  C   C36       1.0  0.4798209636733334  0.7473487584434862  0.56616171412135  1.0000
  C   C37       1.0  0.29705472408302563  0.9950820798609002  0.7653403706740465  1.0000
  C   C38       1.0  0.04381978178552971  0.697570805659275  0.7588871613248431  1.0000
  C   C39       1.0  0.7125249145915193  0.2557453367379523  0.7596014646854388  1.0000
  C   C40       1.0  0.3187785829497543  0.7312655960592735  0.21505141142092307  1.0000
  C   C41       1.0  0.327946570257481  0.982896649992135  0.7166563993252597  1.0000
  C   C42       1.0  0.030546954256635638  0.6767858085870344  0.7111176891474148  1.0000
  C   C43       1.0  0.6874802580073903  0.2893906239352901  0.7121064303766644  1.0000
  C   C44       1.0  0.2679306885284588  0.9175274219047509  0.8425214242205501  1.0000
  C   C45       1.0  0.9609393071797429  0.7959821733018303  0.8378249384358799  1.0000
  C   C46       1.0  0.8341860099157898  0.21947498046247196  0.831492428372876  1.0000
  C   C47       1.0  0.268799552162676  0.8316270067904838  0.869562073352441  1.0000
  C   C48       1.0  0.8686234171095755  0.871457643578054  0.8666318121634337  1.0000
  C   C49       1.0  0.9273000897527697  0.2158642761488352  0.8545362002798601  1.0000
  C   C50       1.0  0.4381497498659075  0.6769515899844263  0.6434334964343408  1.0000
  C   C51       1.0  0.7387944835142477  0.9808970347586053  0.22579722392212898  1.0000
  C   C52       1.0  0.7076590282923905  0.8487415479195874  0.6461816404189734  1.0000
  C   C53       1.0  0.8982045063093694  0.3789202554415567  0.6289085357081066  1.0000
  C   C54       1.0  0.40698461433512984  0.6877453763210469  0.6935112439223446  1.0000
  C   C55       1.0  0.7195390480660607  0.8705083681674637  0.6952950641488372  1.0000
  C   C56       1.0  0.9264159746103928  0.34224449796431605  0.6771802471607631  1.0000
  C   C57       1.0  0.36996460526633945  0.7902551504067719  0.7180908107511573  1.0000
  C   C58       1.0  0.8276767195136758  0.8123442270099659  0.717140714846437  1.0000
  C   C59       1.0  0.8552142264029782  0.3133230014546768  0.7052399021598605  1.0000
  C   C60       1.0  0.41229422493967155  0.5986787244654153  0.7214445908819588  1.0000
  C   C61       1.0  0.6258602810909792  0.9480960451108938  0.7247489640247837  1.0000
  C   C62       1.0  0.965645828008114  0.3123775536105953  0.21078389105932166  1.0000
  C   C63       1.0  0.023271456912524954  0.335694417825593  0.6999908594830659  1.0000
  C   C64       1.0  0.3820339966289907  0.6103210008085753  0.7702302474482325  1.0000
  C   C65       1.0  0.6375923174641615  0.9657016586395243  0.7730670025592304  1.0000
  C   C66       1.0  0.04674104275045468  0.3052603865581602  0.7479036150486424  1.0000
  C   C67       1.0  0.34265621836630095  0.7126078774789731  0.7959226130371138  1.0000
  C   C68       1.0  0.7449078130124535  0.9090631702435203  0.7961985877538995  1.0000
  C   C69       1.0  0.976631062192986  0.27656082422998207  0.7774072750528166  1.0000
  C   C70       1.0  0.4160992228649648  0.8446142529338586  0.26609959879928624  1.0000
  C   C71       1.0  0.8433536843558824  0.7593099916767231  0.2723414424247467  1.0000
  C   C72       1.0  0.7419479732007164  0.3795463111231783  0.2608048340339338  1.0000
  C   C73       1.0  0.3343458851012856  0.7152539367489864  0.27094798312272433  1.0000
  C   C74       1.0  0.3378336510843523  0.8027869059035809  0.7689314704046455  1.0000
  C   C75       1.0  0.840903348574699  0.8325902638452687  0.7672184171597751  1.0000
  C   C76       1.0  0.8807141743323753  0.27956859365131237  0.754954291899651  1.0000
  C   C77       1.0  0.30788216366490667  0.7288786858117858  0.8461787651534113  1.0000
  C   C78       1.0  0.760724793981062  0.9254293460724982  0.8460170832375983  1.0000
  C   C79       1.0  0.9970513717158624  0.24599053598783632  0.8274158958429042  1.0000
  C   C80       1.0  0.4352112706187654  0.7649753063520492  0.6177368049884324  1.0000
  C   C81       1.0  0.7994265960537135  0.7679368915038866  0.6191762793949849  1.0000
  C   C82       1.0  0.799864488536855  0.3895066669044026  0.6084877669842756  1.0000
  C   C83       1.0  0.21275084900453595  0.9148175582871186  0.28890565371617083  1.0000
  C   C84       1.0  0.7300743131286825  0.9685921396694043  0.28209969823410574  1.0000
  C   C85       1.0  0.9394930772150761  0.8703150753301969  0.2846491991967  1.0000
  C   C86       1.0  0.8999156200535623  0.18917535689171672  0.27453442132095063  1.0000
  C   C87       1.0  0.1825130192394084  0.9298418530832889  0.23377758354271805  1.0000
  C   C88       1.0  0.9502839277901175  0.8705465542899447  0.22789010419772648  1.0000
  C   C89       1.0  0.8975469374685048  0.17511570117124362  0.21816175221922415  1.0000
  C   C90       1.0  0.23174085972132738  0.8753347833795149  0.10574877857958143  1.0000
  C   C91       1.0  0.8636312756984451  0.8969921858453274  0.10699312852815272  1.0000
  C   C92       1.0  0.9119982239457443  0.24429461589944174  0.09498574912685603  1.0000
  C   C93       1.0  0.3335070315550298  0.8170167260626114  0.29511550392136604  1.0000
  C   C94       1.0  0.8338012506977177  0.8611118416383902  0.2993543219275666  1.0000
  C   C95       1.0  0.944442815684184  0.3405214966967662  0.26619217606555173  1.0000
  C   C96       1.0  0.855203159770035  0.3119591567003894  0.28711886269317693  1.0000
  C   C97       1.0  0.38424431890135907  0.8699749423229336  0.21155061252748206  1.0000
  C   C98       1.0  0.836383020382584  0.7753875174717778  0.2162871611890368  1.0000
  C   C99       1.0  0.7587580132804066  0.37274805852234033  0.20452696973936926  1.0000
  C   C100      1.0  0.28460365802402526  0.8502736515046292  0.20085002614228398  1.0000
  C   C101      1.0  0.8439767123996095  0.8790908056432657  0.20383830610447973  1.0000
  C   C102      1.0  0.8795043085813816  0.2805358253990988  0.19162455929895125  1.0000
  C   C103      1.0  0.24819920099037066  0.6660989365101243  0.3397683479221315  1.0000
  C   C104      1.0  0.19415332069383606  0.5938754071725043  0.3435095737541546  1.0000
  C   C105      1.0  0.17559754208996742  0.5719771692749517  0.39707281697657504  1.0000
  Br  Br1       1.0  0.3205958461720115  0.6061380585642483  0.8816078577615091  1.0000
  Br  Br2       1.0  0.6298164417310164  0.016377577485982904  0.8855646082457869  1.0000
  Br  Br3       1.0  0.11841879777352199  0.254336536853998  0.8574218648057513  1.0000
  Br  Br4       1.0  0.491277497826843  0.5843028327959772  0.2817456397325843  1.0000
  Br  Br5       1.0  0.5899078100561468  0.9536525464467686  0.29675350388485106  1.0000
  Br  Br6       1.0  0.8784409608801841  0.5087117760219682  0.2729003750919504  1.0000
  O   O1        1.0  0.842358436645789  0.48472750636183554  0.4349108529486757  1.0000
  O   O2        1.0  0.8393152332302449  0.45991505125435583  0.5367795416392555  1.0000
  O   O3        1.0  0.4991308638548374  0.65938068367943  0.5439359125083743  1.0000
  O   O4        1.0  0.6907948605317888  0.8125299015873395  0.547520739242984  1.0000
  O   O5        1.0  0.8495924831611036  0.646904307456829  0.5510074433350669  1.0000
  O   O6        1.0  0.6683242290990776  0.47037905359014326  0.5439723126678687  1.0000
  O   O7        1.0  0.501819686948828  0.8193604913084653  0.5476734185885734  1.0000
  O   O8        1.0  0.6897444942417011  0.6436769463065489  0.49478732484193716  1.0000
  O   O9        1.0  0.833296861195514  0.9949448468750433  0.9322605260503994  1.0000
  O   O10       1.0  0.042705672199595306  0.13884016670878196  0.9250169835294033  1.0000
  O   O11       1.0  0.17427950298932143  0.8070834321995264  0.939630604961913  1.0000
  O   O12       1.0  0.5012316523077587  0.6519070011053073  0.44657901849447523  1.0000
  O   O13       1.0  0.8628677945605927  0.1713349931896602  0.9274392926652414  1.0000
  O   O14       1.0  0.20638726180182218  0.9502202177908147  0.9392394056278878  1.0000
  O   O15       1.0  0.9819564890565645  0.8239007782544406  0.9376243616900201  1.0000
  O   O16       1.0  0.9941780992006886  0.00011803802320289888  0.9837729506458718  1.0000
  O   O17       1.0  0.8477592712234382  0.18679939204745466  0.030789951265312303  1.0000
  O   O18       1.0  0.18036111297640628  0.9816762993713511  0.03556142352586281  1.0000
  O   O19       1.0  0.9732846499922801  0.833112584915689  0.03547915804337981  1.0000
  O   O20       1.0  0.25296927374321837  0.6910547067237901  0.2881643693841483  1.0000
  O   O21       1.0  0.7275994352895908  0.05229937866720041  0.3102427817754788  1.0000
  O   O22       1.0  0.03802964962901711  0.290691756542067  0.294846579208894  1.0000
  O   O23       1.0  0.6741860988222614  0.840484004208747  0.4519218647563721  1.0000
  O   O24       1.0  0.8256535242301482  0.007591676463853501  0.03886751653119091  1.0000
  O   O25       1.0  0.020474824797929603  0.17429917492270863  0.022599410465915105  1.0000
  O   O26       1.0  0.1621868855518258  0.8288339531653717  0.03766733345145211  1.0000
  O   O27       1.0  0.8436871243262446  0.6825210945396734  0.4482969422574998  1.0000
  O   O28       1.0  0.6860244351864611  0.46644278896591357  0.4467224582265389  1.0000
  O   O29       1.0  0.5001077677686466  0.8146942541627454  0.4505261520229952  1.0000
  O   O30       1.0  0.9990289907834299  0.4940236056902804  0.4916936042340227  1.0000
  O   O31       1.0  0.6869651011882851  0.17885496977309154  0.9816226661159535  1.0000
