data_image0
_chemical_formula_structural       Cu4H44C52Br4N8O4
_chemical_formula_sum              "Cu4 H44 C52 Br4 N8 O4"
_cell_length_a       7.001777975311021
_cell_length_b       11.091161824543239
_cell_length_c       15.317725247512998
_cell_angle_alpha    90.00119127811763
_cell_angle_beta     90.00098143689318
_cell_angle_gamma    94.77122049689346

_space_group_name_H-M_alt    "P 1"
_space_group_IT_number       1

loop_
  _space_group_symop_operation_xyz
  'x, y, z'

loop_
  _atom_site_type_symbol
  _atom_site_label
  _atom_site_symmetry_multiplicity
  _atom_site_fract_x
  _atom_site_fract_y
  _atom_site_fract_z
  _atom_site_occupancy
  Cu  Cu1       1.0  0.3299880579759247  0.0690871640086641  0.7005575345352497  1.0000
  Cu  Cu2       1.0  0.16978717695212706  0.9308797766917111  0.2005282863019389  1.0000
  Cu  Cu3       1.0  0.6697882990249369  0.930876990146615  0.2994679212939744  1.0000
  Cu  Cu4       1.0  0.8299781454483226  0.06907621455577842  0.7994455951851052  1.0000
  H   H1        1.0  0.2474447173914527  0.9503721131045355  0.46533698710314286  1.0000
  H   H2        1.0  0.2525966209510386  0.049621617116088104  0.9653261625374653  1.0000
  H   H3        1.0  0.7526342289529069  0.04962428499992913  0.5346656208131861  1.0000
  H   H4        1.0  0.7474435884743329  0.9503846555593823  0.034661430016129195  1.0000
  H   H5        1.0  0.43862662866615654  0.5620879980802301  0.5473724651340035  1.0000
  H   H6        1.0  0.0613782428152803  0.4379216886323223  0.0473721786756727  1.0000
  H   H7        1.0  0.5613677520629281  0.4379172815407273  0.4526281840007584  1.0000
  H   H8        1.0  0.9386397988095041  0.5620899684500033  0.952625859246254  1.0000
  H   H9        1.0  0.1180904879334932  0.1391719638863123  0.39534088862028227  1.0000
  H   H10       1.0  0.381895379042561  0.8608104503997538  0.8953360704987005  1.0000
  H   H11       1.0  0.8818939938467877  0.8608115879618269  0.6046630245047736  1.0000
  H   H12       1.0  0.6180813350373172  0.13917941796000832  0.10465870290487797  1.0000
  H   H13       1.0  0.585232092299087  0.7244317341457888  0.796999445026124  1.0000
  H   H14       1.0  0.9147397619496616  0.2755652094174793  0.2969864479724364  1.0000
  H   H15       1.0  0.4147481038494476  0.2755518094553865  0.2030077322742514  1.0000
  H   H16       1.0  0.08523918450269716  0.7244309948957336  0.7030044084567564  1.0000
  H   H17       1.0  0.20660999156599047  0.33142511828253163  0.6846767629331721  1.0000
  H   H18       1.0  0.29340512389899226  0.6685797865557037  0.18467197074725308  1.0000
  H   H19       1.0  0.7933879857757872  0.6685747411070794  0.3153219276597312  1.0000
  H   H20       1.0  0.7066126236500734  0.3314183020258811  0.8153247613948336  1.0000
  H   H21       1.0  0.32098033202566256  0.754796026030512  0.4956719065838797  1.0000
  H   H22       1.0  0.17903421334999337  0.24521396693444336  0.9956673542499387  1.0000
  H   H23       1.0  0.6790139340244039  0.24520834896205906  0.5043365766050343  1.0000
  H   H24       1.0  0.820988113933531  0.754797698415068  0.0043287251735649  1.0000
  H   H25       1.0  0.09689443371350849  0.4557651012449214  0.5600308186073446  1.0000
  H   H26       1.0  0.403118039673295  0.5442332325237944  0.060028288866256184  1.0000
  H   H27       1.0  0.9031025100456843  0.5442266153867623  0.4399672190819643  1.0000
  H   H28       1.0  0.596896965664939  0.45576575533655034  0.9399723603024838  1.0000
  H   H29       1.0  0.046857686404635494  0.35596622542575324  0.4128337350132725  1.0000
  H   H30       1.0  0.4531437639233502  0.644021282365337  0.9128321009080762  1.0000
  H   H31       1.0  0.9531417699643541  0.6440227824883493  0.587164302665613  1.0000
  H   H32       1.0  0.5468520957924525  0.3559731457497648  0.0871659367973052  1.0000
  H   H33       1.0  0.6829312573994527  0.5301442794373302  0.7644798361970189  1.0000
  H   H34       1.0  0.8170671988962112  0.4698580424295502  0.2644787775037685  1.0000
  H   H35       1.0  0.317064487515843  0.4698492439583647  0.23552016001647047  1.0000
  H   H36       1.0  0.18293517898581504  0.5301427300073485  0.7355199131133074  1.0000
  H   H37       1.0  0.6932716383377695  0.4808893668508816  0.6540649404630586  1.0000
  H   H38       1.0  0.8067232853445174  0.5191176763726874  0.1540651921580221  1.0000
  H   H39       1.0  0.3067286219722831  0.5191059743519733  0.3459357086202957  1.0000
  H   H40       1.0  0.19327869758067348  0.4808912360765235  0.8459354570339029  1.0000
  H   H41       1.0  0.48528585291628445  0.4439926725001513  0.7158099584702597  1.0000
  H   H42       1.0  0.014714491485044298  0.5560104525166525  0.2158136876782635  1.0000
  H   H43       1.0  0.5147170348310794  0.5560008647247658  0.2841900377714452  1.0000
  H   H44       1.0  0.98529074355681  0.4439903254721713  0.7841863086269995  1.0000
  C   C1        1.0  0.20526934317897633  0.1250693912498093  0.5301385561904651  1.0000
  C   C2        1.0  0.2947404653964298  0.8749280134480771  0.030133606057269398  1.0000
  C   C3        1.0  0.7947524604818029  0.8749268962006057  0.4698627458232281  1.0000
  C   C4        1.0  0.7052588256302527  0.12507094392727683  0.9698631260186943  1.0000
  C   C5        1.0  0.25803504304288793  0.0016727513324213002  0.5266634320417012  1.0000
  C   C6        1.0  0.24195439198009439  0.9983226972909807  0.0266475137237805  1.0000
  C   C7        1.0  0.7419722455012092  0.998321699131971  0.47334896815471683  1.0000
  C   C8        1.0  0.7580306131664541  0.0016762322640814997  0.9733387728805523  1.0000
  C   C9        1.0  0.442580370760382  0.6402294017123752  0.5907842123785156  1.0000
  C   C10       1.0  0.05742583659854718  0.35977801115620883  0.0907814168230061  1.0000
  C   C11       1.0  0.5574210379867638  0.3597749870082795  0.4092177424541176  1.0000
  C   C12       1.0  0.9425859165285357  0.6402291110937244  0.9092153153632552  1.0000
  C   C13       1.0  0.45022132344193716  0.8398769928883001  0.7065144119683351  1.0000
  C   C14       1.0  0.04975766699567429  0.1601294212897457  0.2064981156014767  1.0000
  C   C15       1.0  0.5497576235098832  0.16011921179915592  0.2935005994834938  1.0000
  C   C16       1.0  0.9502150552716913  0.8398740071316055  0.7934888238267063  1.0000
  C   C17       1.0  0.3820692308678346  0.8475597054534632  0.6185311635087984  1.0000
  C   C18       1.0  0.11790543195697009  0.15243855388733613  0.1185139826182677  1.0000
  C   C19       1.0  0.6179062847731133  0.1524319699737475  0.38148515357244145  1.0000
  C   C20       1.0  0.8820694584106689  0.8475594515772827  0.881473609616215  1.0000
  C   C21       1.0  0.1363201841821109  0.1857226463590749  0.4581293531115378  1.0000
  C   C22       1.0  0.3636846827114724  0.8142671724847761  0.9581256517749496  1.0000
  C   C23       1.0  0.8636883030439009  0.8142699972199311  0.5418732544993077  1.0000
  C   C24       1.0  0.6363109473088143  0.1857254461207063  0.04187173307750668  1.0000
  C   C25       1.0  0.521204602890208  0.6317519358211501  0.6755822972992361  1.0000
  C   C26       1.0  0.9787834934787722  0.36825123648483793  0.1755764174747796  1.0000
  C   C27       1.0  0.47878457346555336  0.3682460975446773  0.324420963114477  1.0000
  C   C28       1.0  0.021213170070097886  0.6317495248381065  0.8244190089274781  1.0000
  C   C29       1.0  0.5239600448726094  0.7301671060058298  0.731941936871415  1.0000
  C   C30       1.0  0.9760213513485566  0.26983417701045204  0.23192933617425376  1.0000
  C   C31       1.0  0.47602238378340184  0.269822773649949  0.2680678518390778  1.0000
  C   C32       1.0  0.023963883547509085  0.7301665620947022  0.7680602146368045  1.0000
  C   C33       1.0  0.1886828779280094  0.2945724154343239  0.6190021735924984  1.0000
  C   C34       1.0  0.3113394067151559  0.7054295689863396  0.11899872824007218  1.0000
  C   C35       1.0  0.8113318977012083  0.7054247629062758  0.38099716988486415  1.0000
  C   C36       1.0  0.6886770271624982  0.29456942161962024  0.8810006152574061  1.0000
  C   C37       1.0  0.3763527180792678  0.7472962752311005  0.5618627058314374  1.0000
  C   C38       1.0  0.12365063490548776  0.2527084291280488  0.061856214002140995  1.0000
  C   C39       1.0  0.6236441754081028  0.2527062957835398  0.4381451245158345  1.0000
  C   C40       1.0  0.8763551742199168  0.7472968725185184  0.9381379067932655  1.0000
  C   C41       1.0  0.1241860288953163  0.36163205212116634  0.5495214794073249  1.0000
  C   C42       1.0  0.37583875215909046  0.6383650761574842  0.0495201470613509  1.0000
  C   C43       1.0  0.8758326878561176  0.6383624202272387  0.4504752527114561  1.0000
  C   C44       1.0  0.6241804240508771  0.3616330152607504  0.9504811549555325  1.0000
  C   C45       1.0  0.09707457572540787  0.3060737922627653  0.46838945763649775  1.0000
  C   C46       1.0  0.40294094518541346  0.6939181734176004  0.9683888296460592  1.0000
  C   C47       1.0  0.9029353399860228  0.6939188540213979  0.5316092329492932  1.0000
  C   C48       1.0  0.5970651442043077  0.30607808357816424  0.0316105137902056  1.0000
  C   C49       1.0  0.6000039202733518  0.5162502555115723  0.7040892376425703  1.0000
  C   C50       1.0  0.8999926127911237  0.4837547188021388  0.20408904019899407  1.0000
  C   C51       1.0  0.39999491144328647  0.4837450829052088  0.29591010575823856  1.0000
  C   C52       1.0  0.10000879588852742  0.5162496698679465  0.7959096504413878  1.0000
  Br  Br1       1.0  0.22468748703296626  0.17785453523406153  0.8249014640745356  1.0000
  Br  Br2       1.0  0.2755355996408113  0.8222509858605138  0.32488381975364433  1.0000
  Br  Br3       1.0  0.775560876293042  0.8222163625600841  0.17512921712076948  1.0000
  Br  Br4       1.0  0.7247094236888786  0.17787236745171242  0.6751076915150163  1.0000
  N   N1        1.0  0.3209855715332282  0.9593474687606899  0.5994290557393709  1.0000
  N   N2        1.0  0.1789536710604409  0.040647417926557204  0.0994048029332646  1.0000
  N   N3        1.0  0.6789554289127439  0.04064233084740471  0.4005911782226477  1.0000
  N   N4        1.0  0.8209836170003939  0.9593468964652132  0.9005723437103441  1.0000
  N   N5        1.0  0.22993630625816053  0.18014891902316071  0.6095268332501717  1.0000
  N   N6        1.0  0.2700898721791987  0.8198527800448262  0.1095208627286937  1.0000
  N   N7        1.0  0.7700901276923846  0.8198500910246341  0.3904777329944125  1.0000
  N   N8        1.0  0.7299210770878162  0.18014800897703512  0.8904771750837952  1.0000
  O   O1        1.0  0.4423245905500934  0.9318746813427765  0.7602724002547061  1.0000
  O   O2        1.0  0.057678855446404505  0.06813977337267832  0.2602567445640176  1.0000
  O   O3        1.0  0.5576761293534817  0.06812427903106061  0.23973934711123948  1.0000
  O   O4        1.0  0.9422979228381864  0.9318618538466981  0.7397301948666168  1.0000
