data_image0
_chemical_formula_structural       Cu4H28C4N12O20
_chemical_formula_sum              "Cu4 H28 C4 N12 O20"
_cell_length_a       7.068365438000047
_cell_length_b       7.482336784001218
_cell_length_c       12.316796141000404
_cell_angle_alpha    90.00001742120314
_cell_angle_beta     90.00000556180908
_cell_angle_gamma    90.0000129113335

_space_group_name_H-M_alt    "P 1"
_space_group_IT_number       1

loop_
  _space_group_symop_operation_xyz
  'x, y, z'

loop_
  _atom_site_type_symbol
  _atom_site_label
  _atom_site_symmetry_multiplicity
  _atom_site_fract_x
  _atom_site_fract_y
  _atom_site_fract_z
  _atom_site_occupancy
  Cu  Cu1       1.0  0.7499994917392456  0.3133592404035427  0.3748947001087756  1.0000
  Cu  Cu2       1.0  0.25000131157767674  0.18664188660757466  0.8748883030184655  1.0000
  Cu  Cu3       1.0  0.24999994377341037  0.6866381960928294  0.6251043591424476  1.0000
  Cu  Cu4       1.0  0.7499995386896854  0.813358222850006  0.1251123800326042  1.0000
  H   H1        1.0  0.7500009728985829  0.8270209673852876  0.36387821030866957  1.0000
  H   H2        1.0  0.2500056186686876  0.6729792621390944  0.8638580016812583  1.0000
  H   H3        1.0  0.24999987736890714  0.17297914207161824  0.6361240965413018  1.0000
  H   H4        1.0  0.7500008906158868  0.3270235202814576  0.1361410575719901  1.0000
  H   H5        1.0  0.4221132241068303  0.3916663234309255  0.3095757818633018  1.0000
  H   H6        1.0  0.5778918138071417  0.10833352150014972  0.809577471320459  1.0000
  H   H7        1.0  0.9221128959689506  0.6083338191042811  0.690424911975569  1.0000
  H   H8        1.0  0.0778922551776802  0.8916692278420303  0.19042401284343669  1.0000
  H   H9        1.0  0.5778876261602972  0.6083324495461185  0.690424089287873  1.0000
  H   H10       1.0  0.42210903646039805  0.8916679244383089  0.1904232117310656  1.0000
  H   H11       1.0  0.07788653954428777  0.39166762683437645  0.3095749591764587  1.0000
  H   H12       1.0  0.9221085950900372  0.10833355457729973  0.8095766702085427  1.0000
  H   H13       1.0  0.4159689524852793  0.3626686418697105  0.44275245037255206  1.0000
  H   H14       1.0  0.584026201857597  0.13733510157985043  0.9427565955397911  1.0000
  H   H15       1.0  0.9159686122287878  0.6373301630041225  0.5572474311813024  1.0000
  H   H16       1.0  0.0840252011749811  0.8626676489414747  0.0572440771091038  1.0000
  H   H17       1.0  0.5840318977815003  0.6373274581455916  0.5572474207777134  1.0000
  H   H18       1.0  0.4159746484100565  0.862667680839813  0.05724327561273409  1.0000
  H   H19       1.0  0.0840308232840954  0.3626686099727933  0.4427524399698228  1.0000
  H   H20       1.0  0.9159756490925588  0.13733379699698386  0.9427566059424206  1.0000
  H   H21       1.0  0.41996701897880234  0.18776342474628652  0.36016922695816334  1.0000
  H   H22       1.0  0.5800351969136059  0.3122377145276615  0.8601678069537471  1.0000
  H   H23       1.0  0.9199667367212284  0.8122367173771255  0.639829842947286  1.0000
  H   H24       1.0  0.08003557742946299  0.6877623622650334  0.1398328654441343  1.0000
  H   H25       1.0  0.5800338312880343  0.8122340117505619  0.6398290203936554  1.0000
  H   H26       1.0  0.4199642385993982  0.6877623949304593  0.1398312522983787  1.0000
  H   H27       1.0  0.08003269879177567  0.18776339208099554  0.3601692163048398  1.0000
  H   H28       1.0  0.9199652728381407  0.31223908367308434  0.8601686295068376  1.0000
  C   C1        1.0  0.7499995378910069  0.6814848894762804  0.3475549226376415  1.0000
  C   C2        1.0  0.2499999774906527  0.8185220360456357  0.847538872008343  1.0000
  C   C3        1.0  0.2500027271308412  0.31851655646197236  0.652446572313373  1.0000
  C   C4        1.0  0.7499994580224083  0.1814780734121442  0.15246099914323707  1.0000
  N   N1        1.0  0.7499994845528517  0.13356772245364112  0.5957572701706084  1.0000
  N   N2        1.0  0.250002692209776  0.3664269546454548  0.0957506814489548  1.0000
  N   N3        1.0  0.2499957066975398  0.8664323870033998  0.4042434128802839  1.0000
  N   N4        1.0  0.7499995728115394  0.6335718183320581  0.9042483778028085  1.0000
  N   N5        1.0  0.4733655205836839  0.31428138685433277  0.3719393777570446  1.0000
  N   N6        1.0  0.5266366970508612  0.18572107909621854  0.8719403044772066  1.0000
  N   N7        1.0  0.9733652034706566  0.6857174290506479  0.6280596954948976  1.0000
  N   N8        1.0  0.026637108937954696  0.8142803239145736  0.1280611764736292  1.0000
  N   N9        1.0  0.526635329683387  0.6857173861230521  0.6280596814946762  1.0000
  N   N10       1.0  0.47336273846237725  0.8142803668424392  0.1280595666748212  1.0000
  N   N11       1.0  0.026634232042169997  0.3142813439266022  0.3719393637567734  1.0000
  N   N12       1.0  0.9733637413296421  0.1857211220235442  0.8719403184773427  1.0000
  O   O1        1.0  0.7500037201432475  0.022320357906473  0.6753071405351179  1.0000
  O   O2        1.0  0.24999846839153858  0.4776769258990187  0.17529737950842866  1.0000
  O   O3        1.0  0.24999713012394403  0.9776784150702371  0.3246935425154973  1.0000
  O   O4        1.0  0.7499995523670434  0.5223218470780964  0.8247016797431994  1.0000
  O   O5        1.0  0.7499995305018174  0.5783299153555107  0.4301339925846007  1.0000
  O   O6        1.0  0.2500028266067957  0.921659567133247  0.9301236950608497  1.0000
  O   O7        1.0  0.250001319765552  0.4216701941020702  0.5698666904664691  1.0000
  O   O8        1.0  0.7499980236606233  0.07834187880588668  0.0698753641917733  1.0000
  O   O9        1.0  0.7499966398618199  0.07207093170241313  0.4993303875037611  1.0000
  O   O10       1.0  0.2500070113765887  0.42792073630196376  0.999321718015949  1.0000
  O   O11       1.0  0.24999572188026054  0.9279305142352285  0.5006702955474935  1.0000
  O   O12       1.0  0.7499980831531017  0.5720767001946142  0.0006781531348991998  1.0000
  O   O13       1.0  0.7499981085427193  0.6247192411893819  0.2507139728528713  1.0000
  O   O14       1.0  0.2499971482456544  0.8752944473981901  0.7506898416502849  1.0000
  O   O15       1.0  0.2500027417248276  0.37528220474906954  0.7492867101986462  1.0000
  O   O16       1.0  0.7499980430046165  0.12470566205952592  0.2493092176017058  1.0000
  O   O17       1.0  0.7499966779322946  0.29842530375157844  0.6135143788067836  1.0000
  O   O18       1.0  0.24999842768704636  0.20156935855607125  0.11351011420791218  1.0000
  O   O19       1.0  0.24999709856391655  0.7015748057049863  0.3864871161435132  1.0000
  O   O20       1.0  0.750002422580323  0.7984307509015096  0.8864905688431576  1.0000
