data_image0
_chemical_formula_structural       Zn8H80C128N8O32
_chemical_formula_sum              "Zn8 H80 C128 N8 O32"
_cell_length_a       10.980174910614373
_cell_length_b       19.74136881600182
_cell_length_c       21.624053923714303
_cell_angle_alpha    90.00002646468407
_cell_angle_beta     100.6316220286172
_cell_angle_gamma    89.99995436188996

_space_group_name_H-M_alt    "P 1"
_space_group_IT_number       1

loop_
  _space_group_symop_operation_xyz
  'x, y, z'

loop_
  _atom_site_type_symbol
  _atom_site_label
  _atom_site_symmetry_multiplicity
  _atom_site_fract_x
  _atom_site_fract_y
  _atom_site_fract_z
  _atom_site_occupancy
  Zn  Zn1       1.0  0.3536261765190645  0.9508327637642611  0.3638631972255267  1.0000
  Zn  Zn2       1.0  0.6463724942337663  0.45083337113807437  0.13613647139580104  1.0000
  Zn  Zn3       1.0  0.6463724730278173  0.04916682126988551  0.6361368186653917  1.0000
  Zn  Zn4       1.0  0.3536261537014623  0.5491672269969288  0.8638630818970653  1.0000
  Zn  Zn5       1.0  0.3161741717025918  0.05040734287663891  0.2660279885269502  1.0000
  Zn  Zn6       1.0  0.6838250293612446  0.5504080431561748  0.2339715609894596  1.0000
  Zn  Zn7       1.0  0.683825401260229  0.9495922421570884  0.7339711881724538  1.0000
  Zn  Zn8       1.0  0.31617454682286444  0.44959255497876444  0.7660285409064823  1.0000
  H   H1        1.0  0.36730131956817047  0.08137029391024701  0.5181324774849185  1.0000
  H   H2        1.0  0.6327000412039325  0.581370129205013  0.9818667654744854  1.0000
  H   H3        1.0  0.6327001082810852  0.918629797673717  0.4818673338225066  1.0000
  H   H4        1.0  0.3673023132832185  0.4186299623787663  0.018133131837821292  1.0000
  H   H5        1.0  0.3094205915562256  0.2391303553693264  0.37894992514789283  1.0000
  H   H6        1.0  0.6905792862069545  0.7391304889520075  0.12104976650820724  1.0000
  H   H7        1.0  0.6905789846282173  0.7608697362151204  0.621050176747971  1.0000
  H   H8        1.0  0.3094212150044058  0.26086960263214115  0.8789499587943435  1.0000
  H   H9        1.0  0.3635414639864435  0.16490758307816122  0.601982483564157  1.0000
  H   H10       1.0  0.6364607127890451  0.6649078808176442  0.8980168702480281  1.0000
  H   H11       1.0  0.6364608888897295  0.8350925085054971  0.3980169511499482  1.0000
  H   H12       1.0  0.3635407150598766  0.3350927173168117  0.10198294105947527  1.0000
  H   H13       1.0  0.9160832452005889  0.083194698067885  0.2448378276513948  1.0000
  H   H14       1.0  0.08391591405181488  0.5831951682387312  0.25516219421564296  1.0000
  H   H15       1.0  0.08391633098385398  0.9168053935165617  0.7551622742444764  1.0000
  H   H16       1.0  0.916083660521309  0.416805429896087  0.7448374450821047  1.0000
  H   H17       1.0  0.6900734019233352  0.08281129149217042  0.25309790269832166  1.0000
  H   H18       1.0  0.3099257562259297  0.5828116573760697  0.24690165645646528  1.0000
  H   H19       1.0  0.3099261726504565  0.9171882935416706  0.7469017365992766  1.0000
  H   H20       1.0  0.690072893320618  0.4171884342085621  0.7530983594345313  1.0000
  H   H21       1.0  0.34146797558543796  0.6958870494535888  0.8787908828418832  1.0000
  H   H22       1.0  0.6585489912018686  0.19588612423171983  0.6212112440574625  1.0000
  H   H23       1.0  0.6585492067186819  0.30411354867786144  0.12121085314672794  1.0000
  H   H24       1.0  0.34146819432520914  0.8041129542485025  0.378791417127317  1.0000
  H   H25       1.0  0.23171627728661548  0.9135855631016556  0.11193482255206526  1.0000
  H   H26       1.0  0.7682870743737097  0.4135862439894923  0.3880648024164301  1.0000
  H   H27       1.0  0.7682870022277866  0.08641402193133985  0.8880646981668432  1.0000
  H   H28       1.0  0.2317162051400246  0.5864143541444805  0.6119347183026276  1.0000
  H   H29       1.0  0.3324260544904831  0.6122695501717177  0.09169594749032937  1.0000
  H   H30       1.0  0.6675684314557913  0.11226977936186702  0.408303190402293  1.0000
  H   H31       1.0  0.6675679618665881  0.3877305414138308  0.9083036383762813  1.0000
  H   H32       1.0  0.33242465665206566  0.8877308187742378  0.5916958468613129  1.0000
  H   H33       1.0  0.41499045623974945  0.7707925199613755  0.2464991749846063  1.0000
  H   H34       1.0  0.5850093844239338  0.2707927073679813  0.2535019138838804  1.0000
  H   H35       1.0  0.5850091215556713  0.22920757162318495  0.7535013895094591  1.0000
  H   H36       1.0  0.4149911200093824  0.7292073842163946  0.7464987366150593  1.0000
  H   H37       1.0  0.33556565187928555  0.7805468552569581  0.963748918293042  1.0000
  H   H38       1.0  0.6644484212625558  0.2805458844201497  0.536252513175185  1.0000
  H   H39       1.0  0.6644487521217854  0.21945424942564534  0.03625302227921167  1.0000
  H   H40       1.0  0.3355659827398583  0.719453194060506  0.46374942739676317  1.0000
  H   H41       1.0  0.3020016712744251  0.32473589105391915  0.46305826573362185  1.0000
  H   H42       1.0  0.6979980931154515  0.8247359787795507  0.03694145138549491  1.0000
  H   H43       1.0  0.6979988315479062  0.67526420053035  0.5369419221671234  1.0000
  H   H44       1.0  0.30200240970687986  0.17526411280471882  0.9630587365152504  1.0000
  H   H45       1.0  0.9839068524800962  0.921738394278748  0.379296466014729  1.0000
  H   H46       1.0  0.0160937100803693  0.42173876645901504  0.12070336596231354  1.0000
  H   H47       1.0  0.016093650342234898  0.07826169730551412  0.6207037218860164  1.0000
  H   H48       1.0  0.9839058644927616  0.5782618316758035  0.879296273335434  1.0000
  H   H49       1.0  0.4235956930959475  0.6871584780845911  0.16070247857968664  1.0000
  H   H50       1.0  0.5764098165464373  0.18715871272704024  0.3392986388432674  1.0000
  H   H51       1.0  0.576408516277965  0.3128416134989395  0.8392980533405702  1.0000
  H   H52       1.0  0.42359532107634823  0.8128413788564259  0.6607024416800653  1.0000
  H   H53       1.0  0.7602427629063797  0.9239779063682936  0.39055912609193644  1.0000
  H   H54       1.0  0.2397568700506554  0.4239776672306876  0.10944062054627317  1.0000
  H   H55       1.0  0.2397568132783903  0.07602167866566133  0.6094409758038635  1.0000
  H   H56       1.0  0.7602427045231435  0.5760219178031536  0.890559018751318  1.0000
  H   H57       1.0  0.1874248677786312  0.3661211102626468  0.5381184688063028  1.0000
  H   H58       1.0  0.8125761174889802  0.8661213623200441  0.9618813214493469  1.0000
  H   H59       1.0  0.812575633433063  0.6338784747710094  0.46188125649616996  1.0000
  H   H60       1.0  0.18742530874929733  0.13387872926380603  0.03811802725987688  1.0000
  H   H61       1.0  0.34853798725637825  0.5354384787809181  0.0023419128688999796  1.0000
  H   H62       1.0  0.6514501139769564  0.0354392668853549  0.49765660013656526  1.0000
  H   H63       1.0  0.651450467663011  0.46456059970464036  0.9976566943701  1.0000
  H   H64       1.0  0.34853741430352864  0.9645613312518511  0.5023419210977733  1.0000
  H   H65       1.0  0.22968786966690397  0.829493095373543  0.026078848076117787  1.0000
  H   H66       1.0  0.7703183732762182  0.3294943253684367  0.4739210098941269  1.0000
  H   H67       1.0  0.7703191163990791  0.17050648965872037  0.973921016662302  1.0000
  H   H68       1.0  0.22968675951297257  0.6705067793156516  0.5260786828347647  1.0000
  H   H69       1.0  0.18608745245318656  0.4426523012584127  0.630497962869775  1.0000
  H   H70       1.0  0.813912504820685  0.9426530125166868  0.8695017641449637  1.0000
  H   H71       1.0  0.8139121221206123  0.5573472837754283  0.36950167642782344  1.0000
  H   H72       1.0  0.18608706975244615  0.05734758561813181  0.13049787515278405  1.0000
  H   H73       1.0  0.4504193665011725  0.327470795539469  0.7446851521215831  1.0000
  H   H74       1.0  0.5495798166779267  0.8274710595320303  0.7553144546279353  1.0000
  H   H75       1.0  0.5495792830453751  0.6725292960451628  0.2553148637694135  1.0000
  H   H76       1.0  0.45041883125797705  0.17252852550199554  0.2446850986647816  1.0000
  H   H77       1.0  0.4663505131002167  0.2466298710561575  0.6574152415242762  1.0000
  H   H78       1.0  0.5336515570564301  0.7466291731747605  0.8425845991939197  1.0000
  H   H79       1.0  0.533650916359676  0.7533707270784122  0.3425850323814216  1.0000
  H   H80       1.0  0.4663507974310547  0.25337041185853343  0.15741529811830896  1.0000
  C   C1        1.0  0.3378170226410048  0.15503994508547694  0.4431707061136974  1.0000
  C   C2        1.0  0.6621829697105496  0.6550405652913726  0.056829885726514776  1.0000
  C   C3        1.0  0.6621825503214821  0.8449601464987355  0.5568284705857776  1.0000
  C   C4        1.0  0.33781753633373757  0.344959526293124  0.9431712273706265  1.0000
  C   C5        1.0  0.33088470693575533  0.25089603917771097  0.5385325810889439  1.0000
  C   C6        1.0  0.6691164309326751  0.7508958480173222  0.9614671748934067  1.0000
  C   C7        1.0  0.6691167209134931  0.7491040524062529  0.4614672302184814  1.0000
  C   C8        1.0  0.3308849969165806  0.2491042435666487  0.038532636414018384  1.0000
  C   C9        1.0  0.32772844906395443  0.2994544891487508  0.5898160851050986  1.0000
  C   C10       1.0  0.6722754092411306  0.7994552837342539  0.9101853311301435  1.0000
  C   C11       1.0  0.672275763532582  0.7005445893340365  0.4101853720114049  1.0000
  C   C12       1.0  0.32772601860812495  0.20054480784970966  0.08981448017728155  1.0000
  C   C13       1.0  0.32405194307691687  0.8473130541221113  0.18430564863218274  1.0000
  C   C14       1.0  0.675951497963652  0.3473137392779151  0.3156944192220194  1.0000
  C   C15       1.0  0.6759494847730138  0.15268602436088233  0.8156941626750933  1.0000
  C   C16       1.0  0.3240499298852626  0.6526868588565409  0.684305392085484  1.0000
  C   C17       1.0  0.9621110904569861  0.0018599190335209007  0.31104049867631994  1.0000
  C   C18       1.0  0.0378900297891533  0.5018593629818399  0.18895967100762323  1.0000
  C   C19       1.0  0.03788941236534529  0.9981401725507413  0.6889596892244325  1.0000
  C   C20       1.0  0.9621113980607703  0.4981397155011465  0.8110401402996527  1.0000
  C   C21       1.0  0.35269638994157043  0.13460469794252822  0.5060925339740903  1.0000
  C   C22       1.0  0.647304900328528  0.6346045328623477  0.9939067248196732  1.0000
  C   C23       1.0  0.647305037907685  0.8653953936414355  0.493907277333335  1.0000
  C   C24       1.0  0.3526965275207203  0.365395558721616  0.006093086487752  1.0000
  C   C25       1.0  0.5766250201837763  0.0020069076420768006  0.32524949773885936  1.0000
  C   C26       1.0  0.42337331834248454  0.5020071867575098  0.17474995137609275  1.0000
  C   C27       1.0  0.4233736261411492  0.9979926773918353  0.6747495929556633  1.0000
  C   C28       1.0  0.5766262594525955  0.49799341137754294  0.8252506131180508  1.0000
  C   C29       1.0  0.3417889484535266  0.10291841910861174  0.39309128144171257  1.0000
  C   C30       1.0  0.6582111113155021  0.6029185598706236  0.10690883229689516  1.0000
  C   C31       1.0  0.6582106277309094  0.897081672475835  0.6069088204541584  1.0000
  C   C32       1.0  0.34178846647957767  0.39708203826442917  0.8930917321972484  1.0000
  C   C33       1.0  0.3195746714013196  0.2237889774735038  0.42803049418455413  1.0000
  C   C34       1.0  0.6804252250685393  0.7237890907116835  0.07196873031011818  1.0000
  C   C35       1.0  0.6804258298100336  0.7762111141106447  0.5719692311179896  1.0000
  C   C36       1.0  0.319575276142821  0.2762110008724576  0.9280309949924327  1.0000
  C   C37       1.0  0.3274765890083629  0.7523768560481869  0.08718924692765737  1.0000
  C   C38       1.0  0.6725288342604826  0.25237759187569964  0.4128118898943141  1.0000
  C   C39       1.0  0.6725276203658835  0.247622728984851  0.9128112849925212  1.0000
  C   C40       1.0  0.3274763033619692  0.7476230062582517  0.5871891906290967  1.0000
  C   C41       1.0  0.3326594766529425  0.7040058292943174  0.035848744566358386  1.0000
  C   C42       1.0  0.6673441590125078  0.20400608685320526  0.46415266845621506  1.0000
  C   C43       1.0  0.6673456609701846  0.29599375573865677  0.9641523359568961  1.0000
  C   C44       1.0  0.3326600535833676  0.7959940047305595  0.5358487886604306  1.0000
  C   C45       1.0  0.35078557968275687  0.18196464813951255  0.5532486659844263  1.0000
  C   C46       1.0  0.6492165761138438  0.6819649648955706  0.9467511554995124  1.0000
  C   C47       1.0  0.6492167748047278  0.8180349368937813  0.446751231327802  1.0000
  C   C48       1.0  0.3507857799839512  0.3180356332388144  0.05324920441106679  1.0000
  C   C49       1.0  0.32721780566815534  0.8997385089709554  0.23501796263472832  1.0000
  C   C50       1.0  0.6727818658351126  0.3997376502109661  0.26498362718626817  1.0000
  C   C51       1.0  0.6727817753482127  0.10026310226530911  0.7649835270559604  1.0000
  C   C52       1.0  0.3272186434314719  0.60026193482328  0.7350184111071909  1.0000
  C   C53       1.0  0.8801486486451466  0.048064424477608704  0.27593096925176036  1.0000
  C   C54       1.0  0.11985055713306278  0.5480643564438807  0.224069042165837  1.0000
  C   C55       1.0  0.11985092753962329  0.9519351605563529  0.7240691326440325  1.0000
  C   C56       1.0  0.8801480924138188  0.45193522859026564  0.7759309737250815  1.0000
  C   C57       1.0  0.7556932251716617  0.04829949274467542  0.28098260839793443  1.0000
  C   C58       1.0  0.2443050520463999  0.5482993670293866  0.2190168544865044  1.0000
  C   C59       1.0  0.24430542115326395  0.9517000922892367  0.7190164822965881  1.0000
  C   C60       1.0  0.7556935975004818  0.45170021800475274  0.7809831614044139  1.0000
  C   C61       1.0  0.7119186965700735  0.0032276635542559  0.3220870763966345  1.0000
  C   C62       1.0  0.2880796419503895  0.5032280041957692  0.17791283567962776  1.0000
  C   C63       1.0  0.2880799497551862  0.9967714149291714  0.6779120142978099  1.0000
  C   C64       1.0  0.7119199342343876  0.4967715808381857  0.822087266216165  1.0000
  C   C65       1.0  0.09641852927470039  0.0009979604989496004  0.30580773383144316  1.0000
  C   C66       1.0  0.9035807420587433  0.5009980367581265  0.19419318878284736  1.0000
  C   C67       1.0  0.9035810501320326  0.9990016245352396  0.6941932932607455  1.0000
  C   C68       1.0  0.09641883734731489  0.49900256137704013  0.8058078383094976  1.0000
  C   C69       1.0  0.3406226943711771  0.6801885556965958  0.9270679090795394  1.0000
  C   C70       1.0  0.6593887317680539  0.18018811221661224  0.5729332345229635  1.0000
  C   C71       1.0  0.6593889281055637  0.3198120424359559  0.07293331087981159  1.0000
  C   C72       1.0  0.340622892320674  0.8198109662645978  0.42706844803435456  1.0000
  C   C73       1.0  0.2721959249072085  0.8635079754565284  0.12191459539659624  1.0000
  C   C74       1.0  0.7278074930743158  0.3635086692226822  0.3780850146765287  1.0000
  C   C75       1.0  0.7278073546071935  0.13649160957646703  0.878084925322312  1.0000
  C   C76       1.0  0.27219578805038935  0.6364919289113973  0.6219149686407305  1.0000
  C   C77       1.0  0.3363500186827224  0.6336170948570868  0.04568024776022379  1.0000
  C   C78       1.0  0.6636490721809807  0.13361734907498862  0.4543193265065211  1.0000
  C   C79       1.0  0.6636486292531812  0.3663824901769389  0.954319305532493  1.0000
  C   C80       1.0  0.33634864911668666  0.8663827425097074  0.5456801407813926  1.0000
  C   C81       1.0  0.3755219592761633  0.782891981331119  0.19782397292740225  1.0000
  C   C82       1.0  0.6244797154171948  0.2828921758921582  0.3021763663533789  1.0000
  C   C83       1.0  0.6244785435465089  0.21710760370265805  0.8021762149732649  1.0000
  C   C84       1.0  0.37552264068093416  0.7171079156917417  0.6978239935571222  1.0000
  C   C85       1.0  0.33508790472967576  0.7266635630511332  0.9744486354867019  1.0000
  C   C86       1.0  0.6649234598591746  0.2266635996886067  0.5255525219396728  1.0000
  C   C87       1.0  0.6649237193583771  0.27333652853104706  0.02555304707076539  1.0000
  C   C88       1.0  0.33508816261790736  0.7733364918934528  0.47444869801959993  1.0000
  C   C89       1.0  0.31488301238326233  0.27123149601721513  0.47519212053795445  1.0000
  C   C90       1.0  0.68511774950408  0.7712315833066585  0.024807666671378584  1.0000
  C   C91       1.0  0.685118415465986  0.7287685955667487  0.5248076907694779  1.0000
  C   C92       1.0  0.31488367995615346  0.22876850827742612  0.9751926072342482  1.0000
  C   C93       1.0  0.9186180565494904  0.9570449708935772  0.3523031014051695  1.0000
  C   C94       1.0  0.08138153744707918  0.45704532781874024  0.14769804286338933  1.0000
  C   C95       1.0  0.08138152124625718  0.042954614140498414  0.6476974630888248  1.0000
  C   C96       1.0  0.9186180419593127  0.5429547637659412  0.8523029842288775  1.0000
  C   C97       1.0  0.3783566990149011  0.736079105281114  0.14997621830600133  1.0000
  C   C98       1.0  0.6216450360649901  0.23607932531551515  0.3500236444522925  1.0000
  C   C99       1.0  0.6216456538609306  0.26392149285304367  0.8500232164081819  1.0000
  C   C100      1.0  0.3783573200334729  0.7639202597178925  0.6499767154581375  1.0000
  C   C101      1.0  0.7946549758444732  0.9582136118355042  0.35828417642055393  1.0000
  C   C102      1.0  0.20534368674491077  0.4582134042761439  0.14171595699425404  1.0000
  C   C103      1.0  0.20534367370207454  0.04178647974912761  0.6417158394704428  1.0000
  C   C104      1.0  0.7946558894398661  0.5417861807578106  0.8582841449015387  1.0000
  C   C105      1.0  0.2490798699898633  0.3561800545810955  0.5827393159053071  1.0000
  C   C106      1.0  0.7509211268327289  0.8561798048119654  0.9172600087951462  1.0000
  C   C107      1.0  0.7509197045835947  0.6438200370032379  0.4172603233923694  1.0000
  C   C108      1.0  0.24908029940554136  0.14382028677188435  0.08273933991408457  1.0000
  C   C109      1.0  0.3439022766078494  0.5901953193464635  0.9960440596123018  1.0000
  C   C110      1.0  0.6560935158711203  0.09019534896071242  0.5039555951392315  1.0000
  C   C111      1.0  0.6560935946359905  0.4098047722388361  0.00395616086225198  1.0000
  C   C112      1.0  0.3439023537617416  0.9098047426244661  0.496044162737128  1.0000
  C   C113      1.0  0.27300042171334127  0.8165755539621955  0.0741503258063716  1.0000
  C   C114      1.0  0.7270049133104592  0.31657677881056406  0.4258499049149193  1.0000
  C   C115      1.0  0.7270047110771853  0.18342352451994515  0.9258493669222144  1.0000
  C   C116      1.0  0.2730002210900437  0.683423819323153  0.5741502504120886  1.0000
  C   C117      1.0  0.24659358224043604  0.3984648765635158  0.6338209429489152  1.0000
  C   C118      1.0  0.7534064335542111  0.8984651063892176  0.8661787709223814  1.0000
  C   C119      1.0  0.7534059907223847  0.6015347084702115  0.3661782337504888  1.0000
  C   C120      1.0  0.246594067657142  0.10153498519493102  0.13382095438016955  1.0000
  C   C121      1.0  0.3946687003897935  0.3338214195079488  0.6978940354116003  1.0000
  C   C122      1.0  0.6053304759897173  0.8338216824902106  0.8021060358250832  1.0000
  C   C123      1.0  0.6053299475457763  0.6661786720765691  0.3021055178811948  1.0000
  C   C124      1.0  0.3946691001950596  0.16617790254375114  0.19789406607070956  1.0000
  C   C125      1.0  0.402437242194587  0.2893032158813469  0.649284267078073  1.0000
  C   C126      1.0  0.5975647730577904  0.7893024938065736  0.850716048931332  1.0000
  C   C127      1.0  0.5975641872653056  0.7106973822532228  0.35071600682762477  1.0000
  C   C128      1.0  0.4024366547917991  0.2106970912268978  0.14928376237601523  1.0000
  N   N1        1.0  0.34603275625784136  0.6129145999788437  0.9374997218612787  1.0000
  N   N2        1.0  0.6539694909873502  0.11291364706631411  0.5625000790838113  1.0000
  N   N3        1.0  0.6539695982289755  0.3870859981554276  0.06250017545110607  1.0000
  N   N4        1.0  0.3460328635008025  0.8870849248660022  0.4374998182282679  1.0000
  N   N5        1.0  0.3176219697098048  0.38742714008004253  0.6906107787700078  1.0000
  N   N6        1.0  0.6823771356759635  0.8874273726225756  0.809389308411475  1.0000
  N   N7        1.0  0.6823766798364018  0.6125734580550741  0.30938923712105987  1.0000
  N   N8        1.0  0.31762243889750147  0.11257271896175783  0.19061033088619433  1.0000
  O   O1        1.0  0.36229095955116003  0.8809824707129934  0.2919760123307497  1.0000
  O   O2        1.0  0.6377078053201969  0.38098311831011966  0.20802409811209083  1.0000
  O   O3        1.0  0.6377086166332758  0.11901762087145336  0.7080240895651213  1.0000
  O   O4        1.0  0.3622908426153728  0.6190169732743913  0.7919754551807046  1.0000
  O   O5        1.0  0.5420654606253166  0.9658681546029588  0.3678055513606821  1.0000
  O   O6        1.0  0.4579341168532877  0.46586833689568863  0.13219420773767604  1.0000
  O   O7        1.0  0.4579341139481413  0.03413193698137461  0.6321940879369945  1.0000
  O   O8        1.0  0.5420645343045719  0.5341312481385716  0.8678062707514368  1.0000
  O   O9        1.0  0.3426280389999974  0.12360390055426515  0.3374514987462759  1.0000
  O   O10       1.0  0.6573710651249269  0.6236040698498186  0.16254807254207285  1.0000
  O   O11       1.0  0.6573715355734604  0.8763961910300679  0.6625481405513935  1.0000
  O   O12       1.0  0.3426275828106355  0.3763960217346992  0.8374514807507222  1.0000
  O   O13       1.0  0.16321774934456806  0.9545534120927144  0.33552473294407986  1.0000
  O   O14       1.0  0.8367799914542216  0.45455344292254557  0.16447531337717433  1.0000
  O   O15       1.0  0.8367818268398747  0.045446679491732304  0.664475368951791  1.0000
  O   O16       1.0  0.16321680320555737  0.5454466486623346  0.8355240679058651  1.0000
  O   O17       1.0  0.13382957452277108  0.04727437014400951  0.27255002247399307  1.0000
  O   O18       1.0  0.8661696323013073  0.5472749863570812  0.22744998870870592  1.0000
  O   O19       1.0  0.8661700016620059  0.9527252148899524  0.7274500794217996  1.0000
  O   O20       1.0  0.13382901724489932  0.45272561177803555  0.7725500271823617  1.0000
  O   O21       1.0  0.5056737726203479  0.03722888803019231  0.2842312395811887  1.0000
  O   O22       1.0  0.4943254442856002  0.5372296630307434  0.21576784341715433  1.0000
  O   O23       1.0  0.49432580034247303  0.9627706970035349  0.7157679371182082  1.0000
  O   O24       1.0  0.5056732036496283  0.46277093510425976  0.7842317098757118  1.0000
  O   O25       1.0  0.343866315948226  0.04126616327806691  0.4107840598699324  1.0000
  O   O26       1.0  0.656132897222285  0.5412662960051335  0.08921548692737957  1.0000
  O   O27       1.0  0.6561323319873437  0.9587339283064438  0.5892154934228555  1.0000
  O   O28       1.0  0.34386575071328446  0.4587337955793845  0.9107840663654155  1.0000
  O   O29       1.0  0.29592373120671306  0.9594577744095576  0.21652846723826252  1.0000
  O   O30       1.0  0.70407492812339  0.45945843079812937  0.2834712039485438  1.0000
  O   O31       1.0  0.7040749151182126  0.04054181062434741  0.78347062345626  1.0000
  O   O32       1.0  0.29592371981217974  0.5405416607863813  0.7165283493442514  1.0000
