data_image0
_chemical_formula_structural       Cu2H40C28S2N8O14
_chemical_formula_sum              "Cu2 H40 C28 S2 N8 O14"
_cell_length_a       7.7775676774693565
_cell_length_b       10.042404340779774
_cell_length_c       12.456119834101214
_cell_angle_alpha    66.88889154449593
_cell_angle_beta     87.83006363700905
_cell_angle_gamma    80.56552228700488

_space_group_name_H-M_alt    "P 1"
_space_group_IT_number       1

loop_
  _space_group_symop_operation_xyz
  'x, y, z'

loop_
  _atom_site_type_symbol
  _atom_site_label
  _atom_site_symmetry_multiplicity
  _atom_site_fract_x
  _atom_site_fract_y
  _atom_site_fract_z
  _atom_site_occupancy
  Cu  Cu1       1.0  0.6962421542812721  0.34275249133398217  0.8499946699261683  1.0000
  Cu  Cu2       1.0  0.30201443716656234  0.6582489936319859  0.14936043367299595  1.0000
  H   H1        1.0  0.47160077130161693  0.34050809006901517  0.9966309931399664  1.0000
  H   H2        1.0  0.5281570249430062  0.6597776401381593  0.003342665487082336  1.0000
  H   H3        1.0  0.6618154059348312  0.31950410663589673  0.06406192370027948  1.0000
  H   H4        1.0  0.3383034816528365  0.680855374323272  0.9355410603046578  1.0000
  H   H5        1.0  0.7799561685720134  0.531008850894196  0.9308959101828478  1.0000
  H   H6        1.0  0.22047106316369997  0.4690025203493419  0.0691945366382498  1.0000
  H   H7        1.0  0.9118603021142988  0.514500866124955  0.8296779874487967  1.0000
  H   H8        1.0  0.08862111651344412  0.48521445796696844  0.1704188730491936  1.0000
  H   H9        1.0  0.059184754908770294  0.2688172106844248  0.7288673742303758  1.0000
  H   H10       1.0  0.9400349193390131  0.7315315661902133  0.27108755991048383  1.0000
  H   H11       1.0  0.6140721721306192  0.15786927604826673  0.582329636213224  1.0000
  H   H12       1.0  0.38600895253878076  0.8422319919975577  0.4176694312086228  1.0000
  H   H13       1.0  0.1232734475328527  0.0031600254941536996  0.679792872038405  1.0000
  H   H14       1.0  0.8764686982979272  0.996796926469976  0.3201802495306012  1.0000
  H   H15       1.0  0.7542847165321975  0.4394066162247937  0.4142806220126758  1.0000
  H   H16       1.0  0.2456466424294277  0.5605820913578654  0.5854417258675113  1.0000
  H   H17       1.0  0.31173997190122543  0.9712208854204647  0.8455652742120845  1.0000
  H   H18       1.0  0.6874863481573215  0.0294027790688745  0.15342181279054756  1.0000
  H   H19       1.0  0.5466169295860155  0.7823092517352278  0.7943799293661798  1.0000
  H   H20       1.0  0.4535222623719052  0.21781069361011157  0.20562935476029762  1.0000
  H   H21       1.0  0.7535652798021247  0.8337660163992097  0.7536133770565386  1.0000
  H   H22       1.0  0.24647102900289752  0.16665491536176794  0.24646630596139119  1.0000
  H   H23       1.0  0.4752456207585282  0.7414895945784962  0.6265726507337845  1.0000
  H   H24       1.0  0.524786870222954  0.2586473097677242  0.37341816125701405  1.0000
  H   H25       1.0  0.20761116153073536  0.2552997273562525  0.5459557274838573  1.0000
  H   H26       1.0  0.7919521548483814  0.7445436719914866  0.4542651003206474  1.0000
  H   H27       1.0  0.09415468595523892  0.35224238828499205  0.4088926410687606  1.0000
  H   H28       1.0  0.9056878543322354  0.6477068398194561  0.5912144138763864  1.0000
  H   H29       1.0  0.5573807898033676  0.49030441459648705  0.5932785904371869  1.0000
  H   H30       1.0  0.44206285819946334  0.5102563544963628  0.4060016945897971  1.0000
  H   H31       1.0  0.3517108600622905  0.20934254747262318  0.8992362189707848  1.0000
  H   H32       1.0  0.6464550279104485  0.7920910453960985  0.09907000435041619  1.0000
  H   H33       1.0  0.9542494887495112  0.2255175997133492  0.3181381703350468  1.0000
  H   H34       1.0  0.045413963771089506  0.7744608523612512  0.6818516393676717  1.0000
  H   H35       1.0  0.8253343172526826  0.0616975650983562  0.7736698177890345  1.0000
  H   H36       1.0  0.1743402100737156  0.9383491689240415  0.22705488839896754  1.0000
  H   H37       1.0  0.08623086011213128  0.24950295568469022  0.9630134993588017  1.0000
  H   H38       1.0  0.9109875981865442  0.7486323488938993  0.03805559713364912  1.0000
  H   H39       1.0  0.1046041952939305  0.08018131647197892  0.013301702098296198  1.0000
  H   H40       1.0  0.9080893242689857  0.9170917555078899  0.989663929015599  1.0000
  C   C1        1.0  0.04420706863472648  0.13064183981761351  0.4987200693301048  1.0000
  C   C2        1.0  0.9554212819464638  0.8693489436298807  0.5012778151469846  1.0000
  C   C3        1.0  0.9480421289283355  0.32072521678342264  0.6686699331351349  1.0000
  C   C4        1.0  0.051201434398940586  0.6795835236252827  0.33124586690888697  1.0000
  C   C5        1.0  0.5522011369628217  0.9420363453567899  0.6184456232166937  1.0000
  C   C6        1.0  0.4478603348987705  0.0580791354949071  0.3815675129427731  1.0000
  C   C7        1.0  0.5629924443692218  0.0880055760368919  0.5470313319009604  1.0000
  C   C8        1.0  0.43709142629041514  0.9121098614473054  0.4529648125609712  1.0000
  C   C9        1.0  0.06678509216940398  0.0030655457164599025  0.6008545438453154  1.0000
  C   C10       1.0  0.9328745048772762  0.9969053061837626  0.39913699218329407  1.0000
  C   C11       1.0  0.784275634866468  0.41107831929910077  0.5058608974933847  1.0000
  C   C12       1.0  0.21541535418507615  0.5890539940301238  0.49387098769263815  1.0000
  C   C13       1.0  0.4211672447368286  0.0283158719473988  0.8370229009853674  1.0000
  C   C14       1.0  0.5779765895607198  0.9722750082945241  0.16226059689102357  1.0000
  C   C15       1.0  0.6128155336378216  0.8754499395798447  0.7451977408078322  1.0000
  C   C16       1.0  0.3871703667132564  0.12476990604957185  0.2548246124335947  1.0000
  C   C17       1.0  0.4877997047682284  0.8544789338496697  0.5706339155337261  1.0000
  C   C18       1.0  0.512245538512019  0.1456508499501439  0.42938428203935797  1.0000
  C   C19       1.0  0.08474547218611411  0.27271037544108606  0.4983388816260971  1.0000
  C   C20       1.0  0.9149155006367097  0.7272373618371616  0.5017393160132854  1.0000
  C   C21       1.0  0.6898175722329825  0.436352049670468  0.5934627438957918  1.0000
  C   C22       1.0  0.3096272967819119  0.564080807283396  0.4060629612064944  1.0000
  C   C23       1.0  0.4434500895556184  0.14371229011540268  0.8650637376922745  1.0000
  C   C24       1.0  0.5551362185107108  0.8572892257123427  0.13385260406479205  1.0000
  C   C25       1.0  0.9767078376178732  0.12655870768374905  0.3977803439183205  1.0000
  C   C26       1.0  0.022869529678615688  0.8734391623391745  0.6022263098154284  1.0000
  C   C27       1.0  0.692902071373389  0.06950470912062909  0.8039137658001252  1.0000
  C   C28       1.0  0.3063900922158284  0.9309464599387591  0.19612189000736197  1.0000
  S   S1        1.0  0.2510995440257346  0.5202625607092699  0.8346015024427514  1.0000
  S   S2        1.0  0.749185627411933  0.479959620888863  0.1652171897867376  1.0000
  N   N1        1.0  0.5802775600691633  0.9817309121114873  0.7995938843891182  1.0000
  N   N2        1.0  0.4193091125926287  0.0185541904925444  0.20035663510366672  1.0000
  N   N3        1.0  0.7936068197794057  0.37999225559395455  0.693942328229987  1.0000
  N   N4        1.0  0.2055723578181699  0.6205532854889878  0.3057152579697444  1.0000
  N   N5        1.0  0.6129484994597049  0.1684741111624319  0.8436898890293918  1.0000
  N   N6        1.0  0.38576144042407634  0.8323923597127134  0.1556914450178866  1.0000
  N   N7        1.0  0.9467442127249157  0.33797588868227996  0.5551536365943619  1.0000
  N   N8        1.0  0.052787490896335526  0.6620613505577848  0.444811345299165  1.0000
  O   O1        1.0  0.5975688494932497  0.2939769662573468  0.0067072892500448286  1.0000
  O   O2        1.0  0.40222131083491786  0.706327108642071  0.9930327873382367  1.0000
  O   O3        1.0  0.7877136187296828  0.5129254165325462  0.857458986932457  1.0000
  O   O4        1.0  0.21286507271222624  0.48661793330739295  0.14283033427029326  1.0000
  O   O5        1.0  0.22780791410921356  0.6667750223191647  0.8418134333201621  1.0000
  O   O6        1.0  0.7724795959246935  0.3337156079694381  0.1574677145680994  1.0000
  O   O7        1.0  0.41112876541782845  0.49482770681641597  0.7729031339529795  1.0000
  O   O8        1.0  0.5891003847541538  0.505246083706183  0.22683642616932084  1.0000
  O   O9        1.0  0.26128166040794554  0.4033906379009124  0.9589840761824533  1.0000
  O   O10       1.0  0.7392182364121566  0.5972711254862729  0.04089588920122383  1.0000
  O   O11       1.0  0.09698296153715799  0.5089476194762382  0.7731733836469843  1.0000
  O   O12       1.0  0.9033319520718168  0.4907432060319863  0.22688990917375665  1.0000
  O   O13       1.0  0.0379474882817732  0.1688320987402392  0.9558561565602091  1.0000
  O   O14       1.0  0.965225803252217  0.8247434503412093  0.048345538360706534  1.0000
