data_image0
_chemical_formula_structural       Ni2H44C52N4O22
_chemical_formula_sum              "Ni2 H44 C52 N4 O22"
_cell_length_a       10.012245080993628
_cell_length_b       11.28252164251814
_cell_length_c       12.4775
_cell_angle_alpha    94.67350437716033
_cell_angle_beta     102.7978530212134
_cell_angle_gamma    114.08342921362416

_space_group_name_H-M_alt    "P 1"
_space_group_IT_number       1

loop_
  _space_group_symop_operation_xyz
  'x, y, z'

loop_
  _atom_site_type_symbol
  _atom_site_label
  _atom_site_symmetry_multiplicity
  _atom_site_fract_x
  _atom_site_fract_y
  _atom_site_fract_z
  _atom_site_occupancy
  Ni  Ni1       1.0  0.2897588312335202  0.1321052719965863  0.6530857317488595  1.0000
  Ni  Ni2       1.0  0.7102400016118653  0.8678930683019319  0.3469111334667971  1.0000
  H   H1        1.0  0.3153905613497515  0.8529523908662427  0.11733114667747911  1.0000
  H   H2        1.0  0.6846087711214821  0.1470469388811111  0.8826650787994337  1.0000
  H   H3        1.0  0.6804768900913346  0.5459838048395654  0.038422888585962774  1.0000
  H   H4        1.0  0.31952241741055337  0.454017503805467  0.9615830955581044  1.0000
  H   H5        1.0  0.5115476823139034  0.22623055039258594  0.5844611866249352  1.0000
  H   H6        1.0  0.4884526743783726  0.7737687793547681  0.4155376252314724  1.0000
  H   H7        1.0  0.5658068986420801  0.1469183105323282  0.6734195697621458  1.0000
  H   H8        1.0  0.43419143457745696  0.853079040317354  0.3265779351922617  1.0000
  H   H9        1.0  0.3060280553742771  0.2292295698169298  0.8579846418305904  1.0000
  H   H10       1.0  0.6939728009438397  0.7707707493792668  0.14201673605746382  1.0000
  H   H11       1.0  0.4578618122123928  0.2134696287443703  0.862644555778587  1.0000
  H   H12       1.0  0.5421380198846821  0.7865306904518194  0.1373558386151572  1.0000
  H   H13       1.0  0.9645693868089398  0.9972061156810669  0.5997577647658332  1.0000
  H   H14       1.0  0.0354283718767121  0.0027961824128013004  0.40024240688048  1.0000
  H   H15       1.0  0.04288074538961691  0.11159696595622391  0.7099435277094341  1.0000
  H   H16       1.0  0.9571206105543484  0.8884043426888086  0.2900564089972804  1.0000
  H   H17       1.0  0.09306566955424242  0.2416649627978416  0.5285898693957023  1.0000
  H   H18       1.0  0.9069357113590756  0.7583343669495194  0.47140672018463187  1.0000
  H   H19       1.0  0.0811394307947282  0.4564238433765624  0.5193894403406603  1.0000
  H   H20       1.0  0.9188614504927415  0.5435744969219556  0.48060778897841056  1.0000
  H   H21       1.0  0.5101699523328521  0.6414003139675941  0.7786546372706269  1.0000
  H   H22       1.0  0.48982990473356836  0.358598026330931  0.22134481432453157  1.0000
  H   H23       1.0  0.5052906757113007  0.4187347477339928  0.7743347126946746  1.0000
  H   H24       1.0  0.49470815713408467  0.5812635925645253  0.22566455684876982  1.0000
  H   H25       1.0  0.20902679108576905  0.6724610918524334  0.4693754062446658  1.0000
  H   H26       1.0  0.7909725663548104  0.32753625899724886  0.5306198764336614  1.0000
  H   H27       1.0  0.210811291181031  0.8942411013770909  0.47697100601313014  1.0000
  H   H28       1.0  0.7891834697495241  0.10575526002375571  0.5230241881971054  1.0000
  H   H29       1.0  0.3488932024544766  0.9752908133947713  0.8233528367772249  1.0000
  H   H30       1.0  0.6511041065440182  0.024706537454910905  0.1766428832402767  1.0000
  H   H31       1.0  0.3689213440987018  0.7630233649871131  0.8308725578222322  1.0000
  H   H32       1.0  0.6310780133418703  0.2369739858625692  0.16912272485608779  1.0000
  H   H33       1.0  0.16131012254621171  0.0390100098396999  0.027261037906818306  1.0000
  H   H34       1.0  0.8386866368877364  0.9609903093564967  0.9727364060040172  1.0000
  H   H35       1.0  0.048759819328289204  0.1956071088936113  0.0045624060456362055  1.0000
  H   H36       1.0  0.951236940105666  0.8043932103025854  0.9954366407503838  1.0000
  H   H37       1.0  0.19338082808655344  0.3268248452835891  0.36261570384414193  1.0000
  H   H38       1.0  0.8066236005205384  0.6731764633614432  0.6373847790177009  1.0000
  H   H39       1.0  0.8533502139600985  0.24494102789648764  0.04032499180645743  1.0000
  H   H40       1.0  0.14664702013035946  0.7550622596462163  0.9596775638197952  1.0000
  H   H41       1.0  0.1423515739951284  0.693481932390263  0.2709526020830282  1.0000
  H   H42       1.0  0.8576508311392248  0.3065173973570979  0.7290545883027731  1.0000
  H   H43       1.0  0.24850630675133095  0.5310263067736543  0.2943020144597597  1.0000
  H   H44       1.0  0.7514950991313257  0.4689710440760351  0.7057000438627554  1.0000
  C   C1        1.0  0.18399495391481221  0.3331899696507321  0.5814347777681022  1.0000
  C   C2        1.0  0.8160059273726504  0.6668083706477931  0.4185632529935716  1.0000
  C   C3        1.0  0.17834601084511806  0.4537602471078942  0.5773184559057682  1.0000
  C   C4        1.0  0.8216533465954541  0.5462371037417881  0.4226800325429423  1.0000
  C   C5        1.0  0.2947152861916252  0.5688756931277865  0.6495075982892117  1.0000
  C   C6        1.0  0.7052845708747953  0.4311226471707386  0.35049025042075493  1.0000
  C   C7        1.0  0.41481801604530233  0.5557249286378649  0.7215403400108613  1.0000
  C   C8        1.0  0.5851797925790408  0.44427341166065304  0.2784587474808831  1.0000
  C   C9        1.0  0.4137261903211353  0.43169355914957214  0.7188218326854283  1.0000
  C   C10       1.0  0.5862731671194368  0.5683037917001101  0.2811774572058781  1.0000
  C   C11       1.0  0.2884198819920982  0.697455558918854  0.6500243564602144  1.0000
  C   C12       1.0  0.711581998547061  0.3025447602773427  0.3499739977091636  1.0000
  C   C13       1.0  0.23996975566387155  0.735717545437929  0.5501933783442894  1.0000
  C   C14       1.0  0.7600285775556586  0.2642798054117534  0.44980252372491947  1.0000
  C   C15       1.0  0.24021989354874065  0.859244296019462  0.5535634100327513  1.0000
  C   C16       1.0  0.7597758916028639  0.1407520653813918  0.44643276767178713  1.0000
  C   C17       1.0  0.32156372782181114  0.9057810431607011  0.7469328296928025  1.0000
  C   C18       1.0  0.6784335811766766  0.09421630768898841  0.253063691767295  1.0000
  C   C19       1.0  0.3304440942509501  0.7862249507612518  0.7501226091446113  1.0000
  C   C20       1.0  0.6695552631896292  0.21377240008843054  0.24987187209111286  1.0000
  C   C21       1.0  0.24296049424253138  0.1696182457462072  0.3026320202355208  1.0000
  C   C22       1.0  0.7570418859224759  0.8303830628988251  0.6973648927525103  1.0000
  C   C23       1.0  0.2354435813040396  0.08821431104495053  0.2075958600014403  1.0000
  C   C24       1.0  0.764556250793035  0.911786008151239  0.7924021300645164  1.0000
  C   C25       1.0  0.1663168292050443  0.1008386887536901  0.10095380243447488  1.0000
  C   C26       1.0  0.8336794306030626  0.8991606409936637  0.8990442812150972  1.0000
  C   C27       1.0  0.10383095203212636  0.18990095745178345  0.08821962980299962  1.0000
  C   C28       1.0  0.8961673312487193  0.810100351193249  0.9117797607485869  1.0000
  C   C29       1.0  0.11482725997396413  0.274055559919347  0.1822992946003836  1.0000
  C   C30       1.0  0.8851710482762274  0.7259437698280138  0.8177015574803974  1.0000
  C   C31       1.0  0.18533646914846708  0.2628708302681488  0.2887120984810707  1.0000
  C   C32       1.0  0.8146633629486146  0.7371294889280477  0.7112866930274819  1.0000
  C   C33       1.0  0.055692197503489624  0.37382663337812977  0.16974190891756538  1.0000
  C   C34       1.0  0.9443055861515077  0.6261736858180669  0.8302605257005525  1.0000
  C   C35       1.0  0.9173293388678303  0.3439205422858294  0.0912257448165619  1.0000
  C   C36       1.0  0.08266792019196603  0.6560807663592031  0.9087790737814883  1.0000
  C   C37       1.0  0.8543895643952979  0.4342542527392084  0.07774960737810231  1.0000
  C   C38       1.0  0.14561024273243112  0.5657480453546597  0.9222581413550017  1.0000
  C   C39       1.0  0.9368864812451179  0.5629934197930027  0.14651664744269513  1.0000
  C   C40       1.0  0.06311484972950154  0.4370098677497013  0.8534914450459752  1.0000
  C   C41       1.0  0.07826150025047704  0.5931082845898672  0.22222554932665162  1.0000
  C   C42       1.0  0.9217403802886892  0.40689203460632944  0.7777832235964793  1.0000
  C   C43       1.0  0.13709833817887332  0.5015902038788341  0.23534437291526436  1.0000
  C   C44       1.0  0.8629020185134026  0.4984091258685197  0.764660850481917  1.0000
  C   C45       1.0  0.315454776766245  0.16828545816304094  0.4217123603644096  1.0000
  C   C46       1.0  0.6845521749394339  0.831718818828506  0.5782847824477031  1.0000
  C   C47       1.0  0.2941459829703633  0.9868614280923184  0.2170868715119099  1.0000
  C   C48       1.0  0.7058528249056764  0.013138891103871201  0.782910135059744  1.0000
  C   C49       1.0  0.7013680216524848  0.3797346323826645  0.9909866749678926  1.0000
  C   C50       1.0  0.2986322851010926  0.6202686551600395  0.009020434026467723  1.0000
  C   C51       1.0  0.8929368753608034  0.6764545073577608  0.15236147790002266  1.0000
  C   C52       1.0  0.10707002640618414  0.32355372742912897  0.8476479692630292  1.0000
  N   N1        1.0  0.2997053067545536  0.3212977840812243  0.6508031575039652  1.0000
  N   N2        1.0  0.700295049937715  0.6787015456661365  0.3491948529098465  1.0000
  N   N3        1.0  0.27975292425767156  0.9435710625846241  0.6504711992728999  1.0000
  N   N4        1.0  0.7202433605197811  0.0564262882650652  0.3495251401354906  1.0000
  O   O1        1.0  0.2246399475839951  0.10088915064437032  0.4763725374802944  1.0000
  O   O2        1.0  0.7753660048699871  0.8991131474494978  0.52362508336671  1.0000
  O   O3        1.0  0.4555070684224063  0.24151951381882952  0.46119419119216326  1.0000
  O   O4        1.0  0.5444968355894916  0.7584827842750387  0.5388006612236396  1.0000
  O   O5        1.0  0.3437224443297638  0.9599068628802031  0.30703707455125334  1.0000
  O   O6        1.0  0.6562768881414698  0.0400924668671578  0.6929599523682554  1.0000
  O   O7        1.0  0.28808457892962747  0.9293556511463095  0.11699577281930831  1.0000
  O   O8        1.0  0.7119111562832785  0.0706446680498871  0.8830006875972173  1.0000
  O   O9        1.0  0.6479820079406338  0.2667850898665307  0.9306642807094292  1.0000
  O   O10       1.0  0.35201929806464705  0.7332201765738446  0.0693399459222519  1.0000
  O   O11       1.0  0.6210182941965599  0.4456546822368281  0.9793951161817985  1.0000
  O   O12       1.0  0.3789819875876788  0.5543505842035543  0.020614538496339225  1.0000
  O   O13       1.0  0.7560313342223495  0.6572948200819582  0.10096925403183829  1.0000
  O   O14       1.0  0.2439765917656801  0.34271341470493166  0.8990387722977289  1.0000
  O   O15       1.0  0.9911045633866709  0.7864277877727943  0.20928112584847014  1.0000
  O   O16       1.0  0.008904436761092406  0.2135764892187453  0.7907276012634198  1.0000
  O   O17       1.0  0.523036586216854  0.212089347617038  0.6648772020785003  1.0000
  O   O18       1.0  0.47696124737683493  0.7879070137838087  0.3351217440572469  1.0000
  O   O19       1.0  0.34525156942235924  0.1690037980185579  0.8287197441098826  1.0000
  O   O20       1.0  0.6547492868957647  0.8309965211776387  0.1712808323355759  1.0000
  O   O21       1.0  0.06380204290756811  0.057978733490003306  0.6540958121977452  1.0000
  O   O22       1.0  0.9361967399991259  0.9420235646038649  0.34590213717249435  1.0000
