data_image0
_chemical_formula_structural       Ni2H14C14N2O12
_chemical_formula_sum              "Ni2 H14 C14 N2 O12"
_cell_length_a       7.307520761926738
_cell_length_b       8.055828894805105
_cell_length_c       9.008283513268278
_cell_angle_alpha    97.98678042262871
_cell_angle_beta     100.79016300446375
_cell_angle_gamma    116.0157262862871

_space_group_name_H-M_alt    "P 1"
_space_group_IT_number       1

loop_
  _space_group_symop_operation_xyz
  'x, y, z'

loop_
  _atom_site_type_symbol
  _atom_site_label
  _atom_site_symmetry_multiplicity
  _atom_site_fract_x
  _atom_site_fract_y
  _atom_site_fract_z
  _atom_site_occupancy
  Ni  Ni1       1.0  0.6097682715936656  0.8211825429805657  0.6783552728023565  1.0000
  Ni  Ni2       1.0  0.3902294602312679  0.17881666707846486  0.3216436885091697  1.0000
  H   H1        1.0  0.23930834796151162  0.7082858011687849  0.5341848069492201  1.0000
  H   H2        1.0  0.7606906510016102  0.29171059496876955  0.4658162674785302  1.0000
  H   H3        1.0  0.3310401540456596  0.6014260559745354  0.41957083293158365  1.0000
  H   H4        1.0  0.6689625096998101  0.3985745584524453  0.5804290440898755  1.0000
  H   H5        1.0  0.5295424962105174  0.08759734803176399  0.7968174549480551  1.0000
  H   H6        1.0  0.47045259718476024  0.9124047371105988  0.20318140798783454  1.0000
  H   H7        1.0  0.627008670449939  0.1526973758130623  0.6556381863038327  1.0000
  H   H8        1.0  0.37299322879857055  0.8473018121301622  0.3443614182728681  1.0000
  H   H9        1.0  0.662524575184591  0.4906141766993032  0.018892002772084082  1.0000
  H   H10       1.0  0.33748053975423187  0.5093936313082851  0.9811112512137755  1.0000
  H   H11       1.0  0.01067328756902702  0.1730851048113351  0.7480148120711121  1.0000
  H   H12       1.0  0.9893193814074978  0.8269098674352621  0.25198401764383505  1.0000
  H   H13       1.0  0.6875106274646896  0.6911485662372672  0.37499071880734663  1.0000
  H   H14       1.0  0.3124814079427338  0.3088478129700718  0.6250070543494888  1.0000
  C   C1        1.0  0.8050869150059299  0.6721639089427214  0.8082004746086612  1.0000
  C   C2        1.0  0.19491576658927567  0.3278367592741632  0.19180163157510322  1.0000
  C   C3        1.0  0.9091684226964672  0.5815421593077303  0.9018047111736821  1.0000
  C   C4        1.0  0.09084223988226368  0.41846559231716174  0.0981982859179169  1.0000
  C   C5        1.0  0.8114960621900523  0.49556506071883905  0.009757172274888159  1.0000
  C   C6        1.0  0.1885175274486671  0.5044455633965725  0.9902476987091121  1.0000
  C   C7        1.0  0.10062063547201214  0.5861515036914967  0.8915010690072905  1.0000
  C   C8        1.0  0.8993838548225812  0.41385773817178534  0.10850224300160966  1.0000
  C   C9        1.0  0.2133192649043993  0.6731729248177846  0.776469282309492  1.0000
  C   C10       1.0  0.7866827831217053  0.32682915035983484  0.22353176731616745  1.0000
  C   C11       1.0  0.006783766340603818  0.09668834659537853  0.6367908352096096  1.0000
  C   C12       1.0  0.9932081381389537  0.9033051991674697  0.36320772206057234  1.0000
  C   C13       1.0  0.8268927950561747  0.8300534766821599  0.42995313683016434  1.0000
  C   C14       1.0  0.17309987392035006  0.16994149556443722  0.5700456928847829  1.0000
  N   N1        1.0  0.8332822090681448  0.9274396288829365  0.5664460177132328  1.0000
  N   N2        1.0  0.16671184904957667  0.07255533599172283  0.4335530264234394  1.0000
  O   O1        1.0  0.6562851624546084  0.5719879894222686  0.679853581878767  1.0000
  O   O2        1.0  0.3437137829593128  0.42800824534558063  0.32014080506207426  1.0000
  O   O3        1.0  0.8503137251505353  0.8426218157753099  0.862676346030618  1.0000
  O   O4        1.0  0.14967984817567984  0.15737744329449302  0.13732308659689355  1.0000
  O   O5        1.0  0.41061321906359893  0.7197649563749168  0.8101449823677882  1.0000
  O   O6        1.0  0.5893915983200272  0.2802370771638749  0.1898553815201538  1.0000
  O   O7        1.0  0.10872913345445327  0.6908835990331926  0.6559687353125981  1.0000
  O   O8        1.0  0.8912706032310352  0.30911414290326894  0.3440292678164596  1.0000
  O   O9        1.0  0.35610879718102256  0.7293992119395657  0.4790021332705124  1.0000
  O   O10       1.0  0.643888934643904  0.2705999981194723  0.5209968280410139  1.0000
  O   O11       1.0  0.6323438139141543  0.08649552228641261  0.7425979509046458  1.0000
  O   O12       1.0  0.36765100870052697  0.9135008690720028  0.2574013656767847  1.0000
