data_image0
_chemical_formula_structural       Mg4H24C16O24
_chemical_formula_sum              "Mg4 H24 C16 O24"
_cell_length_a       7.499961846946814
_cell_length_b       9.329317349818906
_cell_length_c       8.970867295103856
_cell_angle_alpha    89.99988256116876
_cell_angle_beta     89.99992197735061
_cell_angle_gamma    90.00076822339884

_space_group_name_H-M_alt    "P 1"
_space_group_IT_number       1

loop_
  _space_group_symop_operation_xyz
  'x, y, z'

loop_
  _atom_site_type_symbol
  _atom_site_label
  _atom_site_symmetry_multiplicity
  _atom_site_fract_x
  _atom_site_fract_y
  _atom_site_fract_z
  _atom_site_occupancy
  Mg  Mg1       1.0  0.15710763587743065  0.7748984419422199  0.7465960077261468  1.0000
  Mg  Mg2       1.0  0.3428930248946784  0.2250970217866808  0.2465995068223207  1.0000
  Mg  Mg3       1.0  0.8428948447994031  0.27490175768564035  0.7534061375804766  1.0000
  Mg  Mg4       1.0  0.6571084923433759  0.7251019218831232  0.2534014543161476  1.0000
  H   H1        1.0  0.43682488075521764  0.12384954021255369  0.6891709970745195  1.0000
  H   H2        1.0  0.0631709583880564  0.8761491180068646  0.18916605778639445  1.0000
  H   H3        1.0  0.5631655472381638  0.6238481695860115  0.8108307379159638  1.0000
  H   H4        1.0  0.9368279447294368  0.376152315669863  0.3108319697189969  1.0000
  H   H5        1.0  0.3168052996264591  0.0436114454472616  0.5404615208737551  1.0000
  H   H6        1.0  0.18319162594853114  0.9563882296566318  0.04046170400612679  1.0000
  H   H7        1.0  0.6831861009820344  0.5436093564937748  0.9595417029102077  1.0000
  H   H8        1.0  0.816811638174819  0.4563933274836175  0.4595426376582238  1.0000
  H   H9        1.0  0.5455141495244363  0.9111030025115948  0.5176758328239826  1.0000
  H   H10       1.0  0.9544870085601502  0.08890058991157451  0.017679015306356394  1.0000
  H   H11       1.0  0.45447266288945787  0.41109547745254826  0.9823178746820386  1.0000
  H   H12       1.0  0.045526176800734695  0.5889043610270408  0.482315892327257  1.0000
  H   H13       1.0  0.19541501355681132  0.58861965339959  0.9842518471907051  1.0000
  H   H14       1.0  0.30458523209494354  0.4113791138891614  0.48425445507121606  1.0000
  H   H15       1.0  0.8045889147537438  0.0886248841950703  0.5157545107185227  1.0000
  H   H16       1.0  0.6954121710896642  0.9113787075170663  0.01575009653110729  1.0000
  H   H17       1.0  0.6475786816964727  0.8287710082927616  0.6740641312768927  1.0000
  H   H18       1.0  0.8524243449491704  0.1712326419406622  0.17406872457590333  1.0000
  H   H19       1.0  0.35241828787793844  0.3287594746266436  0.8259243863450221  1.0000
  H   H20       1.0  0.14758268294828977  0.6712370903226557  0.3259202256980912  1.0000
  H   H21       1.0  0.3103958460207394  0.7204144338136943  0.03757443248613869  1.0000
  H   H22       1.0  0.18960497129649673  0.2795852401758622  0.5375778898933561  1.0000
  H   H23       1.0  0.6896026720468313  0.2204151212479317  0.4624243210972379  1.0000
  H   H24       1.0  0.8103951752170103  0.7795886356829201  0.9624197747178651  1.0000
  C   C1        1.0  0.1579213119662768  0.07760625278549328  0.7331005988325924  1.0000
  C   C2        1.0  0.34207884253387993  0.9223945654074797  0.23310198491985543  1.0000
  C   C3        1.0  0.8420765012622127  0.577608805942681  0.7669024663584804  1.0000
  C   C4        1.0  0.6579233421606858  0.4223873754320735  0.2669036299932869  1.0000
  C   C5        1.0  0.45625881926762446  0.6958514748600064  0.5582578525546679  1.0000
  C   C6        1.0  0.0437481073724229  0.30414606292332985  0.058255019156739286  1.0000
  C   C7        1.0  0.5437327183590099  0.19585034049655556  0.941745776170691  1.0000
  C   C8        1.0  0.9562656861513759  0.8041512650005416  0.44173888494689334  1.0000
  C   C9        1.0  0.33488100420124306  0.043590882344283  0.6619801715843179  1.0000
  C   C10       1.0  0.1651178145999239  0.956405622004759  0.16197864042128166  1.0000
  C   C11       1.0  0.6651130618152692  0.543593475311745  0.8380241669660291  1.0000
  C   C12       1.0  0.8348827839594859  0.4564091637507204  0.3380223570453395  1.0000
  C   C13       1.0  0.5208333452748378  0.8412268248571734  0.6136470013545932  1.0000
  C   C14       1.0  0.9791700808237919  0.158775731139194  0.11365138392775974  1.0000
  C   C15       1.0  0.4791591752192089  0.3412229519280032  0.8863459171190228  1.0000
  C   C16       1.0  0.020842729720421  0.6587757791337909  0.38634319794782346  1.0000
  O   O1        1.0  0.390130079132021  0.9042748448531199  0.7110941449372559  1.0000
  O   O2        1.0  0.10987324942350798  0.0957206057145967  0.21109708658421764  1.0000
  O   O3        1.0  0.6098749158881276  0.4042763340994071  0.7889040530005358  1.0000
  O   O4        1.0  0.8901270865508552  0.5957241429435314  0.2889000188756369  1.0000
  O   O5        1.0  0.0904766667566221  0.1994477066550644  0.6997733948200985  1.0000
  O   O6        1.0  0.40952090329277274  0.8005423803458953  0.1997689675906428  1.0000
  O   O7        1.0  0.9095097931346529  0.6994572081446008  0.8002324466253226  1.0000
  O   O8        1.0  0.5904846346735936  0.3005507764085634  0.3002305270214122  1.0000
  O   O9        1.0  0.5451219588570311  0.6385021283036068  0.4546335169931267  1.0000
  O   O10       1.0  0.9548849294593467  0.3615005537471561  0.9546323747806579  1.0000
  O   O11       1.0  0.45486807939704477  0.13849657586568043  0.04536450389798568  1.0000
  O   O12       1.0  0.045125030055629595  0.8614998854286071  0.5453660225138178  1.0000
  O   O13       1.0  0.3200119758338147  0.63997552740161  0.6203832380647111  1.0000
  O   O14       1.0  0.17999594903811558  0.36002632090414005  0.12038740753303047  1.0000
  O   O15       1.0  0.67998759650213  0.1399732022519373  0.8796161921762005  1.0000
  O   O16       1.0  0.8200164765530147  0.860026236421312  0.3796106949550263  1.0000
  O   O17       1.0  0.08622004945049609  0.9851204855329669  0.8166845116486099  1.0000
  O   O18       1.0  0.41377390773531175  0.0148696447460992  0.3166813966598595  1.0000
  O   O19       1.0  0.9137813499725596  0.48513384322924946  0.6833222271493822  1.0000
  O   O20       1.0  0.5862193574004309  0.5148740980136067  0.18331831528103484  1.0000
  O   O21       1.0  0.2445805567889749  0.6804264101077493  0.9506176180486602  1.0000
  O   O22       1.0  0.2554144268236271  0.319576632365809  0.45061871135119685  1.0000
  O   O23       1.0  0.7554138863587454  0.1804285608705598  0.5493871972618221  1.0000
  O   O24       1.0  0.7445857949297476  0.819576115185896  0.049382924054718585  1.0000
