data_image0
_chemical_formula_structural       Er4Ag12H24C56N8O44
_chemical_formula_sum              "Er4 Ag12 H24 C56 N8 O44"
_cell_length_a       8.17819463
_cell_length_b       13.805353724
_cell_length_c       14.494
_cell_angle_alpha    90.0
_cell_angle_beta     90.0
_cell_angle_gamma    90.0

_space_group_name_H-M_alt    "P 1"
_space_group_IT_number       1

loop_
  _space_group_symop_operation_xyz
  'x, y, z'

loop_
  _atom_site_type_symbol
  _atom_site_label
  _atom_site_symmetry_multiplicity
  _atom_site_fract_x
  _atom_site_fract_y
  _atom_site_fract_z
  _atom_site_occupancy
  Er  Er1       1.0  0.9757556968291394  0.7499988922413507  0.2499986201186672  1.0000
  Er  Er2       1.0  0.5242465108708245  0.7500003409546849  0.7499993100593372  1.0000
  Er  Er3       1.0  0.024244959794998494  0.2500001136515593  0.75  1.0000
  Er  Er4       1.0  0.4757541457533137  0.2500008380082264  0.25  1.0000
  Ag  Ag1       1.0  0.5494635678534863  0.8249835699754939  0.4844356285359481  1.0000
  Ag  Ag2       1.0  0.9505349715552069  0.824984294332161  0.515563681523389  1.0000
  Ag  Ag3       1.0  0.9505386398464848  0.6750156632205417  0.9844328687732826  1.0000
  Ag  Ag4       1.0  0.5494635678534863  0.6750149388638746  0.015565061404721798  1.0000
  Ag  Ag5       1.0  0.4505370887706518  0.1750154359174161  0.5155650614047218  1.0000
  Ag  Ag6       1.0  0.0494644623051741  0.1750176089874174  0.4844376983579437  1.0000
  Ag  Ag7       1.0  0.049465685068931  0.3249833426723754  0.0155602318200607  1.0000
  Ag  Ag8       1.0  0.45053464324313797  0.3249847913857025  0.9844349385952782  1.0000
  Ag  Ag9       1.0  0.2500013869197915  0.5573301600106078  6.899406627999999e-07  1.0000
  Ag  Ag10      1.0  0.2499964958647638  0.9426741436820834  0.5000027597626584  1.0000
  Ag  Ag11      1.0  0.7500004924681034  0.4426688458823023  0.0  1.0000
  Ag  Ag12      1.0  0.7500004924681034  0.0573263109241609  0.5  1.0000
  H   H1        1.0  0.2253675882497319  0.7303000127025213  0.4440830688560808  1.0000
  H   H2        1.0  0.2746327400623372  0.7302992883458543  0.5559155512625935  1.0000
  H   H3        1.0  0.2746339628260941  0.7697021179201755  0.9440830688560808  1.0000
  H   H4        1.0  0.225366365485975  0.7697021179201755  0.0559148613219236  1.0000
  H   H5        1.0  0.7746318456106493  0.2696997175470557  0.5559162412032563  1.0000
  H   H6        1.0  0.7253679165618008  0.2697004419037228  0.4440830688560808  1.0000
  H   H7        1.0  0.7253666937980441  0.2302983366860687  0.0559162412032563  1.0000
  H   H8        1.0  0.7746318456106493  0.2302976123294016  0.9440837587967437  1.0000
  H   H9        1.0  0.6149963687034441  0.476297828469896  0.4319428729129271  1.0000
  H   H10       1.0  0.8850070617602768  0.4762963797565618  0.5680564371464029  1.0000
  H   H11       1.0  0.8850046162327627  0.0237038475465567  0.9319449427349227  1.0000
  H   H12       1.0  0.6149939231759305  0.0237023988332226  0.068056437146403  1.0000
  H   H13       1.0  0.3850055106844508  0.5237033504930153  0.5680557472057401  1.0000
  H   H14       1.0  0.11499848591888907  0.5237040748496824  0.4319442527942599  1.0000
  H   H15       1.0  0.11499481762761828  0.9762966070596875  0.0680557472057401  1.0000
  H   H16       1.0  0.3850042879206938  0.9762973314163546  0.9319442527942599  1.0000
  H   H17       1.0  0.9000653974409045  0.35362802703946267  0.2084490133848504  1.0000
  H   H18       1.0  0.5999343647315456  0.3536294757527969  0.791548916793154  1.0000
  H   H19       1.0  0.5999343647315456  0.14637147590699584  0.7084517731475088  1.0000
  H   H20       1.0  0.9000653974409045  0.14637002719366168  0.2915496067338239  1.0000
  H   H21       1.0  0.0999315908919627  0.6463717032101144  0.7915482268524912  1.0000
  H   H22       1.0  0.4000662918925926  0.6463717032101144  0.2084503932661761  1.0000
  H   H23       1.0  0.4000626236013146  0.8536297030559155  0.2915502966744867  1.0000
  H   H24       1.0  0.09993403641947647  0.8536275299859141  0.7084531530288416  1.0000
  C   C1        1.0  0.7028152618079699  0.6658626923857298  0.3919608113702253  1.0000
  C   C2        1.0  0.7971955052382994  0.6658634167423968  0.6080391886297747  1.0000
  C   C3        1.0  0.7971906141832648  0.834137265166973  0.891961501310888  1.0000
  C   C4        1.0  0.7028103707529423  0.8341365408103057  0.1080371188077791  1.0000
  C   C5        1.0  0.2971915086349597  0.3341355891505131  0.6080398785704446  1.0000
  C   C6        1.0  0.2028100424408734  0.3341377622205144  0.3919615013108881  1.0000
  C   C7        1.0  0.2028075969133525  0.1658639137959383  0.1080371188077791  1.0000
  C   C8        1.0  0.2971902858711957  0.1658631894392713  0.891961501310888  1.0000
  C   C9        1.0  0.7601861145728179  0.5732051607082767  0.3490927280253899  1.0000
  C   C10       1.0  0.7398160931271462  0.5732058850649437  0.6509038222712817  1.0000
  C   C11       1.0  0.7398136475996322  0.9267947968444261  0.8490961777287183  1.0000
  C   C12       1.0  0.7601873373365748  0.9267933481310919  0.1509045122119517  1.0000
  C   C13       1.0  0.2398157648150772  0.4267945695413005  0.6509052021526145  1.0000
  C   C14       1.0  0.2601882317882698  0.4267945695413005  0.3490954877880483  1.0000
  C   C15       1.0  0.2601845634969918  0.0732063821184852  0.1509045122119517  1.0000
  C   C16       1.0  0.23981331928756325  0.073204933405151  0.8490961777287183  1.0000
  C   C17       1.0  0.7024569920268604  0.4827627117162336  0.37552366496480966  1.0000
  C   C18       1.0  0.7975452156731109  0.4827627117162336  0.6244749551538575  1.0000
  C   C19       1.0  0.7975439929093469  0.0172367912302249  0.8755257347868053  1.0000
  C   C20       1.0  0.7024557692630964  0.0172353425168907  0.1244756450945204  1.0000
  C   C21       1.0  0.2975436645972778  0.5172377428900106  0.6244742652131946  1.0000
  C   C22       1.0  0.2024578864785482  0.5172362941766835  0.3755250448461425  1.0000
  C   C23       1.0  0.20245421818727036  0.9827643877326864  0.1244742652131947  1.0000
  C   C24       1.0  0.2975436645972778  0.9827629390193522  0.8755257347868053  1.0000
  C   C25       1.0  0.7480831988954506  0.3999513602031897  0.3237995032427179  1.0000
  C   C26       1.0  0.7519177860407567  0.3999520845598568  0.6761984269352865  1.0000
  C   C27       1.0  0.7519190088045136  0.1000488670999289  0.8238022630053834  1.0000
  C   C28       1.0  0.7480807533679366  0.1000474183865947  0.1761984269352865  1.0000
  C   C29       1.0  0.2519186804924445  0.6000483700463874  0.6761984269352865  1.0000
  C   C30       1.0  0.24808287058338147  0.6000490944030545  0.3238022630053834  1.0000
  C   C31       1.0  0.24808042505586766  0.8999523118629823  0.17619773699461658  1.0000
  C   C32       1.0  0.2519199032562014  0.8999515875063153  0.8238022630053834  1.0000
  C   C33       1.0  0.8607706613115906  0.4148622421780672  0.250401545467092  1.0000
  C   C34       1.0  0.6392303236246164  0.4148629665347343  0.7495963847109124  1.0000
  C   C35       1.0  0.6392315463883733  0.0851379851250513  0.7504043052297503  1.0000
  C   C36       1.0  0.860768215784077  0.0851365364117171  0.2495970746515823  1.0000
  C   C37       1.0  0.1392299953125473  0.5851382124281769  0.7495956947702496  1.0000
  C   C38       1.0  0.3607678874720079  0.585140385498171  0.2504043052297504  1.0000
  C   C39       1.0  0.3607642191807301  0.9148624694811929  0.2495963847109124  1.0000
  C   C40       1.0  0.1392312180763042  0.9148610207678587  0.7504049951704133  1.0000
  C   C41       1.0  0.9127161112818882  0.5081832845618166  0.23039671588243488  1.0000
  C   C42       1.0  0.5872812053630483  0.5081847332751508  0.7695998344142438  1.0000
  C   C43       1.0  0.5872799825992914  0.991816672990886  0.7304008555264261  1.0000
  C   C44       1.0  0.9127173340456451  0.9918159486342191  0.2696025941769022  1.0000
  C   C45       1.0  0.0872784315234654  0.4918171700444276  0.7695984545329111  1.0000
  C   C46       1.0  0.41271822849733286  0.4918215161844302  0.2303994756450933  1.0000
  C   C47       1.0  0.4127157829698191  0.0081823329020239  0.2696012142955695  1.0000
  C   C48       1.0  0.0872784315234654  0.0081808841886968  0.7304008555264261  1.0000
  C   C49       1.0  0.0223508987337482  0.5339334396905429  0.1519221746929773  1.0000
  C   C50       1.0  0.4776494295783208  0.53393416404721  0.8480771353663599  1.0000
  C   C51       1.0  0.4776506523420778  0.9660672422188199  0.6519228646336401  1.0000
  C   C52       1.0  0.0223460076787134  0.9660672422188199  0.3480785152476855  1.0000
  C   C53       1.0  0.9776497578903898  0.4660662905590343  0.848076445425697  1.0000
  C   C54       1.0  0.5223487815182961  0.4660662905590343  0.1519228646336401  1.0000
  C   C55       1.0  0.5223463359907825  0.0339332123874243  0.3480785152476855  1.0000
  C   C56       1.0  0.9776497578903898  0.0339332123874243  0.6519249344556357  1.0000
  N   N1        1.0  0.8636551610168794  0.5867564252205923  0.2782861873878844  1.0000
  N   N2        1.0  0.6363458239193278  0.5867564252205923  0.7217110528494571  1.0000
  N   N3        1.0  0.6363458239193278  0.9132435323321104  0.7782882572098799  1.0000
  N   N4        1.0  0.8636551610168794  0.9132428079754433  0.2217124327307829  1.0000
  N   N5        1.0  0.1363454956072587  0.4132440293856519  0.7217110528494571  1.0000
  N   N6        1.0  0.3636560554685673  0.413246202455653  0.2782861873878844  1.0000
  N   N7        1.0  0.3636523871772894  0.0867561979174667  0.2217131226714528  1.0000
  N   N8        1.0  0.1363442728435018  0.0867547492041325  0.7782889471505428  1.0000
  O   O1        1.0  0.7772069860851403  0.7437549377782275  0.3657672140195913  1.0000
  O   O2        1.0  0.7228001126698516  0.7437549377782275  0.6342334759210715  1.0000
  O   O3        1.0  0.7228001126698516  0.7562450197744752  0.8657665240789285  1.0000
  O   O4        1.0  0.7772033177938695  0.7562450197744752  0.1342327859804087  1.0000
  O   O5        1.0  0.2227961160665117  0.2562447924713496  0.6342334759210715  1.0000
  O   O6        1.0  0.2772042122455574  0.2562469655413508  0.3657665240789285  1.0000
  O   O7        1.0  0.2772005439542865  0.2437547104751019  0.1342334759210715  1.0000
  O   O8        1.0  0.22279733883026853  0.2437547104751019  0.8657651441975958  1.0000
  O   O9        1.0  0.5850056420092784  0.6640097880334466  0.4476424727473471  1.0000
  O   O10       1.0  0.9150087933282618  0.6640126854601149  0.552361666896644  1.0000
  O   O11       1.0  0.9150039022732341  0.8359894451625891  0.9476404029253516  1.0000
  O   O12       1.0  0.5850007509542505  0.8359872720925878  0.0523575272526529  1.0000
  O   O13       1.0  0.4150047967249221  0.3359877691461293  0.552361666896644  1.0000
  O   O14       1.0  0.0850004226421817  0.3359892178594635  0.4476410928660144  1.0000
  O   O15       1.0  0.08499553158714687  0.1640117338003222  0.0523582171933228  1.0000
  O   O16       1.0  0.4149999056698873  0.1640110094436551  0.9476417828066772  1.0000
  O   O17       1.0  0.6818314129557448  0.3146598114648924  0.3394101007313353  1.0000
  O   O18       1.0  0.8181683492167053  0.3146590871082253  0.6605898992686647  1.0000
  O   O19       1.0  0.8181707947442189  0.1853404158382261  0.839411480612668  1.0000
  O   O20       1.0  0.6818277446644743  0.1853404158382261  0.1605898992686647  1.0000
  O   O21       1.0  0.3181704664321501  0.6853399187846847  0.660588519387332  1.0000
  O   O22       1.0  0.18182986187991895  0.6853406431413518  0.3394094107906724  1.0000
  O   O23       1.0  0.18182986187991895  0.8146600387680181  0.1605892093279948  1.0000
  O   O24       1.0  0.3181716891959069  0.8146600387680181  0.8394107906720052  1.0000
  O   O25       1.0  0.0836248134143531  0.4691788511539343  0.0997233337932926  1.0000
  O   O26       1.0  0.4163767376614729  0.4691817485805955  0.9002752863253747  1.0000
  O   O27       1.0  0.4163718466064452  0.0308221005058513  0.5997274734372837  1.0000
  O   O28       1.0  0.0836186995955615  0.0308192030791901  0.4002766662067074  1.0000
  O   O29       1.0  0.9163721749185142  0.5308216034523099  0.9002745963847119  1.0000
  O   O30       1.0  0.583625141726422  0.5308201547389757  0.0997247136746253  1.0000
  O   O31       1.0  0.583625141726422  0.9691783541003929  0.4002732165033791  1.0000
  O   O32       1.0  0.9163709521547572  0.9691790784570529  0.5997267834966209  1.0000
  O   O33       1.0  0.05141110220802149  0.624349087485939  0.1405167655581607  1.0000
  O   O34       1.0  0.4485892261040476  0.6243519849126002  0.8594790947978481  1.0000
  O   O35       1.0  0.4485904488678116  0.8756501457100967  0.6405195253208191  1.0000
  O   O36       1.0  0.0514098794442575  0.8756486969967625  0.3594804746791809  1.0000
  O   O37       1.0  0.9485907771798805  0.375649918406971  0.8594811646198436  1.0000
  O   O38       1.0  0.5514126532838475  0.375649918406971  0.1405188353801563  1.0000
  O   O39       1.0  0.5514065394650558  0.1243510332528146  0.3594818545605065  1.0000
  O   O40       1.0  0.9485895544161165  0.1243488601828133  0.6405188353801563  1.0000
  O   O41       1.0  0.2500026096835483  0.7705184678830506  0.4999993100593372  1.0000
  O   O42       1.0  0.24999894139227757  0.7294836627396535  0.9999993100593372  1.0000
  O   O43       1.0  0.7500017152318603  0.2294819867231936  0.4999993100593372  1.0000
  O   O44       1.0  0.7499980469405898  0.2705160675099236  0.9999993100593372  1.0000
