data_image0
_chemical_formula_structural       Zr6H29C50ClO37
_chemical_formula_sum              "Zr6 H29 C50 Cl1 O37"
_cell_length_a       14.777275160995398
_cell_length_b       14.782485488935512
_cell_length_c       14.808904649713256
_cell_angle_alpha    60.15513747263636
_cell_angle_beta     59.90174595057461
_cell_angle_gamma    60.0714868315481

_space_group_name_H-M_alt    "P 1"
_space_group_IT_number       1

loop_
  _space_group_symop_operation_xyz
  'x, y, z'

loop_
  _atom_site_type_symbol
  _atom_site_label
  _atom_site_symmetry_multiplicity
  _atom_site_fract_x
  _atom_site_fract_y
  _atom_site_fract_z
  _atom_site_occupancy
  Zr  Zr1       1.0  0.8762953254181622  0.8824959289488917  0.6177972208038652  1.0000
  Zr  Zr2       1.0  0.11749426879232763  0.1179662045087184  0.3819663272363983  1.0000
  Zr  Zr3       1.0  0.11537260349524524  0.8813283510149649  0.6190573258891164  1.0000
  Zr  Zr4       1.0  0.8784349566047421  0.12205512018850591  0.37798641617660417  1.0000
  Zr  Zr5       1.0  0.11595843558189478  0.881811302210771  0.379197378125731  1.0000
  Zr  Zr6       1.0  0.8773228880274713  0.12124568184425741  0.6180499536512942  1.0000
  H   H1        1.0  0.09032957491519499  0.7193166905983973  0.5924257435841866  1.0000
  H   H2        1.0  0.09404084167217518  0.0941508504022366  0.21716846191247197  1.0000
  H   H3        1.0  0.09195409186487079  0.0941231803481131  0.5939855643087882  1.0000
  H   H4        1.0  0.7147681694437079  0.09663214167870378  0.5923736591494233  1.0000
  H   H5        1.0  0.8468952867699144  0.5901620554589685  0.6422540551438586  1.0000
  H   H6        1.0  0.14274010976751583  0.587401871718029  0.3544001840285489  1.0000
  H   H7        1.0  0.8499686651491203  0.41912468613949744  0.6413956828814165  1.0000
  H   H8        1.0  0.5874186298986925  0.8509088429983648  0.9171976302046616  1.0000
  H   H9        1.0  0.5920463791914583  0.13842085309382682  0.9208344617938167  1.0000
  H   H10       1.0  0.41834505524364823  0.8514506532478451  0.08812864931634573  1.0000
  H   H11       1.0  0.14106727811046932  0.8515939123436099  0.08627560243269264  1.0000
  H   H12       1.0  0.8497673478730475  0.14298700832559066  0.08926697646176507  1.0000
  H   H13       1.0  0.13881250360774527  0.8539485727943728  0.9167633450558625  1.0000
  H   H14       1.0  0.5871658444656802  0.4221312888960896  0.6400501713610325  1.0000
  H   H15       1.0  0.5896676678270438  0.4186994785222284  0.34944494982602237  1.0000
  H   H16       1.0  0.41724764709049095  0.5913323370217612  0.6381765235352006  1.0000
  H   H17       1.0  0.13858798182784687  0.5952943425097033  0.9121660349316585  1.0000
  H   H18       1.0  0.7398378401950223  0.6208796734386157  0.9679686935468864  1.0000
  H   H19       1.0  0.8274246116461297  0.5356208449501025  0.8824817415917464  1.0000
  H   H20       1.0  0.835938830959293  0.3658652792094728  0.052239716924759594  1.0000
  H   H21       1.0  0.7487659804489725  0.4509904788984471  0.1377271264591044  1.0000
  H   H22       1.0  0.5866283339475372  0.1441989548119054  0.34764739433746433  1.0000
  H   H23       1.0  0.5890198135960175  0.8534974577222982  0.6382456718414176  1.0000
  H   H24       1.0  0.4167990444837101  0.14137147666456681  0.35068960121186166  1.0000
  H   H25       1.0  0.15041214627501626  0.3484648851127902  0.3472266066477232  1.0000
  H   H26       1.0  0.35278622790952596  0.14537930972945654  0.15939641536504465  1.0000
  H   H27       1.0  0.8428613152413432  0.15059037778878095  0.8501681963275729  1.0000
  H   H28       1.0  0.3505173804047954  0.657365867918351  0.3424154262851217  1.0000
  H   H29       1.0  0.34948235582075426  0.8453755516018546  0.6468665367330574  1.0000
  C   C1        1.0  0.9937938412672266  0.7005367607107048  0.4964558575651238  1.0000
  C   C2        1.0  0.3091204239090574  0.9938895602403194  0.1984337121045314  1.0000
  C   C3        1.0  0.9950499395364147  0.3082134078743763  0.49963406233782587  1.0000
  C   C4        1.0  0.6979208229181924  0.9973097063076254  0.8063438556249451  1.0000
  C   C5        1.0  0.992240689528195  0.7024061204782087  0.8048833982728425  1.0000
  C   C6        1.0  0.6975761760010711  0.999651196574071  0.49337084013438903  1.0000
  C   C7        1.0  0.0002265540632961907  0.3064029610916847  0.19972613451400184  1.0000
  C   C8        1.0  0.30723738471679934  0.9982953354716602  0.49502784939482325  1.0000
  C   C9        1.0  0.30711473757183677  0.6986751372923835  0.4962559914160635  1.0000
  C   C10       1.0  0.9955433365301687  0.9974990859647119  0.8080657644884538  1.0000
  C   C11       1.0  0.6986488818957002  0.3095993816789714  0.49478002955664374  1.0000
  C   C12       1.0  0.9956381332415272  0.9979593624661193  0.1977160646612926  1.0000
  C   C13       1.0  0.9966080332968655  0.40797007227119036  0.49808486653810746  1.0000
  C   C14       1.0  0.9945533029509619  0.5985606122277218  0.49784503242624106  1.0000
  C   C15       1.0  0.08100724245218766  0.4554120425152846  0.4162230464891367  1.0000
  C   C16       1.0  0.9113680690820231  0.5514923218749959  0.5800179227013516  1.0000
  C   C17       1.0  0.07848901392885903  0.550876840394757  0.41739758724665427  1.0000
  C   C18       1.0  0.9132264102868247  0.45736938596468957  0.579233199658134  1.0000
  C   C19       1.0  0.4102261997743353  0.9944873932452509  0.09986076259294646  1.0000
  C   C20       1.0  0.5991224524439787  0.9948224079403476  0.9094727119401397  1.0000
  C   C21       1.0  0.46000649367282875  0.076470383311559  0.05252014663613377  1.0000
  C   C22       1.0  0.5509910063660751  0.9128127672578902  0.9562146247353596  1.0000
  C   C23       1.0  0.55451967822475  0.07526342507728151  0.9572432072827157  1.0000
  C   C24       1.0  0.4577343395698602  0.9134750808446341  0.05027103040678325  1.0000
  C   C25       1.0  0.9940435161415802  0.998740229137212  0.9079115325694643  1.0000
  C   C26       1.0  0.9953623825982373  0.9973995384475671  0.09724000678417587  1.0000
  C   C27       1.0  0.9114515710301062  0.08189706559733165  0.9567714402363164  1.0000
  C   C28       1.0  0.07770689017927156  0.9150274475869722  0.0492257231636087  1.0000
  C   C29       1.0  0.9133542855060596  0.07975010781638757  0.05151870431868117  1.0000
  C   C30       1.0  0.07616236541510064  0.9165317603337616  0.9557809493474849  1.0000
  C   C31       1.0  0.40827015566166114  0.6002428394331432  0.4935368641396637  1.0000
  C   C32       1.0  0.598264982198266  0.4112004300777273  0.4943440229185327  1.0000
  C   C33       1.0  0.45771493672198454  0.5513104583605255  0.4104762927092054  1.0000
  C   C34       1.0  0.5501581165046402  0.45921727866122813  0.5766757494019288  1.0000
  C   C35       1.0  0.552518178032443  0.4567060904906698  0.41237966901368134  1.0000
  C   C36       1.0  0.45635755806250683  0.5525248252865681  0.5754285817015728  1.0000
  C   C37       1.0  0.9930143976853144  0.6025186990752264  0.9052146727396677  1.0000
  C   C38       1.0  0.002257388634639248  0.40677366670234255  0.09962232155871932  1.0000
  C   C39       1.0  0.9157173742484306  0.5487459045211763  0.9577003693682044  1.0000
  C   C40       1.0  0.08181645523109883  0.4614844278105821  0.04465480011594277  1.0000
  C   C41       1.0  0.9209797569800313  0.45463883339952105  0.05141304404995821  1.0000
  C   C42       1.0  0.0761507516888642  0.5561877958728587  0.9511486966064028  1.0000
  C   C43       1.0  0.8143606860166196  0.5485665003577581  0.9556450478138533  1.0000
  C   C44       1.0  0.8198788527555008  0.44203779150258543  0.06201599033325048  1.0000
  C   C45       1.0  0.4076794914933542  0.9966365076644834  0.4952219948477391  1.0000
  C   C46       1.0  0.5972688217897042  0.9987127250242197  0.49288464660857284  1.0000
  C   C47       1.0  0.45668042189450353  0.9141034738376064  0.5776732136475076  1.0000
  C   C48       1.0  0.549419712309131  0.0807453470126731  0.4109299729570566  1.0000
  C   C49       1.0  0.5515506637934636  0.916471539624368  0.5751514873402428  1.0000
  C   C50       1.0  0.45574389852703934  0.07890268024463153  0.41289929711133067  1.0000
  Cl  Cl1       1.0  0.1920291965867589  0.41698017810430343  0.08613633817753899  1.0000
  O   O1        1.0  0.9166525978016861  0.7408206141695575  0.5728456171346608  1.0000
  O   O2        1.0  0.2673998566671258  0.0720139207741681  0.23919866068359147  1.0000
  O   O3        1.0  0.0735904358359605  0.2662546501897864  0.42278675889062367  1.0000
  O   O4        1.0  0.7356247301501498  0.9226098524376809  0.7645514264141652  1.0000
  O   O5        1.0  0.06951724273346101  0.7422028341621001  0.7643146640214198  1.0000
  O   O6        1.0  0.7368288891590777  0.07703834307542932  0.4176286370739318  1.0000
  O   O7        1.0  0.9226515212076547  0.26851947216403005  0.2360811459896296  1.0000
  O   O8        1.0  0.265361705966235  0.9214016900383585  0.5731589905440089  1.0000
  O   O9        1.0  0.2653309260632711  0.7381130424828442  0.41977143715509874  1.0000
  O   O10       1.0  0.9182137129876081  0.07554533710136731  0.7670524049482097  1.0000
  O   O11       1.0  0.737054816848314  0.2687448650970695  0.5726243231887552  1.0000
  O   O12       1.0  0.0724115109321131  0.9213146423052124  0.2372890043544728  1.0000
  O   O13       1.0  0.07183523327657329  0.9222883031378402  0.7662785681172722  1.0000
  O   O14       1.0  0.7385322995187665  0.2694199796542378  0.4182216787042989  1.0000
  O   O15       1.0  0.9201240273958362  0.07590185667994831  0.23652373970691082  1.0000
  O   O16       1.0  0.2648913241136699  0.7390674407945852  0.5728339660411095  1.0000
  O   O17       1.0  0.915947238347485  0.7401354130419762  0.765579528098776  1.0000
  O   O18       1.0  0.2653846679727963  0.07469348180296725  0.4203637745212205  1.0000
  O   O19       1.0  0.07522690829376431  0.2636964574834835  0.2423215956938733  1.0000
  O   O20       1.0  0.7363897901207465  0.9237626347619641  0.5706637806543498  1.0000
  O   O21       1.0  0.7371628240911647  0.07487230544980863  0.7656887680910458  1.0000
  O   O22       1.0  0.07115493140761216  0.7399960325052675  0.4198832348479371  1.0000
  O   O23       1.0  0.2666585328545138  0.919587100251114  0.23773731362771847  1.0000
  O   O24       1.0  0.9189789365164102  0.2673716401275146  0.5754264330719606  1.0000
  O   O25       1.0  0.7951796731687748  0.06980685686395541  0.5654426264208537  1.0000
  O   O26       1.0  0.06490222986348464  0.06743536027986613  0.567429844911608  1.0000
  O   O27       1.0  0.06664809197039996  0.0674010230174247  0.2973218802330777  1.0000
  O   O28       1.0  0.06411884147233568  0.7994835583843171  0.5658461428061657  1.0000
  O   O29       1.0  0.1472773210442707  0.9498973525957768  0.44990014048092763  1.0000
  O   O30       1.0  0.9478858523039477  0.9527556509835549  0.44879208391913017  1.0000
  O   O31       1.0  0.9486303171704334  0.14959983430507887  0.44981435035971623  1.0000
  O   O32       1.0  0.9471396163148853  0.9521441224842206  0.6473577872579598  1.0000
  O   O33       1.0  0.16442026441073654  0.4132873507472468  0.3363241623898503  1.0000
  O   O34       1.0  0.42049800291184875  0.15681920702261468  0.09433875663928144  1.0000
  O   O35       1.0  0.8303458218664092  0.1640210295241146  0.9160526234671025  1.0000
  O   O36       1.0  0.4174837314980023  0.5915017259235639  0.3289302229992898  1.0000
  O   O37       1.0  0.4159068961448112  0.832715579795405  0.6594884569947154  1.0000
