data_image0
_chemical_formula_structural       K4Mg4H40C24N4O32
_chemical_formula_sum              "K4 Mg4 H40 C24 N4 O32"
_cell_length_a       7.091814711396573
_cell_length_b       10.096410734619495
_cell_length_c       15.313810230930738
_cell_angle_alpha    90.0010504801911
_cell_angle_beta     88.26971628707985
_cell_angle_gamma    90.00078678261279

_space_group_name_H-M_alt    "P 1"
_space_group_IT_number       1

loop_
  _space_group_symop_operation_xyz
  'x, y, z'

loop_
  _atom_site_type_symbol
  _atom_site_label
  _atom_site_symmetry_multiplicity
  _atom_site_fract_x
  _atom_site_fract_y
  _atom_site_fract_z
  _atom_site_occupancy
  K   K1        1.0  0.16453963083544923  0.014756164956971001  0.5939920814510203  1.0000
  K   K2        1.0  0.3354691136992187  0.5147401430234809  0.9059981959999918  1.0000
  K   K3        1.0  0.8354854337421287  0.9852490686043678  0.4060077672147244  1.0000
  K   K4        1.0  0.6645066865221381  0.4852720234339571  0.09399985587266  1.0000
  Mg  Mg1       1.0  0.36509888356022197  0.13405185556008092  0.7908948651821035  1.0000
  Mg  Mg2       1.0  0.13494004471530727  0.6340549909536008  0.7091025573446219  1.0000
  Mg  Mg3       1.0  0.6349046353106543  0.8659484257574735  0.20911289276377693  1.0000
  Mg  Mg4       1.0  0.8650641901606946  0.3659551946702564  0.2908908283519196  1.0000
  H   H1        1.0  0.5167089870545142  0.8587849966774785  0.9020546975937125  1.0000
  H   H2        1.0  0.9833509133919804  0.35878931612315773  0.5979371794844826  1.0000
  H   H3        1.0  0.4832520588780796  0.1412251889964722  0.0979564665793689  1.0000
  H   H4        1.0  0.016690088132350005  0.641228793253987  0.4020541252913077  1.0000
  H   H5        1.0  0.6742237993068159  0.8065154651594  0.817861274189177  1.0000
  H   H6        1.0  0.8258314614000001  0.30651476461740396  0.6821182624268475  1.0000
  H   H7        1.0  0.3257582064081888  0.1934808543561104  0.18215373975584734  1.0000
  H   H8        1.0  0.17420448430445387  0.6934835355467328  0.31786130170861077  1.0000
  H   H9        1.0  0.8478475131634724  0.06906245395939692  0.9082309859621562  1.0000
  H   H10       1.0  0.6521720184768043  0.5690752497736754  0.5917779554645437  1.0000
  H   H11       1.0  0.1521275383983038  0.9309279227891168  0.09178209137877502  1.0000
  H   H12       1.0  0.34784199119368253  0.4309359263755469  0.408217357492056  1.0000
  H   H13       1.0  0.6351714316108429  0.0227477229486439  0.9611338942515248  1.0000
  H   H14       1.0  0.8648351765532425  0.5227511185951954  0.5388614958759348  1.0000
  H   H15       1.0  0.36482218217744833  0.9772386920177001  0.038874549507482904  1.0000
  H   H16       1.0  0.1351692209167226  0.4772471815705189  0.4611286233198158  1.0000
  H   H17       1.0  0.8288940817856059  0.9379210606060228  0.7313327306646116  1.0000
  H   H18       1.0  0.6711587317698929  0.43790553038228114  0.7686626886001664  1.0000
  H   H19       1.0  0.17109648356218093  0.06206931621574801  0.268680295439161  1.0000
  H   H20       1.0  0.3288415972520724  0.5620798938543247  0.23132417806291988  1.0000
  H   H21       1.0  0.8705624165314559  0.1014898526079122  0.7654881083215488  1.0000
  H   H22       1.0  0.6294793424377189  0.6014679160993311  0.734511986310693  1.0000
  H   H23       1.0  0.12944914132857113  0.8985064670659498  0.2345281143803462  1.0000
  H   H24       1.0  0.3705124269231987  0.39852047947805164  0.2654768681767195  1.0000
  H   H25       1.0  0.5515729019147741  0.7991436524078142  0.5225577381331237  1.0000
  H   H26       1.0  0.9484501822642173  0.2991506476885064  0.977442068935787  1.0000
  H   H27       1.0  0.44846219767546797  0.20085068619298604  0.47743881143200184  1.0000
  H   H28       1.0  0.051526572627445  0.7008516143952548  0.022565124235278206  1.0000
  H   H29       1.0  0.3552276744655743  0.8389066879633519  0.4771259495985945  1.0000
  H   H30       1.0  0.1447948800949632  0.33891453002118505  0.022876842676126306  1.0000
  H   H31       1.0  0.6447928010392161  0.16108963162090356  0.5228810991430279  1.0000
  H   H32       1.0  0.8551868543098138  0.6610907032226693  0.9771153109457416  1.0000
  H   H33       1.0  0.16636000289066996  0.1746724088901956  0.9377786860305621  1.0000
  H   H34       1.0  0.33366431446432193  0.6746662754120649  0.5622166371230009  1.0000
  H   H35       1.0  0.8336142567643635  0.8253338148916641  0.06222198361266611  1.0000
  H   H36       1.0  0.666356616704924  0.3253389581015327  0.4377812656566392  1.0000
  H   H37       1.0  0.13829336280795704  0.0203427543887642  0.908698863683391  1.0000
  H   H38       1.0  0.36174648317255287  0.5203406976731486  0.5912920282798242  1.0000
  H   H39       1.0  0.8616949352060886  0.97966346947819  0.0913030659538592  1.0000
  H   H40       1.0  0.6382586738888704  0.4796655262922231  0.4087111520356005  1.0000
  C   C1        1.0  0.3880509989110834  0.8456423069291858  0.7796603040659635  1.0000
  C   C2        1.0  0.11199237787544548  0.34565156236885747  0.7203310353724676  1.0000
  C   C3        1.0  0.6119399245146298  0.154360945653643  0.22034553595826625  1.0000
  C   C4        1.0  0.8880288136627215  0.6543576328746639  0.279661641136741  1.0000
  C   C5        1.0  0.5608456667706888  0.877405691122661  0.8336609579769461  1.0000
  C   C6        1.0  0.9391949081204629  0.3774026456122215  0.666329889750415  1.0000
  C   C7        1.0  0.4391353191346781  0.1225945900790961  0.1663462212090749  1.0000
  C   C8        1.0  0.06082497068832279  0.6226055591458888  0.33366083155120674  1.0000
  C   C9        1.0  0.6360576675960347  0.22169201713508363  0.9148177855257913  1.0000
  C   C10       1.0  0.8639795218623262  0.7216878246597814  0.5851797816457989  1.0000
  C   C11       1.0  0.3639275166968332  0.7782973691350252  0.08519003291104352  1.0000
  C   C12       1.0  0.1360419299034419  0.278310475548821  0.4148076685083737  1.0000
  C   C13       1.0  0.6932111092879792  0.07566795996412883  0.9037449186489825  1.0000
  C   C14       1.0  0.8068162830494146  0.5756744361991082  0.5962503556568564  1.0000
  C   C15       1.0  0.3067784036710748  0.9243224167491848  0.09626092595985372  1.0000
  C   C16       1.0  0.1931952638504697  0.42433277803104374  0.4037377804401602  1.0000
  C   C17       1.0  0.6715233151858371  0.0890553330778658  0.6662423028097494  1.0000
  C   C18       1.0  0.8284961301359034  0.589064895921851  0.8337479256243017  1.0000
  C   C19       1.0  0.3284702660327881  0.9109281105447667  0.3337667942189597  1.0000
  C   C20       1.0  0.17149576948484932  0.4109334041284002  0.16623831577300766  1.0000
  C   C21       1.0  0.7577556426796478  0.0318167851565576  0.7484732988824379  1.0000
  C   C22       1.0  0.7422891846201481  0.5318043383301045  0.7515227219564623  1.0000
  C   C23       1.0  0.2422505016029035  0.9681805248768781  0.2515383694504224  1.0000
  C   C24       1.0  0.2577040276734621  0.468189009499632  0.24846547461459786  1.0000
  N   N1        1.0  0.6247757224279978  0.015026119268334498  0.8237288397666236  1.0000
  N   N2        1.0  0.8752604862115234  0.515027629649019  0.676263751453206  1.0000
  N   N3        1.0  0.3752122500495219  0.984967228828303  0.17627962266355723  1.0000
  N   N4        1.0  0.124741123196273  0.4849795845530239  0.32372572382252685  1.0000
  O   O1        1.0  0.2813270905431438  0.9401305109595557  0.7580423334579224  1.0000
  O   O2        1.0  0.21869371745069802  0.4401354644153841  0.7419580006167268  1.0000
  O   O3        1.0  0.7186540255278402  0.05986977020518942  0.24196223258159935  1.0000
  O   O4        1.0  0.7813187516911455  0.5598737308622219  0.258039930133009  1.0000
  O   O5        1.0  0.3594778197076137  0.7240601045435967  0.7626243529614458  1.0000
  O   O6        1.0  0.14054435632274223  0.22406616150603753  0.7373767682999955  1.0000
  O   O7        1.0  0.6405101854243612  0.27594512895565526  0.23738345624978766  1.0000
  O   O8        1.0  0.859461419034794  0.7759410527344955  0.2626139995752156  1.0000
  O   O9        1.0  0.5169116558768323  0.26940864085857197  0.8623425869144017  1.0000
  O   O10       1.0  0.9831307700981994  0.7694120487218542  0.6376535498662008  1.0000
  O   O11       1.0  0.48308596119186126  0.730581735996495  0.1376704158997626  1.0000
  O   O12       1.0  0.016879561687090896  0.23059318454413363  0.3623306711577144  1.0000
  O   O13       1.0  0.7068744518523431  0.2835805975312766  0.9775147995273629  1.0000
  O   O14       1.0  0.7931594887607716  0.7835798662533051  0.5224874061477891  1.0000
  O   O15       1.0  0.2930974861484259  0.7164097792872113  0.022504166709026708  1.0000
  O   O16       1.0  0.2068722909750988  0.21641645297037826  0.4774908653769075  1.0000
  O   O17       1.0  0.5074291520425475  0.14066208530028496  0.6722137747429073  1.0000
  O   O18       1.0  0.9925978385936463  0.6406631369710925  0.8277868173527879  1.0000
  O   O19       1.0  0.4925760049058141  0.8593322532532143  0.3277894055048379  1.0000
  O   O20       1.0  0.007388029200626501  0.3593401154185259  0.17220728214390144  1.0000
  O   O21       1.0  0.7741135303643815  0.08740275429097012  0.5971054166477998  1.0000
  O   O22       1.0  0.7259096914180676  0.587402435387382  0.9028932716626842  1.0000
  O   O23       1.0  0.2258994703247055  0.9125876226743587  0.40291014807571207  1.0000
  O   O24       1.0  0.27408608115730004  0.41258298892178413  0.09710014184040723  1.0000
  O   O25       1.0  0.23077118076579953  0.09105449658734702  0.911037259437258  1.0000
  O   O26       1.0  0.2692629586972045  0.5910465381643775  0.5889544610509391  1.0000
  O   O27       1.0  0.7692171497990686  0.9089527177213413  0.08896401691900732  1.0000
  O   O28       1.0  0.7307410157910327  0.40895770482757854  0.41104415090475765  1.0000
  O   O29       1.0  0.4126196765739394  0.8064061130430247  0.5327092238841757  1.0000
  O   O30       1.0  0.08740422876139321  0.30641234348426855  0.9672895687057166  1.0000
  O   O31       1.0  0.5874137198183219  0.19359020653638484  0.4672932099297641  1.0000
  O   O32       1.0  0.9125631419080094  0.6935968515709874  0.032707857810926604  1.0000
