data_image0
_chemical_formula_structural       Zn4H24C37O13
_chemical_formula_sum              "Zn4 H24 C37 O13"
_cell_length_a       10.836501412638379
_cell_length_b       10.947787592147614
_cell_length_c       16.08024677013312
_cell_angle_alpha    99.25427884835098
_cell_angle_beta     90.25398997639223
_cell_angle_gamma    100.23021065100262

_space_group_name_H-M_alt    "P 1"
_space_group_IT_number       1

loop_
  _space_group_symop_operation_xyz
  'x, y, z'

loop_
  _atom_site_type_symbol
  _atom_site_label
  _atom_site_symmetry_multiplicity
  _atom_site_fract_x
  _atom_site_fract_y
  _atom_site_fract_z
  _atom_site_occupancy
  Zn  Zn1       1.0  0.4081980062069874  0.5797327127540016  0.430195186219656  1.0000
  Zn  Zn2       1.0  0.38900389759716353  0.3874296870926557  0.5639416675645919  1.0000
  Zn  Zn3       1.0  0.6128054339884769  0.6278477295074582  0.5806494862037184  1.0000
  Zn  Zn4       1.0  0.6004606432279118  0.3955299419247851  0.42481214332965334  1.0000
  H   H1        1.0  0.5148660547946874  0.2516828892985572  0.0014114803598203995  1.0000
  H   H2        1.0  0.44550997680104837  0.29519998151729965  0.9119433327348078  1.0000
  H   H3        1.0  0.6085336435251135  0.34243273021708387  0.9346161757515505  1.0000
  H   H4        1.0  0.5742828698822037  0.7830947956610501  0.9551755409848826  1.0000
  H   H5        1.0  0.5399508756785137  0.9868186359515719  0.0359934131076827  1.0000
  H   H6        1.0  0.39508813816934213  0.9897816808361671  0.15596844789672565  1.0000
  H   H7        1.0  0.28373258591636835  0.7872376848803739  0.19363897601201788  1.0000
  H   H8        1.0  0.3192931318028158  0.5846209734583212  0.11388199797000453  1.0000
  H   H9        1.0  0.6463470017501436  0.004918164470929298  0.6356413811713608  1.0000
  H   H10       1.0  0.6247638181353777  0.14424243855656732  0.5978712510466622  1.0000
  H   H11       1.0  0.5075099711040352  0.06672635004789382  0.6576389493194912  1.0000
  H   H12       1.0  0.38978880058920146  0.025015284278787006  0.3458635949833494  1.0000
  H   H13       1.0  0.4480711343687033  0.8843705439975623  0.35364686222580133  1.0000
  H   H14       1.0  0.3045144245982029  0.9071418577478594  0.39912235182516304  1.0000
  H   H15       1.0  0.15882939599982385  0.6160558588558586  0.637805061223915  1.0000
  H   H16       1.0  0.2914245104001765  0.8252586654406856  0.684820167890891  1.0000
  H   H17       1.0  0.2589644897642955  0.009853149725586301  0.61914943905456  1.0000
  H   H18       1.0  0.0908673561044537  0.9831794110529161  0.5086180290401857  1.0000
  H   H19       1.0  0.959429766933411  0.7737100937776374  0.4610398084731244  1.0000
  H   H20       1.0  0.9870944893341829  0.3314000889338402  0.32875714043683507  1.0000
  H   H21       1.0  0.888656878928849  0.10824517285004025  0.2788903150138964  1.0000
  H   H22       1.0  0.810747593656444  0.9686725779506846  0.3828107786213054  1.0000
  H   H23       1.0  0.8326627577465331  0.05317759123146711  0.5363574970214486  1.0000
  H   H24       1.0  0.9302931670288571  0.2769906202857513  0.5859478696321221  1.0000
  C   C1        1.0  0.4760581852799817  0.16104431838104463  0.48144999074069267  1.0000
  C   C2        1.0  0.5131081245734421  0.8334193354391815  0.5210516805183405  1.0000
  C   C3        1.0  0.16914544633485915  0.4604146318705914  0.4914491351026912  1.0000
  C   C4        1.0  0.8371327520635105  0.5430337704468542  0.5073454020268997  1.0000
  C   C5        1.0  0.4996857219569577  0.5238910292234351  0.7279538701387906  1.0000
  C   C6        1.0  0.5040900457676826  0.46416993696148273  0.27146103494909823  1.0000
  C   C7        1.0  0.4946429194228727  0.5355091705685668  0.8182695160193847  1.0000
  C   C8        1.0  0.47594313319417825  0.5494872074603592  0.9824678916766347  1.0000
  C   C9        1.0  0.49293142960048897  0.4460440462922435  0.017603239269796192  1.0000
  C   C10       1.0  0.496403960090781  0.45126685665876914  0.10537911542672872  1.0000
  C   C11       1.0  0.4866771977285183  0.542564539757734  0.8945245770116799  1.0000
  C   C12       1.0  0.5023178545487498  0.4523020832928069  0.18138135378551823  1.0000
  C   C13       1.0  0.5154783358222801  0.9709839283925064  0.530019486266376  1.0000
  C   C14       1.0  0.4650196627557577  0.020701154963298107  0.4688036142884188  1.0000
  C   C15       1.0  0.9769337502346501  0.553695680635606  0.5124345857538729  1.0000
  C   C16       1.0  0.028884286288651074  0.45017098377551423  0.48933067577230105  1.0000
  C   C17       1.0  0.516483031418737  0.32660791430422625  0.963556564783602  1.0000
  C   C18       1.0  0.4516745846730003  0.6699371442077294  0.030294770508334106  1.0000
  C   C19       1.0  0.5112411439337307  0.7844776942592517  0.00788403045883259  1.0000
  C   C20       1.0  0.4915673582635591  0.8987026776613546  0.05323234586569469  1.0000
  C   C21       1.0  0.41045834622218524  0.900378138614471  0.120562646421277  1.0000
  C   C22       1.0  0.3485165261981678  0.7869342625568194  0.14192761239743854  1.0000
  C   C23       1.0  0.3687620702950127  0.6725249852482379  0.09725951314194961  1.0000
  C   C24       1.0  0.577413638346762  0.05152376355019331  0.6093732184105819  1.0000
  C   C25       1.0  0.3989019349254475  0.9559662670401677  0.3869682166605131  1.0000
  C   C26       1.0  0.05219603488300347  0.6795597895139451  0.544633093020579  1.0000
  C   C27       1.0  0.14544929199229273  0.6960703220626528  0.608396160777545  1.0000
  C   C28       1.0  0.21938238916826688  0.8141842954728277  0.635186687118882  1.0000
  C   C29       1.0  0.200860796069712  0.9175673109274314  0.5990290164509419  1.0000
  C   C30       1.0  0.10672909139550771  0.9025820432879644  0.5365306375149573  1.0000
  C   C31       1.0  0.03255238855205529  0.7847872463919573  0.5099907511850077  1.0000
  C   C32       1.0  0.9629444770535329  0.31873405763188606  0.46040247151901087  1.0000
  C   C33       1.0  0.9528874648523098  0.2699601119968591  0.373968809673059  1.0000
  C   C34       1.0  0.8977175453011694  0.1447571320592331  0.34627994880634116  1.0000
  C   C35       1.0  0.8540061574651714  0.06653256978685111  0.4045407049910495  1.0000
  C   C36       1.0  0.8656687352185487  0.11413692171257142  0.4906607332458394  1.0000
  C   C37       1.0  0.9199276054513061  0.2397555848962725  0.5186891262150725  1.0000
  O   O1        1.0  0.5029762460583028  0.4969750174187197  0.5017500363739202  1.0000
  O   O2        1.0  0.5590454060605906  0.2183632640951673  0.4388359491387065  1.0000
  O   O3        1.0  0.4407167599031396  0.7612956902204786  0.4635035893156001  1.0000
  O   O4        1.0  0.2145147106038721  0.4063739988244989  0.545894990081031  1.0000
  O   O5        1.0  0.7895484141611391  0.6145415734975046  0.5641728902913243  1.0000
  O   O6        1.0  0.42676397208055045  0.42894731269569764  0.6862959292868426  1.0000
  O   O7        1.0  0.5618958182491909  0.39074614430257526  0.30449921426292553  1.0000
  O   O8        1.0  0.5754719351267781  0.6085433861963453  0.6989314057380298  1.0000
  O   O9        1.0  0.44719033359412913  0.5482742746914937  0.3102152380216126  1.0000
  O   O10       1.0  0.227679126218618  0.5168407989691988  0.4362485978197911  1.0000
  O   O11       1.0  0.778095708299645  0.4646494448784751  0.4468109867944606  1.0000
  O   O12       1.0  0.4000867466885579  0.2087762922509597  0.5316197725578677  1.0000
  O   O13       1.0  0.5849037761215001  0.7969989174956995  0.571990169608384  1.0000
