data_image0
_chemical_formula_structural       Ag4H28C48S4N8Cl16O14F12
_chemical_formula_sum              "Ag4 H28 C48 S4 N8 Cl16 O14 F12"
_cell_length_a       12.178531960791389
_cell_length_b       12.61233419238002
_cell_length_c       13.8909
_cell_angle_alpha    88.31310083426065
_cell_angle_beta     78.49390147169755
_cell_angle_gamma    61.88640189020364

_space_group_name_H-M_alt    "P 1"
_space_group_IT_number       1

loop_
  _space_group_symop_operation_xyz
  'x, y, z'

loop_
  _atom_site_type_symbol
  _atom_site_label
  _atom_site_symmetry_multiplicity
  _atom_site_fract_x
  _atom_site_fract_y
  _atom_site_fract_z
  _atom_site_occupancy
  Ag  Ag1       1.0  0.4742955721420189  0.6482399050144849  0.4058575406452007  1.0000
  Ag  Ag2       1.0  0.5257037477567437  0.35176077837760295  0.5941413362041885  1.0000
  Ag  Ag3       1.0  0.5463700450248652  0.04695492337335591  0.14250418571523943  1.0000
  Ag  Ag4       1.0  0.4536318556583793  0.953043957111227  0.857495727779316  1.0000
  H   H1        1.0  0.4366810780822874  0.8572392545641279  0.2846040034383178  1.0000
  H   H2        1.0  0.5633203701657692  0.1427605273742074  0.7153952451894126  1.0000
  H   H3        1.0  0.6753215443949615  0.6500779692280929  0.24164639481205086  1.0000
  H   H4        1.0  0.3246800376797551  0.34991820689521097  0.7583558063714904  1.0000
  H   H5        1.0  0.3711967523646252  0.530754338121426  0.2753984346200298  1.0000
  H   H6        1.0  0.6288043103615735  0.4692445423631497  0.7245987458357347  1.0000
  H   H7        1.0  0.20812790552661645  0.8631086199857949  0.43324881811683014  1.0000
  H   H8        1.0  0.7918714143721388  0.13689206340630022  0.5667514985240771  1.0000
  H   H9        1.0  0.7071860501343963  0.4480306310640928  0.48621355438994845  1.0000
  H   H10       1.0  0.29281462706993727  0.5519673479667234  0.5137865971641702  1.0000
  H   H11       1.0  0.8267124180516705  0.9887541463009059  0.05261086192093955  1.0000
  H   H12       1.0  0.17328690184709217  0.0112465370911892  0.9473894547199747  1.0000
  H   H13       1.0  0.2965187891686583  0.10999538761358713  0.07016422728871421  1.0000
  H   H14       1.0  0.7034822066442032  0.890005295778508  0.9298350763679436  1.0000
  H   H15       1.0  0.3748599790090026  0.2551213296501302  0.29688642118387776  1.0000
  H   H16       1.0  0.6251414692390469  0.744878452288205  0.7031121075480938  1.0000
  H   H17       1.0  0.6670102294892716  0.8456708984811458  0.27697536206223117  1.0000
  H   H18       1.0  0.3329873475820477  0.15433158781846154  0.7230280907638189  1.0000
  H   H19       1.0  0.48632158631480144  0.0049724189319491005  0.343484081907043  1.0000
  H   H20       1.0  0.5136798619332553  0.9950273630063862  0.6565144468249285  1.0000
  H   H21       1.0  0.5028062541581236  0.9240387809773553  0.45120244585888963  1.0000
  H   H22       1.0  0.497193903697685  0.07596190241473981  0.5487970043420133  1.0000
  H   H23       1.0  0.2555958864807835  0.0426234380637069  0.3720292519310106  1.0000
  H   H24       1.0  0.7444051093320853  0.9573772453283881  0.627969331829888  1.0000
  H   H25       1.0  0.2887946108625599  0.11209216905588452  0.4635703921398644  1.0000
  H   H26       1.0  0.7112063849503087  0.8879085143362105  0.5364281916210344  1.0000
  H   H27       1.0  0.2751733165235137  0.9795412888889176  0.4887232008115348  1.0000
  H   H28       1.0  0.7248260033752416  0.0204593945031775  0.5112763959336134  1.0000
  C   C1        1.0  0.17432762940096316  0.33417792281783687  0.2942938643247358  1.0000
  C   C2        1.0  0.8256729808900402  0.6658218591204985  0.70570553084724  1.0000
  C   C3        1.0  0.0817372283446574  0.7742631404544085  0.27373032686165283  1.0000
  C   C4        1.0  0.9182612535970521  0.2257375429376864  0.7262686965319886  1.0000
  C   C5        1.0  0.8608664306477324  0.8039732534274364  0.2782834572732114  1.0000
  C   C6        1.0  0.13913334168621821  0.19602652851089894  0.7217160844430096  1.0000
  C   C7        1.0  0.1858571947773697  0.6590023614373594  0.24856617936769249  1.0000
  C   C8        1.0  0.8141429630784386  0.3409983219547357  0.7514318310416925  1.0000
  C   C9        1.0  0.7365469525965054  0.5751851909709487  0.2792280088554405  1.0000
  C   C10       1.0  0.2634549480867393  0.424813689513627  0.7207740643263989  1.0000
  C   C11       1.0  0.9440985780723068  0.4090085007656441  0.2870962495023264  1.0000
  C   C12       1.0  0.05590345643759781  0.5909867739039001  0.7129058966522877  1.0000
  C   C13       1.0  0.09157495220768651  0.8493993112263496  0.3401885849154737  1.0000
  C   C14       1.0  0.9084243676910688  0.1506013721657382  0.6598102919339156  1.0000
  C   C15       1.0  0.9547556091895261  0.8816334947232108  0.14736850224318224  1.0000
  C   C16       1.0  0.04524332518737142  0.11836628721512453  0.8526304661215247  1.0000
  C   C17       1.0  0.8836845564786272  0.3889096877658674  0.37776890289813986  1.0000
  C   C18       1.0  0.11631657316089421  0.611087389811189  0.6222333533143214  1.0000
  C   C19       1.0  0.2910084223879324  0.621281028912442  0.291935106639407  1.0000
  C   C20       1.0  0.7089908975108303  0.3787196544796529  0.7080630503142301  1.0000
  C   C21       1.0  0.19958754041282128  0.8068533981858792  0.3804245414942002  1.0000
  C   C22       1.0  0.8004105560070301  0.1931463837524561  0.6195752933105112  1.0000
  C   C23       1.0  0.9661114808406736  0.8180575669504222  0.2323736324206962  1.0000
  C   C24       1.0  0.0338870011010357  0.1819431164416727  0.7676246710771863  1.0000
  C   C25       1.0  0.1291518363227624  0.24782496292873193  0.16683816020729128  1.0000
  C   C26       1.0  0.8708487739682411  0.7521748190096036  0.8331619548604436  1.0000
  C   C27       1.0  0.7541665015484611  0.46279734508227227  0.41580406471844356  1.0000
  C   C28       1.0  0.24583417565587248  0.5372006339485438  0.5841975266272003  1.0000
  C   C29       1.0  0.8395538629419407  0.9348787624234589  0.11602700431442503  1.0000
  C   C30       1.0  0.16044461899976176  0.065121920968636  0.8839727389749754  1.0000
  C   C31       1.0  0.08225180223885789  0.33172416568717017  0.2485832839715911  1.0000
  C   C32       1.0  0.9177475845732276  0.6682747147974056  0.751418508947225  1.0000
  C   C33       1.0  0.2599931052293912  0.1738787111180287  0.13415954828088417  1.0000
  C   C34       1.0  0.7400070526264243  0.8261219722740665  0.8658399019200189  1.0000
  C   C35       1.0  0.3035423507650918  0.255977710720714  0.2597889301049463  1.0000
  C   C36       1.0  0.6964590974829646  0.7440220712176213  0.7402103185227843  1.0000
  C   C37       1.0  0.8656264033186644  0.5049646475441705  0.2375677380271668  1.0000
  C   C38       1.0  0.13437556427791003  0.4950324300328931  0.7624350915368153  1.0000
  C   C39       1.0  0.5103183456357172  0.3207525719923225  0.9421748040953588  1.0000
  C   C40       1.0  0.48968142669823334  0.6792472099460127  0.0578247376208623  1.0000
  C   C41       1.0  0.7491922582041964  0.8568633483468275  0.2422872866361772  1.0000
  C   C42       1.0  0.2508070616945659  0.1431373350452674  0.7577151896920142  1.0000
  C   C43       1.0  0.451317835093441  0.9505604520065277  0.3907364445343332  1.0000
  C   C44       1.0  0.5486827751975624  0.049439329931807705  0.6092622307418835  1.0000
  C   C45       1.0  0.3325002642133512  0.7276345433416367  0.7614466587959895  1.0000
  C   C46       1.0  0.66749692733611  0.27236704150421087  0.23855400596234225  1.0000
  C   C47       1.0  0.30931999618468353  0.0247485114861803  0.4309135370019845  1.0000
  C   C48       1.0  0.6906788712788837  0.9752530733596743  0.5690861147720907  1.0000
  S   S1        1.0  0.5754278210250163  0.15615432731816983  0.9101655480948023  1.0000
  S   S2        1.0  0.4245723368307921  0.8438463560739251  0.08983318221034156  1.0000
  S   S3        1.0  0.4162742497032428  0.7357268937318011  0.6352831348079846  1.0000
  S   S4        1.0  0.583725455717378  0.2642746911140534  0.3647178102133707  1.0000
  N   N1        1.0  0.296205751426143  0.6946052776297763  0.35699356629976353  1.0000
  N   N2        1.0  0.7037931160374243  0.3053963072160784  0.6430046456827938  1.0000
  N   N3        1.0  0.3447674660150426  0.17739167641494902  0.1810179331857853  1.0000
  N   N4        1.0  0.655233982233014  0.8226081055233863  0.8189813154419383  1.0000
  N   N5        1.0  0.7387114380655363  0.9239666646766765  0.16426547747948209  1.0000
  N   N6        1.0  0.2612887867036022  0.0760322158079063  0.8357354489993226  1.0000
  N   N7        1.0  0.6826401798364048  0.5540001261921645  0.3665470551018898  1.0000
  N   N8        1.0  0.31735965941087585  0.4459978528386516  0.63345396289224  1.0000
  Cl  Cl1       1.0  0.8672039548441505  0.7231317818178767  0.38076054986288443  1.0000
  Cl  Cl2       1.0  0.13279704096871112  0.27686890157421834  0.6192394736895324  1.0000
  Cl  Cl3       1.0  0.13179582746339946  0.43296824021312125  0.39443805525672804  1.0000
  Cl  Cl4       1.0  0.868205168349462  0.5670324431789738  0.6055619682956888  1.0000
  Cl  Cl5       1.0  0.9241317419770214  0.5407388399507056  0.12526846575546804  1.0000
  Cl  Cl6       1.0  0.0758684827921243  0.4592600405338771  0.8747339005148616  1.0000
  Cl  Cl7       1.0  0.9704334206911228  0.9942277735225886  0.3722092572057249  1.0000
  Cl  Cl8       1.0  0.029566351642827702  0.0057720084157467004  0.627789564614737  1.0000
  Cl  Cl9       1.0  0.1856789283517557  0.5641243533540107  0.16262208474238804  1.0000
  Cl  Cl10      1.0  0.814320843982195  0.4358754285843248  0.8373767370780739  1.0000
  Cl  Cl11      1.0  0.9680737452918251  0.2703703214291124  0.44267082967350285  1.0000
  Cl  Cl12      1.0  0.03192828921807933  0.729624953240432  0.557329156793827  1.0000
  Cl  Cl13      1.0  0.026358801814538424  0.23083526394206902  0.10788595851678907  1.0000
  Cl  Cl14      1.0  0.9736418084764651  0.7691645179962663  0.8921134366551867  1.0000
  Cl  Cl15      1.0  0.08325515780513362  0.8954392590348166  0.0844245582565861  1.0000
  Cl  Cl16      1.0  0.9167446814421468  0.1045587199959996  0.9155757398417846  1.0000
  O   O1        1.0  0.44319295206216214  0.8348164937749091  0.648355518392016  1.0000
  O   O2        1.0  0.5568072057936533  0.165184189617186  0.3516468113919231  1.0000
  O   O3        1.0  0.6570370892957275  0.0974687861853099  0.980590572299526  1.0000
  O   O4        1.0  0.3429622306030352  0.9025318972067853  0.019408304549870126  1.0000
  O   O5        1.0  0.46038828394867454  0.14291738032818563  0.9247951054880517  1.0000
  O   O6        1.0  0.5396123263423221  0.8570824016101497  0.07520356978816518  1.0000
  O   O7        1.0  0.4864130008069694  0.839481516975205  0.3368195072423745  1.0000
  O   O8        1.0  0.5135867715269812  0.1605182649631303  0.6631807543696054  1.0000
  O   O9        1.0  0.32275756656324023  0.7591809176207533  0.5742453439823478  1.0000
  O   O10       1.0  0.6772451051637277  0.2408197657713416  0.42575366658581254  1.0000
  O   O11       1.0  0.6451980436438731  0.13690017649012282  0.8079214390721958  1.0000
  O   O12       1.0  0.35480249973380035  0.8631014083557319  0.1920779196133893  1.0000
  O   O13       1.0  0.5277133800310879  0.6159723677285669  0.6148104139491295  1.0000
  O   O14       1.0  0.4722863253895327  0.3840292171172878  0.38519341065526186  1.0000
  F   F1        1.0  0.4432020781319964  0.3869986057978281  0.8748486009167279  1.0000
  F   F2        1.0  0.5567964038097131  0.6130020775942668  0.12515114237266536  1.0000
  F   F3        1.0  0.3079672377348928  0.6328908518683107  0.7659218054253214  1.0000
  F   F4        1.0  0.6920325345990577  0.3671089300700245  0.23407845618665138  1.0000
  F   F5        1.0  0.4309267158959358  0.35372234175612505  0.0319683717349122  1.0000
  F   F6        1.0  0.5690743468302627  0.6462765387284506  0.9680302485123704  1.0000
  F   F7        1.0  0.6045101043331231  0.3487958969658607  0.9435426110059096  1.0000
  F   F8        1.0  0.3954896680008277  0.6512038849724746  0.0564562108145452  1.0000
  F   F9        1.0  0.21975885017018024  0.8295213543974143  0.7904694016082061  1.0000
  F   F10       1.0  0.7802387938144764  0.1704793289946807  0.20953120812119147  1.0000
  F   F11       1.0  0.4060226131203634  0.7138621328191023  0.827596951059526  1.0000
  F   F12       1.0  0.5939732880368569  0.286140353480512  0.17240535506350332  1.0000
