data_image0
_chemical_formula_structural       Cu2H32C16N4O10
_chemical_formula_sum              "Cu2 H32 C16 N4 O10"
_cell_length_a       6.338697008009218
_cell_length_b       6.804651757007971
_cell_length_c       11.889349455023368
_cell_angle_alpha    90.0001497558164
_cell_angle_beta     89.99982943985464
_cell_angle_gamma    89.99990637453887

_space_group_name_H-M_alt    "P 1"
_space_group_IT_number       1

loop_
  _space_group_symop_operation_xyz
  'x, y, z'

loop_
  _atom_site_type_symbol
  _atom_site_label
  _atom_site_symmetry_multiplicity
  _atom_site_fract_x
  _atom_site_fract_y
  _atom_site_fract_z
  _atom_site_occupancy
  Cu  Cu1       1.0  0.33798968609704616  0.24999988261590286  0.2500001386274776  1.0000
  Cu  Cu2       1.0  0.6620213319404371  0.7499999182471341  0.7499998548872214  1.0000
  H   H1        1.0  0.7865643396702922  0.25000116188672183  0.3171876461207503  1.0000
  H   H2        1.0  0.21340213118489257  0.7499989476698159  0.8171897585778967  1.0000
  H   H3        1.0  0.7865662913348287  0.24999938365461105  0.18281528150308193  1.0000
  H   H4        1.0  0.21340250525537394  0.7500015781702911  0.6828098241645507  1.0000
  H   H5        1.0  0.1377084476883894  0.25000014030321427  0.9349906779238426  1.0000
  H   H6        1.0  0.8622542121100166  0.7500005104155818  0.4349849830665209  1.0000
  H   H7        1.0  0.13770947760008312  0.25000222963806346  0.5650099639545517  1.0000
  H   H8        1.0  0.8622505091601553  0.7499967214494275  0.06501604434140522  1.0000
  H   H9        1.0  0.0438624993069396  0.5768634438028499  0.32474314083031436  1.0000
  H   H10       1.0  0.9561562914997381  0.07686475526320176  0.8247433275846634  1.0000
  H   H11       1.0  0.04386219847077649  0.9231353889569218  0.32474255720265444  1.0000
  H   H12       1.0  0.0438629154303882  0.5768631004397021  0.17525724955141445  1.0000
  H   H13       1.0  0.9561548291733856  0.42313635705726677  0.6752576937682735  1.0000
  H   H14       1.0  0.043862614594217995  0.9231350455937742  0.17525666592375444  1.0000
  H   H15       1.0  0.9561567076255245  0.07686441189812139  0.675256595216851  1.0000
  H   H16       1.0  0.9561559906612304  0.42313670041920665  0.8247435850459228  1.0000
  H   H17       1.0  0.37075056298269254  0.5816534579155074  0.07438604081090723  1.0000
  H   H18       1.0  0.6292648804995764  0.08165674125740449  0.5743867478694825  1.0000
  H   H19       1.0  0.3707486928609995  0.9183422528481343  0.07438545005921071  1.0000
  H   H20       1.0  0.37075116288090726  0.5816557342534948  0.4256138363954919  1.0000
  H   H21       1.0  0.6292636102799348  0.41834340377926077  0.9256139526990952  1.0000
  H   H22       1.0  0.3707524479805287  0.9183459987666253  0.4256132456423743  1.0000
  H   H23       1.0  0.6292654804001357  0.08165901759345931  0.9256137023651619  1.0000
  H   H24       1.0  0.6292661656030347  0.4183425970217697  0.5743861571130964  1.0000
  H   H25       1.0  0.6120333840797371  0.5753592231310164  0.15024281201225884  1.0000
  H   H26       1.0  0.38798322562748666  0.07535993806125418  0.6502439031122407  1.0000
  H   H27       1.0  0.6120330806323792  0.9246394045208104  0.15024138953238975  1.0000
  H   H28       1.0  0.6120328286935787  0.575359681406418  0.3497566717896562  1.0000
  H   H29       1.0  0.38798236679163267  0.42464057772838254  0.8497571814986673  1.0000
  H   H30       1.0  0.6120341028598588  0.9246398627930712  0.3497544082196101  1.0000
  H   H31       1.0  0.3879826702413283  0.07536039633665578  0.8497577628896311  1.0000
  H   H32       1.0  0.38798134456308725  0.42463864987513483  0.6502450038992649  1.0000
  C   C1        1.0  0.11106038616343031  0.2500010155430416  0.027529778680865008  1.0000
  C   C2        1.0  0.8889029645142442  0.7500007025017721  0.5275249283356517  1.0000
  C   C3        1.0  0.11105914757860089  0.2500035071398655  0.47247170086559737  1.0000
  C   C4        1.0  0.8888985706908626  0.7499973157867286  0.9724744203187331  1.0000
  C   C5        1.0  0.1235320273746083  0.6349087970925706  0.24999975440066896  1.0000
  C   C6        1.0  0.8764839234799452  0.13490582222650718  0.7500000679622192  1.0000
  C   C7        1.0  0.12353340500526849  0.8650910394658381  0.24999992554526787  1.0000
  C   C8        1.0  0.8764837234929318  0.3650954125155862  0.7500002391135397  1.0000
  C   C9        1.0  0.45169912093162873  0.6352404395251765  0.14935479424415382  1.0000
  C   C10       1.0  0.5483158120558046  0.13524384725491245  0.6493564712360824  1.0000
  C   C11       1.0  0.4516989215293705  0.8647569608368072  0.14935496489503922  1.0000
  C   C12       1.0  0.4517001382152727  0.6352423714586943  0.35064335162616095  1.0000
  C   C13       1.0  0.5483150523284408  0.36475936133543735  0.8506451992680298  1.0000
  C   C14       1.0  0.4516999388153522  0.8647588927683927  0.350642681188127  1.0000
  C   C15       1.0  0.5483168293456161  0.13524137043773976  0.8506441875258945  1.0000
  C   C16       1.0  0.5483156126560972  0.3647574294007043  0.6493566418847723  1.0000
  N   N1        1.0  0.34183721073316053  0.5599892920967944  0.2499995249606927  1.0000
  N   N2        1.0  0.6581804479101406  0.05998812225998049  0.7500001859934927  1.0000
  N   N3        1.0  0.3418353029648387  0.9400102090145595  0.24999896642743386  1.0000
  N   N4        1.0  0.6581801177482235  0.44001197834430866  0.7500004685500771  1.0000
  O   O1        1.0  0.6930342634189232  0.24999960983909375  0.2500015382470195  1.0000
  O   O2        1.0  0.3069294262737259  0.7500016606470864  0.7500001374842643  1.0000
  O   O3        1.0  0.28283054785083556  0.24999954287119405  0.08363952440098643  1.0000
  O   O4        1.0  0.7171529993786903  0.7499994937660259  0.5836391528870096  1.0000
  O   O5        1.0  0.2828280440441731  0.25000030712003957  0.41636084065154233  1.0000
  O   O6        1.0  0.7171473403494345  0.7500002580172945  0.9163604691400808  1.0000
  O   O7        1.0  0.9236673619864604  0.25000046850091445  0.06117521173185032  1.0000
  O   O8        1.0  0.0763115775065941  0.7500014040798746  0.5611632438935885  1.0000
  O   O9        1.0  0.9236663107117665  0.25000721428488487  0.43882749767600165  1.0000
  O   O10       1.0  0.07631683663473149  0.7499949236571478  0.9388348748678653  1.0000
