data_image0
_chemical_formula_structural       Zn16H36C112S8Cl20O52
_chemical_formula_sum              "Zn16 H36 C112 S8 Cl20 O52"
_cell_length_a       18.374786883603335
_cell_length_b       19.63119006744034
_cell_length_c       32.661354459460085
_cell_angle_alpha    86.13134078762509
_cell_angle_beta     73.7046947443591
_cell_angle_gamma    62.10456999388683

_space_group_name_H-M_alt    "P 1"
_space_group_IT_number       1

loop_
  _space_group_symop_operation_xyz
  'x, y, z'

loop_
  _atom_site_type_symbol
  _atom_site_label
  _atom_site_symmetry_multiplicity
  _atom_site_fract_x
  _atom_site_fract_y
  _atom_site_fract_z
  _atom_site_occupancy
  Zn  Zn1       1.0  0.8753624231816128  0.5452279685364159  0.5187557595297888  1.0000
  Zn  Zn2       1.0  0.04692895522100572  0.4793416018280892  0.43947600552742455  1.0000
  Zn  Zn3       1.0  0.05468929547924963  0.3994609657765693  0.5249309144954921  1.0000
  Zn  Zn4       1.0  0.03971597517706012  0.5700937785971618  0.5165380804060999  1.0000
  Zn  Zn5       1.0  0.6244523580580789  0.18195257467741743  0.7364250117045826  1.0000
  Zn  Zn6       1.0  0.479136461477637  0.349610510401149  0.7256196050193677  1.0000
  Zn  Zn7       1.0  0.44485042370400396  0.2693516352665242  0.8119635466548372  1.0000
  Zn  Zn8       1.0  0.4488966804442071  0.20185606011260396  0.7247827764381894  1.0000
  Zn  Zn9       1.0  0.4687724890891261  0.7545445611314461  0.31408961380656547  1.0000
  Zn  Zn10      1.0  0.4647572612850224  0.6852846057658012  0.22767966946484106  1.0000
  Zn  Zn11      1.0  0.6262244076678198  0.7019711753379807  0.22768135207702034  1.0000
  Zn  Zn12      1.0  0.4461170229301814  0.8514522264405994  0.22969481064568942  1.0000
  Zn  Zn13      1.0  0.023288960859673646  0.9015930344295878  0.024902848837754683  1.0000
  Zn  Zn14      1.0  0.0655598019618537  0.04654018169024709  0.015225969614114395  1.0000
  Zn  Zn15      1.0  0.8759072381125391  0.06998950266286387  0.023818718472490685  1.0000
  Zn  Zn16      1.0  0.022846092278292728  0.9887395321017037  0.9387121740026668  1.0000
  H   H1        1.0  0.7912431527161559  0.9546203532548596  0.6628949477297252  1.0000
  H   H2        1.0  0.32347629529544975  0.9689683176200313  0.40925103184074607  1.0000
  H   H3        1.0  0.5697718050752911  0.44553641469259014  0.6230409339729588  1.0000
  H   H4        1.0  0.5696765502433295  0.4966857733932668  0.6660811150947052  1.0000
  H   H5        1.0  0.6629302050136372  0.5446832648653839  0.613966952727317  1.0000
  H   H6        1.0  0.6642475972390469  0.49277261270344036  0.570867913402459  1.0000
  H   H7        1.0  0.3640468992392057  0.6603270702724373  0.42448113191898773  1.0000
  H   H8        1.0  0.2773889168731641  0.7533110691087825  0.42329549895316626  1.0000
  H   H9        1.0  0.1732273862102573  0.7135514407184045  0.4728214007878505  1.0000
  H   H10       1.0  0.2601482870864798  0.6210051532843861  0.47466135630598666  1.0000
  H   H11       1.0  0.5589060967339703  0.7521023333747788  0.4247237755254573  1.0000
  H   H12       1.0  0.5564413656051101  0.6624934900836973  0.4245312474646709  1.0000
  H   H13       1.0  0.6525999514457367  0.6119438959678617  0.47337178222424103  1.0000
  H   H14       1.0  0.6548329625087203  0.7016473089154828  0.4738407465548916  1.0000
  H   H15       1.0  0.3345630390101419  0.20506306010184963  0.6308170612851284  1.0000
  H   H16       1.0  0.24447234841132112  0.24833455721439882  0.6767014492955423  1.0000
  H   H17       1.0  0.1455874881139322  0.29835709933788473  0.6291489822170531  1.0000
  H   H18       1.0  0.2355876823028638  0.2553008681747854  0.583214377981143  1.0000
  H   H19       1.0  0.17775293513658846  0.661984400154992  0.9620426280890084  1.0000
  H   H20       1.0  0.9285631849987936  0.10021686305533704  0.8333586939234646  1.0000
  H   H21       1.0  0.9340124083051221  0.007311861305758797  0.8319136523391176  1.0000
  H   H22       1.0  0.8381316002489143  0.0523613563735807  0.7830343887906678  1.0000
  H   H23       1.0  0.8318319793159005  0.14552279703269008  0.7846753194505066  1.0000
  H   H24       1.0  0.17319249520301125  0.19748981988210085  0.9687878758534648  1.0000
  H   H25       1.0  0.26681563182851425  0.10784580818782527  0.9664900036946801  1.0000
  H   H26       1.0  0.35787877169790505  0.16147763474740626  0.917464643975421  1.0000
  H   H27       1.0  0.2641901923273551  0.25086019447755337  0.919515488066473  1.0000
  H   H28       1.0  0.9597552258210769  0.29327785005280294  0.08799987164967144  1.0000
  H   H29       1.0  0.2641860670574729  0.007343537709360197  0.06974427971118757  1.0000
  H   H30       1.0  0.17127602612601575  0.05635337495137799  0.11368648736649326  1.0000
  H   H31       1.0  0.26349633053128935  0.010733655651442596  0.16441711509531123  1.0000
  H   H32       1.0  0.356727687150979  0.9633919399897548  0.12032956754663354  1.0000
  H   H33       1.0  0.9300284874013511  0.746956188396531  0.0866356859891226  1.0000
  H   H34       1.0  0.9319835924234707  0.7933114281349062  0.13110587437392232  1.0000
  H   H35       1.0  0.8329069549086159  0.748639989710156  0.18111137914551273  1.0000
  H   H36       1.0  0.8322999920544657  0.7010322951655891  0.1367957097641437  1.0000
  C   C1        1.0  0.8737572796100251  0.5620407159411795  0.42925740865207  1.0000
  C   C2        1.0  0.13252951609926092  0.3120110259703139  0.4418493305983801  1.0000
  C   C3        1.0  0.8830172050222841  0.41297102818015213  0.5694966651046228  1.0000
  C   C4        1.0  0.14305173842373606  0.45387243449130915  0.5664890421348971  1.0000
  C   C5        1.0  0.8598729769157173  0.6815666568694138  0.5611626649845503  1.0000
  C   C6        1.0  0.13393847599647277  0.5723902186934781  0.4304907040936924  1.0000
  C   C7        1.0  0.6637396415318617  0.2993792336143314  0.6889469441259094  1.0000
  C   C8        1.0  0.3736550556948828  0.43852478178851567  0.8087238655515915  1.0000
  C   C9        1.0  0.6157628052136559  0.1806110293036838  0.828003807671635  1.0000
  C   C10       1.0  0.35102629261574236  0.18318391004089557  0.8097318705765273  1.0000
  C   C11       1.0  0.6142289828061677  0.06740660961711599  0.6866032083344533  1.0000
  C   C12       1.0  0.373878424671254  0.3372397531454538  0.6770818624063677  1.0000
  C   C13       1.0  0.3672369877820925  0.6744939989103356  0.31479764151231376  1.0000
  C   C14       1.0  0.6420711275225912  0.568839474402999  0.18519970492168616  1.0000
  C   C15       1.0  0.6483381495957157  0.6777987515693268  0.31552447794154387  1.0000
  C   C16       1.0  0.6145063738175124  0.8378235749646732  0.18129552085903092  1.0000
  C   C17       1.0  0.3750880637223659  0.9248534839146667  0.31843036168184097  1.0000
  C   C18       1.0  0.35834849942271757  0.8091566428205964  0.18331287450358497  1.0000
  C   C19       1.0  0.13248209795514748  0.9195601875497769  0.07006577224951366  1.0000
  C   C20       1.0  0.9117111042298729  0.18257462733639326  0.061299266083750636  1.0000
  C   C21       1.0  0.8430144955408493  0.9480381678413463  0.06835987819832201  1.0000
  C   C22       1.0  0.8413815912160842  0.07752927214247755  0.9413130758179729  1.0000
  C   C23       1.0  0.11599193848808631  0.8190328485791055  0.9392280551520001  1.0000
  C   C24       1.0  0.1331452115948153  0.06318327623285568  0.9242375329013012  1.0000
  C   C25       1.0  0.7191941885492527  0.8068572603404717  0.5965481072633805  1.0000
  C   C26       1.0  0.7473245005591593  0.9416477215554692  0.6526887149633678  1.0000
  C   C27       1.0  0.807028043379013  0.7567446805585475  0.586119937250032  1.0000
  C   C28       1.0  0.660267926501952  0.9917347777719665  0.6621585665815884  1.0000
  C   C29       1.0  0.7687646780262651  0.8746150385925088  0.6285243767355836  1.0000
  C   C30       1.0  0.6972527618999749  0.8746153577062754  0.6205424875973192  1.0000
  C   C31       1.0  0.20184763584665427  0.21963533659988593  0.3737013486217363  1.0000
  C   C32       1.0  0.3062306370859673  0.014595171507487192  0.38749496066497346  1.0000
  C   C33       1.0  0.1802865954272049  0.23654030852065935  0.41756179081348677  1.0000
  C   C34       1.0  0.3273729147971737  0.9997693848446613  0.3437406105334658  1.0000
  C   C35       1.0  0.2608682464953063  0.09508996694754757  0.3986319026754898  1.0000
  C   C36       1.0  0.24815700313317984  0.13908508825797836  0.36296160403718136  1.0000
  C   C37       1.0  0.7258118662327319  0.3231811421513626  0.6601025315643197  1.0000
  C   C38       1.0  0.8338056547206278  0.37912023446990867  0.6006048161678733  1.0000
  C   C39       1.0  0.6928358730195043  0.3917463521285994  0.6401488260883922  1.0000
  C   C40       1.0  0.8696369024657357  0.3094495144165066  0.6211224350342233  1.0000
  C   C41       1.0  0.7444298025792335  0.41820841693285615  0.6116274577294474  1.0000
  C   C42       1.0  0.816793140112665  0.28226462990072315  0.6501047664876294  1.0000
  C   C43       1.0  0.6100688647675481  0.45983442247471346  0.6363455033669394  1.0000
  C   C44       1.0  0.6687054149310967  0.48972843684640577  0.6038382352531995  1.0000
  C   C45       1.0  0.3050805259139295  0.6489123360288074  0.34151740192845625  1.0000
  C   C46       1.0  0.18706433170149947  0.6017734301439218  0.399030449323085  1.0000
  C   C47       1.0  0.2823133813923774  0.6602557456972561  0.3859493122858025  1.0000
  C   C48       1.0  0.20646083933805653  0.591500915017221  0.3539524793864642  1.0000
  C   C49       1.0  0.22535403096488693  0.6381889660819124  0.41350394372265936  1.0000
  C   C50       1.0  0.2646915712296973  0.6137691202836064  0.3257085419110694  1.0000
  C   C51       1.0  0.29786219568929767  0.6910111090054158  0.4222395910769307  1.0000
  C   C52       1.0  0.23292861465655057  0.6660209820338565  0.45349839821597016  1.0000
  C   C53       1.0  0.7109563349072301  0.6478068392479058  0.3415627389029367  1.0000
  C   C54       1.0  0.8219736489431781  0.589120287649443  0.3979126671248847  1.0000
  C   C55       1.0  0.679815106684998  0.6564456598147146  0.3860589405106082  1.0000
  C   C56       1.0  0.8561725635642005  0.5789092972336503  0.35258726828401166  1.0000
  C   C57       1.0  0.7327473681715304  0.628504579605888  0.4129836758476272  1.0000
  C   C58       1.0  0.8020900842054458  0.608468433081235  0.32505480347256804  1.0000
  C   C59       1.0  0.59812133205498  0.6890411471032178  0.4227575874681974  1.0000
  C   C60       1.0  0.6582298943534041  0.6574629190280062  0.4533773729977994  1.0000
  C   C61       1.0  0.3140712597913192  0.37413750228310494  0.6499382592944014  1.0000
  C   C62       1.0  0.1999779119544057  0.43190680426509687  0.5952748173538821  1.0000
  C   C63       1.0  0.2775465256978791  0.33264800355193797  0.638624542455666  1.0000
  C   C64       1.0  0.23434167981161366  0.47672914264951066  0.6071578695513222  1.0000
  C   C65       1.0  0.22317906754430075  0.36019899029206204  0.6124469857442063  1.0000
  C   C66       1.0  0.29004587200887494  0.44848620006191436  0.633889537749688  1.0000
  C   C67       1.0  0.2733220113619552  0.25719153311400317  0.6438305081179436  1.0000
  C   C68       1.0  0.2115067605755669  0.2885075070099532  0.6140879798813683  1.0000
  C   C69       1.0  0.2996880395758765  0.5881350607790166  0.8190750749440097  1.0000
  C   C70       1.0  0.19411109124943224  0.6715063170862833  0.9282487504474446  1.0000
  C   C71       1.0  0.32441248972239833  0.5140528247164722  0.8331639778250163  1.0000
  C   C72       1.0  0.1687513841322996  0.744625603514876  0.9135265644735353  1.0000
  C   C73       1.0  0.2417628785158711  0.6142517987381451  0.8937951072864009  1.0000
  C   C74       1.0  0.2521291073333955  0.6453447833468003  0.8536797019769647  1.0000
  C   C75       1.0  0.7783710088780464  0.10423147677171579  0.9156446070511846  1.0000
  C   C76       1.0  0.666974843064878  0.15482422111776364  0.8596671486278705  1.0000
  C   C77       1.0  0.8093879674816263  0.09709855934192287  0.8712333228997546  1.0000
  C   C78       1.0  0.6333344261381412  0.16115751048698  0.9049876367360947  1.0000
  C   C79       1.0  0.7561748063377748  0.12171227637673346  0.8444541031333939  1.0000
  C   C80       1.0  0.6877774540602317  0.13687977356592995  0.9322954561781311  1.0000
  C   C81       1.0  0.8908925645765535  0.06975639255351497  0.8345692308786565  1.0000
  C   C82       1.0  0.8305452362403187  0.09795340641563399  0.8040752600422534  1.0000
  C   C83       1.0  0.18938946924392033  0.08948318545864709  0.8923737505776114  1.0000
  C   C84       1.0  0.2950714292757794  0.15056224945119107  0.835716052034982  1.0000
  C   C85       1.0  0.22617252606758598  0.12723143569178313  0.9071978950562848  1.0000
  C   C86       1.0  0.2592906765706786  0.11145011479598568  0.8194263264287897  1.0000
  C   C87       1.0  0.2762259732721687  0.15677316225276877  0.8801493241265346  1.0000
  C   C88       1.0  0.2081080146072622  0.08129690962122275  0.8471045878372576  1.0000
  C   C89       1.0  0.23384537238837313  0.15430825732112638  0.9474185896283909  1.0000
  C   C90       1.0  0.2908006929415592  0.1877667150088057  0.9166812927609339  1.0000
  C   C91       1.0  0.6714236255693676  0.4423376909690119  0.14937694589664122  1.0000
  C   C92       1.0  0.8924736386647677  0.30706747332072837  0.09668929018607021  1.0000
  C   C93       1.0  0.6963486232111435  0.4935523329756179  0.16084996607975904  1.0000
  C   C94       1.0  0.8644684060912693  0.2583274771457553  0.08569992633655936  1.0000
  C   C95       1.0  0.8219067728589521  0.37508780830397365  0.11998340041348139  1.0000
  C   C96       1.0  0.7427768086987284  0.37532059689657155  0.12606708520965526  1.0000
  C   C97       1.0  0.18795626603914423  0.8867394167786811  0.09963765494165237  1.0000
  C   C98       1.0  0.297402628510099  0.8337496070899845  0.15659407847004297  1.0000
  C   C99       1.0  0.22459214980975123  0.9287812263218741  0.11030252349766559  1.0000
  C   C100      1.0  0.2602767511371269  0.7897902506313269  0.1469566940336974  1.0000
  C   C101      1.0  0.2761287407638518  0.9038744810753981  0.1379325697997373  1.0000
  C   C102      1.0  0.2070433090588537  0.8154326214500924  0.11904363168818574  1.0000
  C   C103      1.0  0.23188448676391715  0.002689266847660599  0.10282014970087518  1.0000
  C   C104      1.0  0.2900531011907502  0.9745194420556658  0.13440615566773312  1.0000
  C   C105      1.0  0.7794173904254719  0.9243565977360145  0.09530416810311233  1.0000
  C   C106      1.0  0.666019266926412  0.8712172018412259  0.15188224836768416  1.0000
  C   C107      1.0  0.8095388446550016  0.8537595149804532  0.11357277179081386  1.0000
  C   C108      1.0  0.6331448608292333  0.9430670333837694  0.13312798509633686  1.0000
  C   C109      1.0  0.7553127090650376  0.8286770721359814  0.1409415915763148  1.0000
  C   C110      1.0  0.688610231417577  0.9689611255060484  0.10547430103144957  1.0000
  C   C111      1.0  0.8904437409627374  0.7826600450889458  0.11680638675802159  1.0000
  C   C112      1.0  0.8288338277127991  0.7542536372197757  0.1480501748794935  1.0000
  S   S1        1.0  0.8623732550354929  0.7924374676718811  0.6058455137433326  1.0000
  S   S2        1.0  0.603800738275815  0.9577674098583555  0.6421107597572017  1.0000
  S   S3        1.0  0.21698728123232056  0.1536849051597642  0.4452976575618165  1.0000
  S   S4        1.0  0.29260637988465277  0.08248234690626077  0.31590184784351993  1.0000
  S   S5        1.0  0.28973753049687173  0.5148148317924495  0.8886374928702307  1.0000
  S   S6        1.0  0.20283497445568324  0.7446325184830157  0.8581199571465914  1.0000
  S   S7        1.0  0.8072612466753524  0.4589898327213148  0.14293835839875868  1.0000
  S   S8        1.0  0.7536844020704833  0.29386865244460836  0.10335084623437034  1.0000
  Cl  Cl1       1.0  0.6445234399007163  0.7920908363476824  0.5825353005203195  1.0000
  Cl  Cl2       1.0  0.17921985633883958  0.2842587956688192  0.33566658792384624  1.0000
  Cl  Cl3       1.0  0.3205794189612023  0.6113930947873238  0.7672775583827443  1.0000
  Cl  Cl4       1.0  0.5695933190579012  0.4544141647388002  0.16004890466425079  1.0000
  Cl  Cl5       1.0  0.9788453460907005  0.2553566224602761  0.6124802858761311  1.0000
  Cl  Cl6       1.0  0.8661361100162921  0.19897611304864424  0.6743530566826903  1.0000
  Cl  Cl7       1.0  0.15532190287679978  0.5549842969495911  0.3324407068002343  1.0000
  Cl  Cl8       1.0  0.28485335420802455  0.5955688215918754  0.2718547074695507  1.0000
  Cl  Cl9       1.0  0.9648937351162773  0.5272630916220818  0.3290111111646039  1.0000
  Cl  Cl10      1.0  0.8515982095948825  0.5946844263059033  0.27091583853965057  1.0000
  Cl  Cl11      1.0  0.20854825842904734  0.5679788577031742  0.5901538572973307  1.0000
  Cl  Cl12      1.0  0.3257337259277903  0.5082789585689012  0.6475651049025045  1.0000
  Cl  Cl13      1.0  0.524977341710965  0.19633472935400673  0.9287839881088612  1.0000
  Cl  Cl14      1.0  0.64149991718444  0.1444618692631181  0.9865004827934953  1.0000
  Cl  Cl15      1.0  0.27518523493928626  0.1000984010194017  0.7653212202151278  1.0000
  Cl  Cl16      1.0  0.17167067282943543  0.031756158970957  0.8238758627887818  1.0000
  Cl  Cl17      1.0  0.275898850809817  0.705174505297762  0.1708868505904561  1.0000
  Cl  Cl18      1.0  0.16811864403398144  0.7558860834820107  0.10873017373436508  1.0000
  Cl  Cl19      1.0  0.52438220216154  0.0026053069029714  0.14386931240013467  1.0000
  Cl  Cl20      1.0  0.6424596081788181  0.0552793123120452  0.08325750563798807  1.0000
  O   O1        1.0  0.0008578147437530899  0.4998470081853909  0.5018425529164503  1.0000
  O   O2        1.0  0.8330529968593293  0.5589282538433193  0.4676369588776408  1.0000
  O   O3        1.0  0.09491017286352127  0.3705775798898188  0.4219278720765088  1.0000
  O   O4        1.0  0.9641279055209678  0.37389163888562377  0.5565007273744412  1.0000
  O   O5        1.0  0.9523624760312684  0.5461103360317662  0.4160892963579812  1.0000
  O   O6        1.0  0.8372360503416516  0.4799855924206538  0.5583128536437058  1.0000
  O   O7        1.0  0.13214116291375422  0.3125935897561476  0.48115784605746353  1.0000
  O   O8        1.0  0.11521893975823616  0.4059220649976324  0.5639684810191524  1.0000
  O   O9        1.0  0.9408371504291604  0.6551299290277298  0.5550358014273867  1.0000
  O   O10       1.0  0.12752816046612034  0.5150509599112566  0.5468198538164869  1.0000
  O   O11       1.0  0.8230622783638708  0.6496267134591063  0.5481538806715206  1.0000
  O   O12       1.0  0.1387258280039632  0.5087115803595378  0.42021666091603277  1.0000
  O   O13       1.0  0.09070132648128044  0.6120535417762196  0.466435508309125  1.0000
  O   O14       1.0  0.5001683117102473  0.2502325071324023  0.7500097419689022  1.0000
  O   O15       1.0  0.6893667595212563  0.22943474131551503  0.6981745002612242  1.0000
  O   O16       1.0  0.40424355562703324  0.43729216701296986  0.7684183667566555  1.0000
  O   O17       1.0  0.5352881570847856  0.22407846111693164  0.8411958796536607  1.0000
  O   O18       1.0  0.5867079798905692  0.354164538967069  0.7011804486958011  1.0000
  O   O19       1.0  0.6600717804812958  0.15648605620991413  0.7890981121045184  1.0000
  O   O20       1.0  0.38135836242290105  0.38012129888340235  0.8306996659953965  1.0000
  O   O21       1.0  0.3649237351478972  0.22587872056359962  0.831233679283457  1.0000
  O   O22       1.0  0.5350901448443466  0.10823175611485417  0.6877142595829395  1.0000
  O   O23       1.0  0.3812791223002563  0.16599150073700736  0.7696709700976567  1.0000
  O   O24       1.0  0.6571333381021843  0.08535086982380588  0.7044274304113213  1.0000
  O   O25       1.0  0.4230754694445834  0.3643152200126635  0.6801285857016593  1.0000
  O   O26       1.0  0.3709632156742372  0.2780031203504976  0.6947766024534088  1.0000
  O   O27       1.0  0.5012541571549888  0.7495107489374958  0.2513673420181987  1.0000
  O   O28       1.0  0.4001054847642818  0.7000157216789373  0.33569937244696035  1.0000
  O   O29       1.0  0.5630517069007935  0.5871422541208416  0.2017890790944747  1.0000
  O   O30       1.0  0.6771950344646951  0.6670224622338592  0.2751207894563378  1.0000
  O   O31       1.0  0.3821802700237383  0.6699015655781436  0.2744129540808514  1.0000
  O   O32       1.0  0.568976069424501  0.7117741463899915  0.33703291814585856  1.0000
  O   O33       1.0  0.6786318507665782  0.6095603173097925  0.18796720457040547  1.0000
  O   O34       1.0  0.658841979955184  0.7780860701128205  0.19869637978389668  1.0000
  O   O35       1.0  0.3893562308482358  0.9295898539998431  0.2779026522901161  1.0000
  O   O36       1.0  0.5340181742362659  0.8684036788323012  0.1865551326791247  1.0000
  O   O37       1.0  0.3974881083025466  0.8634799393691137  0.33842960878880035  1.0000
  O   O38       1.0  0.4082694425531128  0.737396480029794  0.1834342586906458  1.0000
  O   O39       1.0  0.35729620063003137  0.8641052245935581  0.20283073591519948  1.0000
  O   O40       1.0  0.9991789786170808  0.0017136978144520999  0.000805260687876341  1.0000
  O   O41       1.0  0.08419189837989179  0.8911616252030682  0.06746667884252838  1.0000
  O   O42       1.0  0.9935351340008434  0.15014553343234377  0.047323449975316165  1.0000
  O   O43       1.0  0.8193573923834235  0.019577109976232496  0.06432634541933877  1.0000
  O   O44       1.0  0.13791338787984836  0.9761342506847651  0.05002836031773934  1.0000
  O   O45       1.0  0.9185042778003875  0.89257929893062  0.05239961427985659  1.0000
  O   O46       1.0  0.8626252508951922  0.15605310425240754  0.05655711626836523  1.0000
  O   O47       1.0  0.817706116055916  0.10857971282828768  0.9788579895414454  1.0000
  O   O48       1.0  0.09700359761644244  0.8795136721396729  0.9181572336684451  1.0000
  O   O49       1.0  0.9167366189804369  0.025348209466621092  0.9218464655109241  1.0000
  O   O50       1.0  0.09381610758219945  0.8164795942323264  0.9797738528448077  1.0000
  O   O51       1.0  0.14148147920604967  0.05875796846340359  0.9620785259606063  1.0000
  O   O52       1.0  0.0807794099688621  0.04960360343498138  0.9122021264666242  1.0000
