data_image0
_chemical_formula_structural       Rb2H6C14N4O12
_chemical_formula_sum              "Rb2 H6 C14 N4 O12"
_cell_length_a       7.278875714053518
_cell_length_b       7.444386602292862
_cell_length_c       10.278517063317251
_cell_angle_alpha    109.48408972995496
_cell_angle_beta     108.95804919442966
_cell_angle_gamma    94.60002844391109

_space_group_name_H-M_alt    "P 1"
_space_group_IT_number       1

loop_
  _space_group_symop_operation_xyz
  'x, y, z'

loop_
  _atom_site_type_symbol
  _atom_site_label
  _atom_site_symmetry_multiplicity
  _atom_site_fract_x
  _atom_site_fract_y
  _atom_site_fract_z
  _atom_site_occupancy
  Rb  Rb1       1.0  0.20101123044624108  0.9507504969906082  0.9024555954131088  1.0000
  Rb  Rb2       1.0  0.7989893070021737  0.04925672129875382  0.09754522363786593  1.0000
  H   H1        1.0  0.3123226780655486  0.5627587985309291  0.1254471081820228  1.0000
  H   H2        1.0  0.6876828890938783  0.4372441988086279  0.8745509462791858  1.0000
  H   H3        1.0  0.7835698221216489  0.6580313599896287  0.5437511500363499  1.0000
  H   H4        1.0  0.2594593307462176  0.8860830644514975  0.543882924031827  1.0000
  H   H5        1.0  0.2164293036254321  0.3419685660232048  0.4562485396108968  1.0000
  H   H6        1.0  0.7405352267437876  0.11390806350534889  0.45611063852678047  1.0000
  C   C1        1.0  0.3727556965054005  0.6232589022860465  0.24641553027820604  1.0000
  C   C2        1.0  0.6272473060697905  0.37673095799831213  0.7535826235248494  1.0000
  C   C3        1.0  0.5572875819577093  0.6000124800178598  0.3279840742529815  1.0000
  C   C4        1.0  0.26981226816022297  0.7281122998265347  0.32798751599893455  1.0000
  C   C5        1.0  0.44270801080605793  0.3999844379304704  0.672018920902893  1.0000
  C   C6        1.0  0.7301813153310589  0.2718816740626551  0.6720133199424578  1.0000
  C   C7        1.0  0.6385780590725075  0.6781775033179825  0.4831980165969867  1.0000
  C   C8        1.0  0.3437056733282092  0.805180591694821  0.48320176744501697  1.0000
  C   C9        1.0  0.36141584178800207  0.32181066489464166  0.5168034294318105  1.0000
  C   C10       1.0  0.656289751243129  0.19480764052315894  0.5167942138606705  1.0000
  C   C11       1.0  0.5302633731573039  0.7808207288928345  0.5614091221116126  1.0000
  C   C12       1.0  0.46973045846067407  0.21917468751357927  0.4385950411920873  1.0000
  C   C13       1.0  0.6151096574670376  0.865587717490314  0.73101587830444  1.0000
  C   C14       1.0  0.38490087525295985  0.13441102901552432  0.26898522684491866  1.0000
  N   N1        1.0  0.6679809340674724  0.48386397974912404  0.24719238967120558  1.0000
  N   N2        1.0  0.07836311088982482  0.7634442140158129  0.2471185131451747  1.0000
  N   N3        1.0  0.3320187841586629  0.5161388761240104  0.7528052317837675  1.0000
  N   N4        1.0  0.9216426375216286  0.23654430685877512  0.7528702299142934  1.0000
  O   O1        1.0  0.788665428891605  0.8449275163735879  0.7941261487325662  1.0000
  O   O2        1.0  0.5048393181576499  0.9493876105772331  0.7942703811208389  1.0000
  O   O3        1.0  0.21133003098674413  0.15509118102066569  0.20587821375710286  1.0000
  O   O4        1.0  0.495157918650321  0.050625315261896724  0.2057349420110413  1.0000
  O   O5        1.0  0.8326883678278846  0.4646093927529408  0.32159376277468255  1.0000
  O   O6        1.0  0.9881712682285695  0.857498953338798  0.3214770801739489  1.0000
  O   O7        1.0  0.16731600928132914  0.5353950229436961  0.6784053300680524  1.0000
  O   O8        1.0  0.01183072878022531  0.1425082990719986  0.6785240894318318  1.0000
  O   O9        1.0  0.590715383753846  0.4082583769380862  0.10931127748364848  1.0000
  O   O10       1.0  0.017702905635687268  0.7008884072398658  0.10923864169849654  1.0000
  O   O11       1.0  0.4092944236016793  0.5917592191533603  0.8906932631917853  1.0000
  O   O12       1.0  0.9823063677915653  0.2991190058168415  0.8907662191072844  1.0000
