data_image0
_chemical_formula_structural       Zn4P4H36C12N4O12
_chemical_formula_sum              "Zn4 P4 H36 C12 N4 O12"
_cell_length_a       7.622786029341247
_cell_length_b       8.216549864000637
_cell_length_c       11.968365508917172
_cell_angle_alpha    90.00000985547773
_cell_angle_beta     94.67157834573388
_cell_angle_gamma    90.00004335515897

_space_group_name_H-M_alt    "P 1"
_space_group_IT_number       1

loop_
  _space_group_symop_operation_xyz
  'x, y, z'

loop_
  _atom_site_type_symbol
  _atom_site_label
  _atom_site_symmetry_multiplicity
  _atom_site_fract_x
  _atom_site_fract_y
  _atom_site_fract_z
  _atom_site_occupancy
  Zn  Zn1       1.0  0.21361488685490573  0.029337256420056697  0.42104043336315294  1.0000
  Zn  Zn2       1.0  0.28638427305105557  0.5293367005907754  0.578959695131239  1.0000
  Zn  Zn3       1.0  0.7863843412839486  0.9706632325925851  0.5789585493561233  1.0000
  Zn  Zn4       1.0  0.7136149404382551  0.47066378842196593  0.4210401223123553  1.0000
  P   P1        1.0  0.5887806597475702  0.107553909536378  0.3567138753220647  1.0000
  P   P2        1.0  0.9112196371317226  0.6075558915059743  0.6432848129119506  1.0000
  P   P3        1.0  0.4112198845387028  0.8924465794767399  0.6432851849687538  1.0000
  P   P4        1.0  0.0887808925055111  0.39244581456308225  0.35671508210328534  1.0000
  H   H1        1.0  0.6659575045658954  0.14094993726106955  0.2558297627824118  1.0000
  H   H2        1.0  0.8340428199957232  0.6409506712471467  0.7441689310623758  1.0000
  H   H3        1.0  0.3340417235734563  0.8590517688074113  0.744169219936971  1.0000
  H   H4        1.0  0.1659577242910544  0.35905103482181727  0.2558301292285492  1.0000
  H   H5        1.0  0.9944805545765901  0.7099260878211878  0.2099229692227809  1.0000
  H   H6        1.0  0.5055198271605832  0.20992536608582665  0.7900757362105963  1.0000
  H   H7        1.0  0.005521291208069104  0.2900756182483448  0.7900770033639972  1.0000
  H   H8        1.0  0.4944820332731084  0.7900751229277674  0.20992340165176424  1.0000
  H   H9        1.0  0.2105681919919604  0.7912774753012142  0.2256834927631957  1.0000
  H   H10       1.0  0.289431185042183  0.29127451704660257  0.7743166797396697  1.0000
  H   H11       1.0  0.7894323229957365  0.2087242307679347  0.7743172369763583  1.0000
  H   H12       1.0  0.7105706607409629  0.7087235378554052  0.22568329284679575  1.0000
  H   H13       1.0  0.16884519873557483  0.8996854687829196  0.025103220983758907  1.0000
  H   H14       1.0  0.33115295201393746  0.3996838044776254  0.9748968921613397  1.0000
  H   H15       1.0  0.8311500516619361  0.10031502022847857  0.9748971984695346  1.0000
  H   H16       1.0  0.6688489084187453  0.6003142504242902  0.025102245700814804  1.0000
  H   H17       1.0  0.9533918207589237  0.8193831840304211  0.012465069621306678  1.0000
  H   H18       1.0  0.5466073062631622  0.3193813209466967  0.9875352460789912  1.0000
  H   H19       1.0  0.0466060326343509  0.18061730498212109  0.9875371744236999  1.0000
  H   H20       1.0  0.45339323802210163  0.6806167339547429  0.012463814211628194  1.0000
  H   H21       1.0  0.0940892543605756  0.07054426319936619  0.18794090152346143  1.0000
  H   H22       1.0  0.40590991040294006  0.5705414129891793  0.8120609033425765  1.0000
  H   H23       1.0  0.9059125621250106  0.9294574428703511  0.8120607405119459  1.0000
  H   H24       1.0  0.5940892884363363  0.42945785896781535  0.18793974882523654  1.0000
  H   H25       1.0  0.8763141174876238  0.9946854650096454  0.17496877069272895  1.0000
  H   H26       1.0  0.6236851548476707  0.49468483530527846  0.8250315744602688  1.0000
  H   H27       1.0  0.1236876989974505  0.005315024004232798  0.8250328713425787  1.0000
  H   H28       1.0  0.37631405864163986  0.5053156537074556  0.17496824298332572  1.0000
  H   H29       1.0  0.07930024693916242  0.7466078488491376  0.40033134655228514  1.0000
  H   H30       1.0  0.4206977769212584  0.24660859364458076  0.5996687408743924  1.0000
  H   H31       1.0  0.9207002680480301  0.2533926401641721  0.5996693831871696  1.0000
  H   H32       1.0  0.5793014365680521  0.7533918953681534  0.4003310765692021  1.0000
  H   H33       1.0  0.9265583426306848  0.8849983479781327  0.3680655576307075  1.0000
  H   H34       1.0  0.573440838782531  0.3849988541587165  0.6319347690938173  1.0000
  H   H35       1.0  0.07344220165508371  0.11500092397914588  0.6319335026600115  1.0000
  H   H36       1.0  0.42655969085419804  0.6150016348544936  0.3680651259213191  1.0000
  C   C1        1.0  0.07169478090207093  0.8190518585521714  0.23544778686957096  1.0000
  C   C2        1.0  0.4283059206534218  0.3190502135200433  0.7645533025956439  1.0000
  C   C3        1.0  0.9283070355830104  0.18094863046169957  0.7645538551657367  1.0000
  C   C4        1.0  0.5716959251302284  0.6809490584378038  0.23544666999092806  1.0000
  C   C5        1.0  0.013923299568844498  0.9633995202997525  0.1619587547833063  1.0000
  C   C6        1.0  0.4860749039944636  0.4633967165075674  0.8380413690663177  1.0000
  C   C7        1.0  0.9860772154188596  0.03660218576938949  0.8380419749562478  1.0000
  C   C8        1.0  0.5139256402913048  0.5366025554497114  0.1619576912244014  1.0000
  C   C9        1.0  0.030491032024166004  0.9289629165428863  0.0379371511734803  1.0000
  C   C10       1.0  0.46950845914115297  0.4289601302561081  0.9620630444619777  1.0000
  C   C11       1.0  0.9695068506686939  0.0710387895253106  0.9620634234229968  1.0000
  C   C12       1.0  0.5304920851441111  0.5710379246453313  0.037936015828634616  1.0000
  N   N1        1.0  0.05425815226427489  0.8521898629810278  0.35575329129893873  1.0000
  N   N2        1.0  0.4457412899128457  0.35219063604758105  0.6442460567138326  1.0000
  N   N3        1.0  0.9457423773724614  0.1478106260321823  0.6442466037161978  1.0000
  N   N4        1.0  0.5542579382260086  0.6478098529650681  0.35575292600544367  1.0000
  O   O1        1.0  0.4051887475364638  0.0395143334732921  0.3209610026937924  1.0000
  O   O2        1.0  0.0948104354550381  0.539513665412464  0.6790382927861316  1.0000
  O   O3        1.0  0.5948117967498092  0.9604861555398259  0.6790380575970261  1.0000
  O   O4        1.0  0.9051887926833119  0.46048560654433857  0.3209606899330453  1.0000
  O   O5        1.0  0.5816180637323997  0.26516629746137704  0.4242417278844997  1.0000
  O   O6        1.0  0.9183823344963855  0.7651670515265678  0.575758656278559  1.0000
  O   O7        1.0  0.4183811497564136  0.7348329744955179  0.5757580895589953  1.0000
  O   O8        1.0  0.08161687899292498  0.23483343748617355  0.4242411611650354  1.0000
  O   O9        1.0  0.7079889536652573  0.9765756430261233  0.41746147221668645  1.0000
  O   O10       1.0  0.7920116491063638  0.4765787266460108  0.5825372780168934  1.0000
  O   O11       1.0  0.29201028912262933  0.023423628930586894  0.5825366757781794  1.0000
  O   O12       1.0  0.20798888053036535  0.5234217623672065  0.4174626169982432  1.0000
