data_image0
_chemical_formula_structural       Zn6H18C30Br6N24O12
_chemical_formula_sum              "Zn6 H18 C30 Br6 N24 O12"
_cell_length_a       12.105581608012228
_cell_length_b       12.105609478855161
_cell_length_c       12.105567014225127
_cell_angle_alpha    95.89103037471797
_cell_angle_beta     95.89099479289276
_cell_angle_gamma    95.89130661502519

_space_group_name_H-M_alt    "P 1"
_space_group_IT_number       1

loop_
  _space_group_symop_operation_xyz
  'x, y, z'

loop_
  _atom_site_type_symbol
  _atom_site_label
  _atom_site_symmetry_multiplicity
  _atom_site_fract_x
  _atom_site_fract_y
  _atom_site_fract_z
  _atom_site_occupancy
  Zn  Zn1       1.0  0.9505645006865748  0.6767679326667705  0.23982638547053625  1.0000
  Zn  Zn2       1.0  0.23982578933485854  0.9505647085241693  0.6767680884717392  1.0000
  Zn  Zn3       1.0  0.6767662012716186  0.2398273699547104  0.9505653487491087  1.0000
  Zn  Zn4       1.0  0.0494341360712198  0.3232328948369911  0.7601722191533895  1.0000
  Zn  Zn5       1.0  0.7601736830344022  0.04943455360073299  0.32323126752174147  1.0000
  Zn  Zn6       1.0  0.3232324359534928  0.7601717976422012  0.049436390285706004  1.0000
  H   H1        1.0  0.8719877036540847  0.307987640857263  0.37282538004988197  1.0000
  H   H2        1.0  0.3728266643064869  0.8719830972192142  0.3079889037839791  1.0000
  H   H3        1.0  0.30798717179707313  0.37282619659797694  0.8719842060218921  1.0000
  H   H4        1.0  0.12801260606563147  0.6920142085667037  0.6271759786107152  1.0000
  H   H5        1.0  0.6271744786652177  0.1280105429646099  0.6920125259627952  1.0000
  H   H6        1.0  0.6920123011314272  0.6271738962742077  0.12801606112744676  1.0000
  H   H7        1.0  0.9472760201118858  0.4027816836866763  0.4868073023147231  1.0000
  H   H8        1.0  0.48680862195153196  0.9472730805518665  0.40278190687488546  1.0000
  H   H9        1.0  0.4027811492165796  0.48680757054905405  0.947275141278098  1.0000
  H   H10       1.0  0.052722618028667484  0.5972208055762566  0.5131939507413463  1.0000
  H   H11       1.0  0.5131925207558793  0.0527205593673443  0.5972186967514546  1.0000
  H   H12       1.0  0.597218323945583  0.5131916923697091  0.052726693076685587  1.0000
  H   H13       1.0  0.6963803191797381  0.08646182095230869  0.09985591381533249  1.0000
  H   H14       1.0  0.09985762919283299  0.6963782360041081  0.08646364499202258  1.0000
  H   H15       1.0  0.0864629653478275  0.09985803954036498  0.6963785657014085  1.0000
  H   H16       1.0  0.3036174823726299  0.9135372515873855  0.9001465560199405  1.0000
  H   H17       1.0  0.9001410081241873  0.3036234222469361  0.9135358707877613  1.0000
  H   H18       1.0  0.9135373427248153  0.9001421478598105  0.30361931840660356  1.0000
  C   C1        1.0  0.8427831008244127  0.4785065970466674  0.04954931507951703  1.0000
  C   C2        1.0  0.049549164465567196  0.8427836806165062  0.4785066413637864  1.0000
  C   C3        1.0  0.47850596098690085  0.049549413547943295  0.8427860150476432  1.0000
  C   C4        1.0  0.1572180430933656  0.5214911950212268  0.9504508876035017  1.0000
  C   C5        1.0  0.9504503085242034  0.15721807269176216  0.5214921436155393  1.0000
  C   C6        1.0  0.5214935124701938  0.950450679853475  0.15721590434256427  1.0000
  C   C7        1.0  0.9168623739557445  0.46487814302084013  0.3370148649416435  1.0000
  C   C8        1.0  0.33701635426587717  0.9168581985438423  0.46487972737710936  1.0000
  C   C9        1.0  0.46487885669846196  0.33701647332957657  0.9168577563374994  1.0000
  C   C10       1.0  0.0831396067838881  0.5351222358168783  0.6629856881676162  1.0000
  C   C11       1.0  0.6629839534199248  0.0831386677195454  0.5351202949505164  1.0000
  C   C12       1.0  0.5351214521977212  0.6629845450824946  0.08314186504680518  1.0000
  C   C13       1.0  0.873060671018571  0.4369505534551408  0.21837701779988086  1.0000
  C   C14       1.0  0.21837834244340118  0.8730593304483777  0.43695190692550057  1.0000
  C   C15       1.0  0.4369501426939024  0.2183787184801176  0.8730599037339459  1.0000
  C   C16       1.0  0.12694047292985286  0.5630480688307883  0.7816224437981275  1.0000
  C   C17       1.0  0.781621130515731  0.12694159264184887  0.5630476191388354  1.0000
  C   C18       1.0  0.563049329939659  0.7816205439094046  0.12694027837997615  1.0000
  C   C19       1.0  0.8193885943613494  0.3423558436855815  0.15015926590366035  1.0000
  C   C20       1.0  0.15015926073959213  0.8193879821181296  0.34235724319134414  1.0000
  C   C21       1.0  0.3423550380839727  0.1501593118796762  0.8193870629986149  1.0000
  C   C22       1.0  0.1806142222540572  0.6576429700378981  0.8498428646955956  1.0000
  C   C23       1.0  0.8498393766386981  0.18061533656899798  0.6576407904184194  1.0000
  C   C24       1.0  0.6576452702529705  0.8498408757851195  0.1806116472298313  1.0000
  C   C25       1.0  0.7789394116256503  0.22786038128224106  0.17049875460684658  1.0000
  C   C26       1.0  0.1704991209756272  0.7789388515313221  0.2278613859267438  1.0000
  C   C27       1.0  0.22786041793202824  0.17049873376687696  0.7789374496518348  1.0000
  C   C28       1.0  0.22106089803278908  0.7721398077056422  0.8295040862237713  1.0000
  C   C29       1.0  0.8294995163720315  0.22106363693776387  0.7721373887680301  1.0000
  C   C30       1.0  0.7721407260776658  0.8295015489551432  0.22106052977615318  1.0000
  Br  Br1       1.0  0.8428649330544216  0.5602269158494622  0.9260849245309115  1.0000
  Br  Br2       1.0  0.926083916699916  0.8428677882196922  0.5602259521401151  1.0000
  Br  Br3       1.0  0.5602279566490225  0.9260865759349458  0.8428728894300191  1.0000
  Br  Br4       1.0  0.15713621115829568  0.4397717067010945  0.0739153631875311  1.0000
  Br  Br5       1.0  0.0739147212376139  0.157136361214711  0.4397729926254996  1.0000
  Br  Br6       1.0  0.439773189241393  0.07391453885743722  0.15713013175599136  1.0000
  N   N1        1.0  0.8005887110515603  0.37052842654536283  0.042728819154689304  1.0000
  N   N2        1.0  0.0427287617329242  0.8005904669318299  0.37052805667138233  1.0000
  N   N3        1.0  0.37052770942088387  0.042728913708600685  0.8005918242301391  1.0000
  N   N4        1.0  0.19941076181566328  0.6294700058907381  0.9572729301646701  1.0000
  N   N5        1.0  0.9572707118467177  0.19941294734176307  0.6294708983787841  1.0000
  N   N6        1.0  0.6294725997395929  0.9572721049680838  0.19940862327459288  1.0000
  N   N7        1.0  0.8869209104846191  0.5223158618478436  0.1524427654519585  1.0000
  N   N8        1.0  0.1524436279496442  0.8869190488979373  0.5223171954052148  1.0000
  N   N9        1.0  0.5223155272909848  0.152444120779073  0.8869201319327971  1.0000
  N   N10       1.0  0.1130819053378929  0.47768295108178177  0.8475568867859947  1.0000
  N   N11       1.0  0.8475566809465319  0.11308196951413413  0.47768242597908983  1.0000
  N   N12       1.0  0.4776839458711776  0.8475551421396831  0.11308170242198658  1.0000
  N   N13       1.0  0.9090178614783891  0.38665768706651693  0.4059780555407497  1.0000
  N   N14       1.0  0.40597949158973984  0.9090142209457994  0.3866579668580669  1.0000
  N   N15       1.0  0.3866572598277145  0.40597857493056466  0.9090148454882652  1.0000
  N   N16       1.0  0.09098161230426878  0.6133440670356053  0.5940232077998714  1.0000
  N   N17       1.0  0.5940224870853469  0.090980344513298  0.6133419910032386  1.0000
  N   N18       1.0  0.6133422130701405  0.5940206877235781  0.09098616274608416  1.0000
  N   N19       1.0  0.7250848807300585  0.16460372599208029  0.08302988767474058  1.0000
  N   N20       1.0  0.08303226017895328  0.7250851834133061  0.1646055796628048  1.0000
  N   N21       1.0  0.16460522960166196  0.08303187353706679  0.7250831548892761  1.0000
  N   N22       1.0  0.27491375593582024  0.835394610857556  0.9169709402042157  1.0000
  N   N23       1.0  0.9169655415265936  0.2749180402165976  0.835393184747417  1.0000
  N   N24       1.0  0.8353959141437312  0.91696840892034  0.27491399841827757  1.0000
  O   O1        1.0  0.9621707485019401  0.5646675172302124  0.3688570637739089  1.0000
  O   O2        1.0  0.3688570852721469  0.9621679104315748  0.5646681718990578  1.0000
  O   O3        1.0  0.5646670650161454  0.3688583121426062  0.9621666635813497  1.0000
  O   O4        1.0  0.0378303963312803  0.4353335965037033  0.6311426529303715  1.0000
  O   O5        1.0  0.6311423868021818  0.03783052121067239  0.4353310990590059  1.0000
  O   O6        1.0  0.4353332435850987  0.6311418757868027  0.037832872767538106  1.0000
  O   O7        1.0  0.7986906725879379  0.19983730094033086  0.2704098566030382  1.0000
  O   O8        1.0  0.2704129426516033  0.798687360887456  0.19983881963732128  1.0000
  O   O9        1.0  0.19983775749949467  0.2704120583020497  0.7986861011985126  1.0000
  O   O10       1.0  0.20131047195035015  0.800162982310923  0.7295897750658183  1.0000
  O   O11       1.0  0.7295865296870261  0.20131107101940418  0.8001612774411768  1.0000
  O   O12       1.0  0.8001625500139224  0.7295872983508431  0.20131087175364823  1.0000
