data_image0
_chemical_formula_structural       Ag4H36C40S4N20Cl4O12
_chemical_formula_sum              "Ag4 H36 C40 S4 N20 Cl4 O12"
_cell_length_a       8.65631746279467
_cell_length_b       12.24973457649715
_cell_length_c       13.695524527021242
_cell_angle_alpha    89.99984049399926
_cell_angle_beta     90.00015602723995
_cell_angle_gamma    102.70131450914167

_space_group_name_H-M_alt    "P 1"
_space_group_IT_number       1

loop_
  _space_group_symop_operation_xyz
  'x, y, z'

loop_
  _atom_site_type_symbol
  _atom_site_label
  _atom_site_symmetry_multiplicity
  _atom_site_fract_x
  _atom_site_fract_y
  _atom_site_fract_z
  _atom_site_occupancy
  Ag  Ag1       1.0  0.7777768633494517  0.9293098736878919  0.7860993797712296  1.0000
  Ag  Ag2       1.0  0.7222274117780216  0.0706916335968444  0.2860983758222417  1.0000
  Ag  Ag3       1.0  0.22222508809636568  0.07068837421887512  0.2139020972114807  1.0000
  Ag  Ag4       1.0  0.27777762527269095  0.9293091281512248  0.7138987201667815  1.0000
  H   H1        1.0  0.8017370770858815  0.8049430838963899  0.2194326865166119  1.0000
  H   H2        1.0  0.6982595140606378  0.1950569108169802  0.7194324612994124  1.0000
  H   H3        1.0  0.19825935365225428  0.1950559923936694  0.7805665999636985  1.0000
  H   H4        1.0  0.3017400022875094  0.80494467931063  0.2805653648493589  1.0000
  H   H5        1.0  0.8008871287903077  0.7042732008921034  0.37786924018853796  1.0000
  H   H6        1.0  0.699110017073558  0.29572638696584624  0.8778673053938135  1.0000
  H   H7        1.0  0.19911212952186463  0.2957275524136734  0.6221300462921278  1.0000
  H   H8        1.0  0.3008889831962378  0.7042735295227802  0.1221297905910603  1.0000
  H   H9        1.0  0.5549450767137714  0.3979834545588119  0.2399703464921998  1.0000
  H   H10       1.0  0.94505646737219  0.6020173309861787  0.7399702635257982  1.0000
  H   H11       1.0  0.4450548212723505  0.6020156267930618  0.7600304003221652  1.0000
  H   H12       1.0  0.05494651623033769  0.3979842641985556  0.2600326737846999  1.0000
  H   H13       1.0  0.5661027003798721  0.49631045845940486  0.0812767863570159  1.0000
  H   H14       1.0  0.9338971323352823  0.5036907329168727  0.5812754686945354  1.0000
  H   H15       1.0  0.4338955257832566  0.5036869475627697  0.918725420789066  1.0000
  H   H16       1.0  0.06610521159328184  0.49631253422175786  0.41872600828225603  1.0000
  H   H17       1.0  0.04220118126075075  0.9561843610590229  0.9117638515390921  1.0000
  H   H18       1.0  0.4577991501057426  0.0438176473768479  0.4117625906015049  1.0000
  H   H19       1.0  0.9577971793465921  0.0438172273750652  0.08823835560189508  1.0000
  H   H20       1.0  0.5422026777419121  0.9561839461246748  0.5882366958803259  1.0000
  H   H21       1.0  0.21472297781001964  0.9241261259928422  0.9642687835417617  1.0000
  H   H22       1.0  0.28527676327122004  0.07587323715343791  0.464267145252883  1.0000
  H   H23       1.0  0.7852771782146418  0.0758737921789958  0.035731963271779  1.0000
  H   H24       1.0  0.714725704246561  0.9241266843970024  0.5357314110660454  1.0000
  H   H25       1.0  0.9865323978608913  0.7724963938367678  0.8197501639075141  1.0000
  H   H26       1.0  0.5134687858795388  0.22750585878969787  0.3197498697501331  1.0000
  H   H27       1.0  0.013468274239563996  0.2275051979759226  0.1802498527388607  1.0000
  H   H28       1.0  0.48653304196939473  0.772495734710894  0.6802501468972365  1.0000
  H   H29       1.0  0.3368964235309733  0.7851799189313978  0.8765477046377227  1.0000
  H   H30       1.0  0.16310494028564196  0.21482218162510242  0.3765469699508017  1.0000
  H   H31       1.0  0.6631030928210109  0.2148216711933983  0.1234523120076503  1.0000
  H   H32       1.0  0.8368966295234799  0.7851785750564632  0.6234523165318465  1.0000
  H   H33       1.0  0.2171475217880428  0.6959289826093739  0.7816780346613896  1.0000
  H   H34       1.0  0.28285235411973986  0.3040733598810447  0.2816765540400539  1.0000
  H   H35       1.0  0.7828510968527169  0.30407344264842356  0.21832125181664003  1.0000
  H   H36       1.0  0.7171494737292007  0.6959282336195399  0.7183234626073158  1.0000
  C   C1        1.0  0.6866011499124268  0.6557125085893177  0.1414364905654466  1.0000
  C   C2        1.0  0.8133940124013603  0.344287684728826  0.641434631917086  1.0000
  C   C3        1.0  0.3133947647499156  0.3442848940598822  0.858563526082044  1.0000
  C   C4        1.0  0.18660512231647894  0.655716414168893  0.35856465455930214  1.0000
  C   C5        1.0  0.7532373580487786  0.7151311024659464  0.2238188609053324  1.0000
  C   C6        1.0  0.7467583507419349  0.28486971611805256  0.7238170353211472  1.0000
  C   C7        1.0  0.24676138419014382  0.284867977197095  0.7761826160735765  1.0000
  C   C8        1.0  0.25323795639931745  0.715132705765825  0.2761807908238154  1.0000
  C   C9        1.0  0.7506118129556967  0.659283702232365  0.3126603593830097  1.0000
  C   C10       1.0  0.749386002309066  0.3407152179459487  0.8126591294112302  1.0000
  C   C11       1.0  0.24938667124085614  0.34071454061352574  0.6873389271001074  1.0000
  C   C12       1.0  0.2506106864663309  0.659284695165006  0.18733942690272443  1.0000
  C   C13       1.0  0.6786528887709052  0.5455921391562485  0.3176219137213607  1.0000
  C   C14       1.0  0.8213498248962168  0.4544076118537177  0.8176197945377625  1.0000
  C   C15       1.0  0.3213504764619302  0.4544069472583772  0.6823795632615202  1.0000
  C   C16       1.0  0.17865084720296656  0.5455939799599108  0.1823794919430739  1.0000
  C   C17       1.0  0.6110874895269306  0.48646076112552816  0.2352424628847771  1.0000
  C   C18       1.0  0.8889135219275629  0.5135383629213024  0.7352417732847698  1.0000
  C   C19       1.0  0.38891446191761486  0.5135374867821766  0.7647582839323945  1.0000
  C   C20       1.0  0.11108715017545018  0.4864632288895194  0.2647597036926754  1.0000
  C   C21       1.0  0.6160880361909732  0.5417344843135937  0.14627318820059543  1.0000
  C   C22       1.0  0.8839125401689216  0.45826821379393584  0.6462726276286617  1.0000
  C   C23       1.0  0.38391301754363377  0.45826459872617414  0.8537275586147645  1.0000
  C   C24       1.0  0.11608838997135246  0.5417342148377813  0.3537281191824277  1.0000
  C   C25       1.0  0.8004680540324428  0.7865740538913429  0.0036425066009684  1.0000
  C   C26       1.0  0.6995316304671775  0.2134239912509557  0.5036436981612411  1.0000
  C   C27       1.0  0.1995318439523999  0.2134250274614686  0.9963575100478579  1.0000
  C   C28       1.0  0.3004673698090059  0.7865759252329808  0.496357048651312  1.0000
  C   C29       1.0  0.09579419330131603  0.8876650623234071  0.9364990707517791  1.0000
  C   C30       1.0  0.404203397093994  0.112335205578205  0.43649754674878233  1.0000
  C   C31       1.0  0.9042050650146862  0.112335690979549  0.0635024062254885  1.0000
  C   C32       1.0  0.5957979146765879  0.887664714283396  0.5635017397346829  1.0000
  C   C33       1.0  0.09783411924276204  0.8027825487870146  0.8587124532166897  1.0000
  C   C34       1.0  0.4021671821270516  0.1972195975708715  0.3587107143011607  1.0000
  C   C35       1.0  0.9021653971104938  0.1972190413368437  0.1412882935942221  1.0000
  C   C36       1.0  0.5978346457218819  0.8027819959297204  0.641289302346202  1.0000
  C   C37       1.0  0.22542375929299388  0.7613976909632639  0.8366659965861843  1.0000
  C   C38       1.0  0.2745763091422404  0.2386045103185879  0.3366661250702947  1.0000
  C   C39       1.0  0.7745746013092331  0.23860389747456875  0.1633332898926625  1.0000
  C   C40       1.0  0.7254243629594938  0.7613970814931719  0.6633346217416118  1.0000
  S   S1        1.0  0.9914342400205315  0.8277432496400011  0.0472466454452274  1.0000
  S   S2        1.0  0.5085641833565618  0.17225384502322783  0.5472461498821559  1.0000
  S   S3        1.0  0.0085639861400466  0.17225415638405653  0.9527541013697842  1.0000
  S   S4        1.0  0.49143571462955987  0.8277452363286456  0.4527545969322091  1.0000
  N   N1        1.0  0.6848247772373242  0.711427179728844  0.0506250018427394  1.0000
  N   N2        1.0  0.8151712228772537  0.2885732484747692  0.5506247453437751  1.0000
  N   N3        1.0  0.31517255121202936  0.2885710614282146  0.9493750148049216  1.0000
  N   N4        1.0  0.1848276538007667  0.7114300136039304  0.4493738109678985  1.0000
  N   N5        1.0  0.5515584789685166  0.6918032743481961  0.9945055180974904  1.0000
  N   N6        1.0  0.9484395913486949  0.3081976876275617  0.49450796358825494  1.0000
  N   N7        1.0  0.4484402632665764  0.3081958053176522  0.005493768384809498  1.0000
  N   N8        1.0  0.051559925003289084  0.6918039024972341  0.5054920530571252  1.0000
  N   N9        1.0  0.5853341323745623  0.7518633124418554  0.9169034793211069  1.0000
  N   N10       1.0  0.914666617409793  0.24813618023594594  0.41690601614616435  1.0000
  N   N11       1.0  0.4146651259388817  0.24813744086297618  0.08309653732509048  1.0000
  N   N12       1.0  0.08533443632736486  0.7518629028019532  0.5830961910002657  1.0000
  N   N13       1.0  0.7373201674960227  0.8126512840543398  0.9196635604009131  1.0000
  N   N14       1.0  0.7626814896591583  0.18734736640565333  0.4196645261853789  1.0000
  N   N15       1.0  0.2626790908225374  0.1873494692467474  0.0803393769074248  1.0000
  N   N16       1.0  0.23731930604073873  0.8126508798113432  0.580338411127407  1.0000
  N   N17       1.0  0.5192548634870349  0.057320033036504014  0.8534258860478374  1.0000
  N   N18       1.0  0.9807411646449748  0.9426762703082547  0.3534260769369411  1.0000
  N   N19       1.0  0.480746571876594  0.9426765412340926  0.1465726702743737  1.0000
  N   N20       1.0  0.019254233940287697  0.05731945870102349  0.6465739397121837  1.0000
  Cl  Cl1       1.0  0.6698343569144072  0.4771647625515882  0.428521723351011  1.0000
  Cl  Cl2       1.0  0.8301719542458982  0.5228338719149335  0.9285209092957131  1.0000
  Cl  Cl3       1.0  0.3301669548600117  0.5228351573072061  0.5714797536290632  1.0000
  Cl  Cl4       1.0  0.16983025523717998  0.4771652128127357  0.0714798375206414  1.0000
  O   O1        1.0  0.38599057110263146  0.07745848289190597  0.8703750786386876  1.0000
  O   O2        1.0  0.11401230848424143  0.922541126431085  0.37037468724581396  1.0000
  O   O3        1.0  0.6140127941276462  0.9225406035245955  0.12962493801313  1.0000
  O   O4        1.0  0.8859901590373767  0.0774587951165415  0.6296260595697234  1.0000
  O   O5        1.0  0.6379690653520314  0.0920585148955482  0.9061139600272836  1.0000
  O   O6        1.0  0.8620302220121445  0.907932638982558  0.406112572385716  1.0000
  O   O7        1.0  0.36203364935312976  0.9079347154719386  0.0938838661346537  1.0000
  O   O8        1.0  0.1379679932934366  0.09205723904138807  0.5938852537765129  1.0000
  O   O9        1.0  0.5348973824423381  0.9972407189669851  0.7764652816834711  1.0000
  O   O10       1.0  0.9650994083923052  0.0027591292858560003  0.27646778641738473  1.0000
  O   O11       1.0  0.46509968796208767  0.0027566853747985  0.22353108413732772  1.0000
  O   O12       1.0  0.03489817809942501  0.9972399486883461  0.723534420726061  1.0000
