data_image0
_chemical_formula_structural       Cu4H40C64N16O16
_chemical_formula_sum              "Cu4 H40 C64 N16 O16"
_cell_length_a       10.049159340594382
_cell_length_b       11.036140501937044
_cell_length_c       15.457570431320757
_cell_angle_alpha    103.1493138760818
_cell_angle_beta     90.00011787584151
_cell_angle_gamma    90.0011776998861

_space_group_name_H-M_alt    "P 1"
_space_group_IT_number       1

loop_
  _space_group_symop_operation_xyz
  'x, y, z'

loop_
  _atom_site_type_symbol
  _atom_site_label
  _atom_site_symmetry_multiplicity
  _atom_site_fract_x
  _atom_site_fract_y
  _atom_site_fract_z
  _atom_site_occupancy
  Cu  Cu1       1.0  0.23694445149318716  0.2433517279181956  0.3114515801257484  1.0000
  Cu  Cu2       1.0  0.73694344040878  0.2566496545716817  0.18853999670091787  1.0000
  Cu  Cu3       1.0  0.7630505600503241  0.7566504108528562  0.6885462149251965  1.0000
  Cu  Cu4       1.0  0.26305754169666073  0.7433442876597949  0.8114611503815752  1.0000
  H   H1        1.0  0.3510482464554343  0.3478000686369072  0.645371071672912  1.0000
  H   H2        1.0  0.8510334813018121  0.15220996888812977  0.854616647801109  1.0000
  H   H3        1.0  0.6489676624011553  0.652205060849674  0.3546323305937804  1.0000
  H   H4        1.0  0.1489485939496262  0.8478015964933407  0.14538573800636814  1.0000
  H   H5        1.0  0.6728004432513047  0.3637324167388981  0.4784579585294893  1.0000
  H   H6        1.0  0.17278417940650576  0.13629934244897868  0.021539170463590593  1.0000
  H   H7        1.0  0.32720451931066225  0.6362648962750298  0.5215346127368861  1.0000
  H   H8        1.0  0.8272118275333683  0.8637286412707964  0.9784571620990264  1.0000
  H   H9        1.0  0.4158036973272559  0.0313629063775025  0.25066492973082444  1.0000
  H   H10       1.0  0.9158086448586789  0.46864410895001624  0.24933164189214807  1.0000
  H   H11       1.0  0.5841982800451149  0.968645693698747  0.7493324997134894  1.0000
  H   H12       1.0  0.08418139106283462  0.5313499331592196  0.7506721082001209  1.0000
  H   H13       1.0  0.41572579973951224  0.8037113854774985  0.2459772440027024  1.0000
  H   H14       1.0  0.9157216524936019  0.6962992945552529  0.2540302044806779  1.0000
  H   H15       1.0  0.5842861287273423  0.19629819486939223  0.7540216206812291  1.0000
  H   H16       1.0  0.0842683834532281  0.303695952698213  0.7459808376569584  1.0000
  H   H17       1.0  0.0343603689726777  0.8553733138231576  0.3805337586578759  1.0000
  H   H18       1.0  0.5343566157587176  0.6446250665183014  0.11947321915663167  1.0000
  H   H19       1.0  0.9656495691525108  0.14462515439108606  0.6194648031478351  1.0000
  H   H20       1.0  0.46564337127465905  0.3553724714196065  0.8805252089269333  1.0000
  H   H21       1.0  0.052673605100096714  0.0822082252214642  0.3799720595388082  1.0000
  H   H22       1.0  0.5526730113620603  0.4177897501909839  0.1200271294249902  1.0000
  H   H23       1.0  0.9473273770347319  0.9177891877407658  0.6200231147533586  1.0000
  H   H24       1.0  0.4473170245941632  0.5822078626376097  0.8799732509118956  1.0000
  H   H25       1.0  0.31690340607587336  0.6183639878098859  0.1820192857072414  1.0000
  H   H26       1.0  0.816894677499306  0.8816541174641087  0.3179922989251551  1.0000
  H   H27       1.0  0.6831184734280457  0.38164038654164756  0.8179885381850767  1.0000
  H   H28       1.0  0.18309635358102844  0.11834452553873115  0.6820108181482214  1.0000
  H   H29       1.0  0.3188005378066309  0.39249393770038665  0.1882484282049859  1.0000
  H   H30       1.0  0.8187945803305825  0.1075196594680961  0.3117534557399537  1.0000
  H   H31       1.0  0.6812193514797261  0.6075104116338393  0.8117587449240206  1.0000
  H   H32       1.0  0.18119943604742877  0.8924770232252325  0.688246790906831  1.0000
  H   H33       1.0  0.10866473766437686  0.4636116795863571  0.42415456918681127  1.0000
  H   H34       1.0  0.6086504486498328  0.0363811684205473  0.07585044902201332  1.0000
  H   H35       1.0  0.8913372396519395  0.5363914894194081  0.5758459626143662  1.0000
  H   H36       1.0  0.39135053348899623  0.9636163195331375  0.9241466775463609  1.0000
  H   H37       1.0  0.1029195792440163  0.692448788903043  0.43219477078757523  1.0000
  H   H38       1.0  0.6029083769527902  0.8075446686435866  0.06781679258757119  1.0000
  H   H39       1.0  0.8970843882898621  0.3075544051200225  0.5678064117769139  1.0000
  H   H40       1.0  0.39709360028078333  0.19245110895194975  0.9321839711370005  1.0000
  C   C1        1.0  0.16152379199402137  0.2651776697112069  0.5155071135895568  1.0000
  C   C2        1.0  0.6614973723363208  0.23481874726715543  0.9844899769267246  1.0000
  C   C3        1.0  0.838482165817439  0.7348303251927533  0.48449864202823534  1.0000
  C   C4        1.0  0.3384886830460375  0.7651674534428209  0.015502291422514185  1.0000
  C   C5        1.0  0.3068985052707305  0.2990295685027604  0.5051878589803565  1.0000
  C   C6        1.0  0.8068743429252836  0.2009639117589685  0.9948012890287077  1.0000
  C   C7        1.0  0.6931064573659074  0.7009727953434248  0.4948157929221112  1.0000
  C   C8        1.0  0.19310474670823652  0.7990217086650159  0.005199956227563952  1.0000
  C   C9        1.0  0.39137378923435767  0.3379446049891611  0.5786755627205267  1.0000
  C   C10       1.0  0.8913534902636542  0.16206076812983378  0.9213141430954792  1.0000
  C   C11       1.0  0.6086361489361991  0.6620576339216554  0.4213248353996947  1.0000
  C   C12       1.0  0.10862957997846932  0.8379405653304841  0.07868677202242215  1.0000
  C   C13       1.0  0.5672401952656047  0.34696082105107706  0.4872832873975313  1.0000
  C   C14       1.0  0.06721930437549871  0.15305482254348848  0.012710699713430494  1.0000
  C   C15       1.0  0.4327657623804342  0.6530338514291429  0.512712787325775  1.0000
  C   C16       1.0  0.9327707317422098  0.8469574981141007  0.9872872645004521  1.0000
  C   C17       1.0  0.4858338289924476  0.3085725129398043  0.41276917253448897  1.0000
  C   C18       1.0  0.9858121171933263  0.19143111957999534  0.08722314814802701  1.0000
  C   C19       1.0  0.5141661579968969  0.6914212792986874  0.5872280699933017  1.0000
  C   C20       1.0  0.014177918716207204  0.8085626975548762  0.9127747451156056  1.0000
  C   C21       1.0  0.5379153827991061  0.2852057864848091  0.3186138793878541  1.0000
  C   C22       1.0  0.03789443485847241  0.21481398906189494  0.1813825935883813  1.0000
  C   C23       1.0  0.4620786335121921  0.7147852651608203  0.681384263545894  1.0000
  C   C24       1.0  0.9621045571028336  0.7851871445824443  0.8186131154962483  1.0000
  C   C25       1.0  0.33446142367846937  0.9877853829302834  0.2790951281966016  1.0000
  C   C26       1.0  0.8344659663985114  0.5122215160201051  0.22090452071006442  1.0000
  C   C27       1.0  0.6655425438927836  0.012221431806438003  0.7209039861299831  1.0000
  C   C28       1.0  0.16552506464445577  0.4877735062690789  0.7791006646012235  1.0000
  C   C29       1.0  0.3330489337914956  0.86125676741117  0.2766921975344303  1.0000
  C   C30       1.0  0.8330473737122617  0.6387503278445619  0.2233133016887479  1.0000
  C   C31       1.0  0.6669590142015381  0.1387491171902937  0.7233067831020464  1.0000
  C   C32       1.0  0.16694266223592544  0.3612456746044045  0.7766933188369834  1.0000
  C   C33       1.0  0.22409004590043935  0.8098438182293388  0.3126707579846055  1.0000
  C   C34       1.0  0.7240825601298015  0.6901621503762739  0.1873382782175383  1.0000
  C   C35       1.0  0.7759208873889069  0.19015935086711977  0.6873297738371704  1.0000
  C   C36       1.0  0.27591245136031267  0.30983460731859214  0.8126639207077418  1.0000
  C   C37       1.0  0.12145655781880293  0.890359414368014  0.3513281557825608  1.0000
  C   C38       1.0  0.621449126789088  0.6096416100799685  0.14867805488626834  1.0000
  C   C39       1.0  0.8785533803357524  0.10964179437862498  0.6486695056034578  1.0000
  C   C40       1.0  0.37854588468768924  0.3903541674450253  0.8513227088222735  1.0000
  C   C41       1.0  0.12970512631368084  0.015852299071966097  0.3509081364072203  1.0000
  C   C42       1.0  0.6297031332983565  0.4841472614458622  0.14909205769117048  1.0000
  C   C43       1.0  0.8702988412028604  0.9841498397897792  0.6490896586643232  1.0000
  C   C44       1.0  0.37028889286474964  0.5158494462244717  0.8509088397097672  1.0000
  C   C45       1.0  0.21671378233609326  0.6753814076916385  0.3093131907796476  1.0000
  C   C46       1.0  0.7167093312239247  0.8246244115529462  0.19069581149540227  1.0000
  C   C47       1.0  0.7832971509559102  0.3246218113991191  0.6906886425596072  1.0000
  C   C48       1.0  0.2832876705144472  0.17537513668877117  0.8093067885322327  1.0000
  C   C49       1.0  0.2739622553387591  0.588426186093514  0.2385555300296787  1.0000
  C   C50       1.0  0.7739560076449481  0.9115816727696924  0.2614525677913236  1.0000
  C   C51       1.0  0.7260546486179323  0.4115780632218745  0.7614490400575067  1.0000
  C   C52       1.0  0.22603999896528396  0.08841604010796537  0.7385504155942402  1.0000
  C   C53       1.0  0.27302644470871235  0.46327473203512426  0.24048140581371777  1.0000
  C   C54       1.0  0.7730187268644074  0.03673338716181719  0.2595222020847388  1.0000
  C   C55       1.0  0.7269874739343082  0.5367304474256043  0.7595232979658633  1.0000
  C   C56       1.0  0.22697727972716567  0.963263245557364  0.7404767430491432  1.0000
  C   C57       1.0  0.1555456475545967  0.5039164810586527  0.3735434611400095  1.0000
  C   C58       1.0  0.6555338987681409  0.9960777423544297  0.12646053523223336  1.0000
  C   C59       1.0  0.8444603101941726  0.4960866879874145  0.6264570706703199  1.0000
  C   C60       1.0  0.3444640980476735  0.003919770566170694  0.8735372420880197  1.0000
  C   C61       1.0  0.15301552227324325  0.6306302939731125  0.3766266453304042  1.0000
  C   C62       1.0  0.6530068846499475  0.869366768744058  0.1233803435420242  1.0000
  C   C63       1.0  0.8469894403780887  0.36937380523844604  0.6233740201768967  1.0000
  C   C64       1.0  0.3469911121845258  0.1306318243350191  0.8766214720299034  1.0000
  N   N1        1.0  0.3554903772305807  0.28835982294599205  0.42314362248750836  1.0000
  N   N2        1.0  0.8554670961627057  0.21163367830808258  0.0768457274423042  1.0000
  N   N3        1.0  0.6445135902726025  0.7116406055475293  0.5768578097379377  1.0000
  N   N4        1.0  0.1445189592036016  0.7883500318410054  0.9231539489139992  1.0000
  N   N5        1.0  0.5198783547045026  0.3644033320633325  0.5703288399579592  1.0000
  N   N6        1.0  0.019862397647926903  0.13561307070516188  0.92966052929242  1.0000
  N   N7        1.0  0.480134568750387  0.6355959663681003  0.4296672525189323  1.0000
  N   N8        1.0  0.9801286335952502  0.8644010353221886  0.07033575004606259  1.0000
  N   N9        1.0  0.2343322694335725  0.06370236932917087  0.3154943438991253  1.0000
  N   N10       1.0  0.734335285343427  0.4363019508007683  0.1845028280872896  1.0000
  N   N11       1.0  0.7656677176678672  0.936301554851944  0.684501766285571  1.0000
  N   N12       1.0  0.26565972613201444  0.5636938017270765  0.8154972848625166  1.0000
  N   N13       1.0  0.21722838850030976  0.42214027795225195  0.30771413963297084  1.0000
  N   N14       1.0  0.7172213786795326  0.07786482582337577  0.19228829341411577  1.0000
  N   N15       1.0  0.7827795594887023  0.5778648014594054  0.6922879610979251  1.0000
  N   N16       1.0  0.28277263771582994  0.9221336422296387  0.8077102683549741  1.0000
  O   O1        1.0  0.08262472684865681  0.2802380397595883  0.45512512784223713  1.0000
  O   O2        1.0  0.5826084910271165  0.21975883172746782  0.0448778360278936  1.0000
  O   O3        1.0  0.9173842161203682  0.7197558775553502  0.544875368499838  1.0000
  O   O4        1.0  0.4173566670075105  0.7802222679443315  0.9551020501197132  1.0000
  O   O5        1.0  0.13743584598586273  0.22350215555390912  0.5834322319005238  1.0000
  O   O6        1.0  0.6374071590651411  0.2765002847763539  0.9165656836901521  1.0000
  O   O7        1.0  0.8625651364157891  0.7765170514007665  0.4165764296144162  1.0000
  O   O8        1.0  0.36260675951388793  0.7235007740276841  0.08342807315259647  1.0000
  O   O9        1.0  0.4589251396808722  0.2451740312519631  0.2559564842216631  1.0000
  O   O10       1.0  0.9589043647940303  0.25484848999287374  0.24403591732064464  1.0000
  O   O11       1.0  0.541068876611739  0.7548152100368383  0.7440426928310375  1.0000
  O   O12       1.0  0.041100597843964706  0.7451546290488125  0.7559633129699252  1.0000
  O   O13       1.0  0.6625747991924201  0.3068010791490749  0.3123502707458172  1.0000
  O   O14       1.0  0.1625513955032218  0.19320990901507426  0.18764126676968834  1.0000
  O   O15       1.0  0.337418221981423  0.693187962152443  0.6876437002346948  1.0000
  O   O16       1.0  0.837447596518139  0.8067967306912107  0.812353292234292  1.0000
