data_image0
_chemical_formula_structural       Zr6H124C144O32
_chemical_formula_sum              "Zr6 H124 C144 O32"
_cell_length_a       23.369054632632217
_cell_length_b       23.369097604474717
_cell_length_c       23.36900269988227
_cell_angle_alpha    60.000054054020225
_cell_angle_beta     60.000258412302834
_cell_angle_gamma    59.99979056460005

_space_group_name_H-M_alt    "P 1"
_space_group_IT_number       1

loop_
  _space_group_symop_operation_xyz
  'x, y, z'

loop_
  _atom_site_type_symbol
  _atom_site_label
  _atom_site_symmetry_multiplicity
  _atom_site_fract_x
  _atom_site_fract_y
  _atom_site_fract_z
  _atom_site_occupancy
  Zr  Zr1       1.0  0.5756591934668124  0.4243406777017994  0.4243396078446367  1.0000
  Zr  Zr2       1.0  0.4243407994891156  0.5756593318630933  0.5756589511655221  1.0000
  Zr  Zr3       1.0  0.4243412644444503  0.5756586916783134  0.42434080439841904  1.0000
  Zr  Zr4       1.0  0.5756584090960076  0.42434099846762036  0.575658917538007  1.0000
  Zr  Zr5       1.0  0.5756610335722029  0.5756606389793076  0.4243386213902198  1.0000
  Zr  Zr6       1.0  0.4243401646103635  0.4243388641403952  0.575660287017193  1.0000
  H   H1        1.0  0.8541969973556792  0.6328339551190821  0.9555755123052523  1.0000
  H   H2        1.0  0.1459229710277156  0.4425103265100744  0.044509148916532106  1.0000
  H   H3        1.0  0.7617895879934553  0.40880350668095367  0.23687818048208  1.0000
  H   H4        1.0  0.8698307240363333  0.40778416040448195  0.13061135072342728  1.0000
  H   H5        1.0  0.6328347586187277  0.8541965377214563  0.5573928786086881  1.0000
  H   H6        1.0  0.44251045990102983  0.14592271404491441  0.3670582262816566  1.0000
  H   H7        1.0  0.4088046530006368  0.7617882398296059  0.592528117315183  1.0000
  H   H8        1.0  0.40778455129520114  0.8698303675035817  0.5917732001374107  1.0000
  H   H9        1.0  0.9555755519979883  0.5573940220253345  0.8541968823572146  1.0000
  H   H10       1.0  0.04450900783869831  0.36705802385941405  0.14592278774826178  1.0000
  H   H11       1.0  0.23687903004092442  0.59252849049696  0.7617880513543653  1.0000
  H   H12       1.0  0.13061221063273354  0.5917738561464388  0.8698301644083699  1.0000
  H   H13       1.0  0.5573947857444568  0.9555750611588393  0.6328334583844183  1.0000
  H   H14       1.0  0.36705854233601803  0.04450822161894757  0.4425107518969682  1.0000
  H   H15       1.0  0.5925282756610315  0.23687877539762778  0.4088037870788386  1.0000
  H   H16       1.0  0.5917739098469568  0.1306113332952988  0.407784439167834  1.0000
  H   H17       1.0  0.6328335883967782  0.5573934543535728  0.9555751768188898  1.0000
  H   H18       1.0  0.4425099123565346  0.3670578692407671  0.04450921357116755  1.0000
  H   H19       1.0  0.40880354681329584  0.5925287549944611  0.2368784911453616  1.0000
  H   H20       1.0  0.407784362429588  0.5917744527078665  0.13061089235608855  1.0000
  H   H21       1.0  0.8541973909240992  0.95557570424922  0.5573939846908758  1.0000
  H   H22       1.0  0.14592303320922892  0.0445090938778492  0.3670577912850064  1.0000
  H   H23       1.0  0.7617875846593093  0.2368786329666078  0.5925296340398631  1.0000
  H   H24       1.0  0.8698297778221753  0.1306112901317461  0.5917748622259393  1.0000
  H   H25       1.0  0.5573939431870302  0.6328335717808143  0.8541967449162514  1.0000
  H   H26       1.0  0.36705781864030473  0.44251040034809097  0.14592260810857027  1.0000
  H   H27       1.0  0.5925285381593568  0.4088042028572544  0.7617888269249987  1.0000
  H   H28       1.0  0.5917741482944407  0.4077840744741223  0.8698303988768289  1.0000
  H   H29       1.0  0.9555756404014132  0.8541978823362295  0.6328333193411382  1.0000
  H   H30       1.0  0.04450915022474791  0.14592342340495182  0.44250929543999007  1.0000
  H   H31       1.0  0.2368784960335619  0.7617891755581137  0.40880333526968826  1.0000
  H   H32       1.0  0.13061072678841137  0.8698309428969536  0.4077838145054145  1.0000
  H   H33       1.0  0.5573942091264642  0.8541972044757529  0.9555752383012147  1.0000
  H   H34       1.0  0.36705785917015993  0.14592277683745167  0.04450936652339983  1.0000
  H   H35       1.0  0.5925286376252645  0.7617887365987314  0.23687766890598283  1.0000
  H   H36       1.0  0.5917752905843231  0.8698310209830279  0.13061076711468902  1.0000
  H   H37       1.0  0.9555749682475035  0.6328345952908448  0.55739365791856  1.0000
  H   H38       1.0  0.044509286048089736  0.44251022052673517  0.367058112761498  1.0000
  H   H39       1.0  0.23687754171814396  0.40880429871066337  0.5925285813728748  1.0000
  H   H40       1.0  0.13060982666099355  0.40778389656802  0.5917753411457483  1.0000
  H   H41       1.0  0.632834029246631  0.9555757400956962  0.8541968817127312  1.0000
  H   H42       1.0  0.4425101252588917  0.04450876686857435  0.14592351275001655  1.0000
  H   H43       1.0  0.4088053384166557  0.23687676918402886  0.7617902255342058  1.0000
  H   H44       1.0  0.4077839226000606  0.13061057247680444  0.8698314149851285  1.0000
  H   H45       1.0  0.8541964942888071  0.5573947783610719  0.6328331284154343  1.0000
  H   H46       1.0  0.14592217981878972  0.3670585584957137  0.44251041692009346  1.0000
  H   H47       1.0  0.7617893901050437  0.5925285690738065  0.40880398626993764  1.0000
  H   H48       1.0  0.8698309274947036  0.5917753663496866  0.4077829688128107  1.0000
  H   H49       1.0  0.6328334442692456  0.8541970506756723  0.9555755444820234  1.0000
  H   H50       1.0  0.44251010397535856  0.14592279515725431  0.04450959313256676  1.0000
  H   H51       1.0  0.4088036785376801  0.7617886909153028  0.236879275615678  1.0000
  H   H52       1.0  0.4077843591708543  0.8698303121846532  0.13061172415658734  1.0000
  H   H53       1.0  0.8541963529803809  0.6328349067773117  0.5573933405426102  1.0000
  H   H54       1.0  0.14592265198036355  0.44251042625820947  0.36705827617899434  1.0000
  H   H55       1.0  0.7617885375373418  0.4088035981766964  0.5925285045217024  1.0000
  H   H56       1.0  0.8698302411876642  0.40778439658389226  0.59177332081763  1.0000
  H   H57       1.0  0.557393697378991  0.9555756530046933  0.8541973890618307  1.0000
  H   H58       1.0  0.36705812750946615  0.044508995605610745  0.14592279202658182  1.0000
  H   H59       1.0  0.592530038117644  0.23687826714839827  0.7617884741039305  1.0000
  H   H60       1.0  0.5917744260962721  0.13061170919250029  0.8698304579423349  1.0000
  H   H61       1.0  0.9555752842519994  0.5573946415693312  0.632833620489123  1.0000
  H   H62       1.0  0.044508385969265894  0.36705878068155334  0.4425102535017017  1.0000
  H   H63       1.0  0.23687889456279296  0.5925289140525646  0.4088033943099988  1.0000
  H   H64       1.0  0.13061126646616839  0.5917739081665656  0.40778414563297355  1.0000
  H   H65       1.0  0.5573940911848896  0.6328333134235109  0.9555751940902936  1.0000
  H   H66       1.0  0.36705783084827465  0.4425099632183345  0.04450905611894035  1.0000
  H   H67       1.0  0.5925281795689017  0.4088042365981365  0.2368782057269101  1.0000
  H   H68       1.0  0.5917749850197467  0.40778359504219697  0.13061043279532922  1.0000
  H   H69       1.0  0.9555752732159776  0.8541969617000329  0.5573945156620681  1.0000
  H   H70       1.0  0.044508784116359806  0.14592335973055984  0.36705757965533076  1.0000
  H   H71       1.0  0.2368783491666451  0.7617891481007104  0.5925283939474183  1.0000
  H   H72       1.0  0.1306106325025238  0.8698309669536499  0.5917750066539966  1.0000
  H   H73       1.0  0.6328333680392219  0.5573936403487566  0.8541973964568467  1.0000
  H   H74       1.0  0.442510328065815  0.3670578784532026  0.14592276556169287  1.0000
  H   H75       1.0  0.4088039054037583  0.5925287212535862  0.7617891123434504  1.0000
  H   H76       1.0  0.40778352570428233  0.5917749321397922  0.8698308584375879  1.0000
  H   H77       1.0  0.8541975110537623  0.9555763778285706  0.6328332824842134  1.0000
  H   H78       1.0  0.14592339931761703  0.04450915755224118  0.4425095070696656  1.0000
  H   H79       1.0  0.761789864947076  0.23687737050628474  0.4088042559491782  1.0000
  H   H80       1.0  0.8698315052519591  0.1306103317125389  0.40778401947550696  1.0000
  H   H81       1.0  0.8541970123690203  0.5573940027923782  0.955575682967307  1.0000
  H   H82       1.0  0.14592263303470793  0.3670580395179782  0.04450890506186062  1.0000
  H   H83       1.0  0.7617889861312293  0.5925288542332438  0.2368775280010524  1.0000
  H   H84       1.0  0.869830436411732  0.5917751304222346  0.13061099796109243  1.0000
  H   H85       1.0  0.6328345695651763  0.9555749025878199  0.5573936532410856  1.0000
  H   H86       1.0  0.44251031253105566  0.04450892360063822  0.3670580997943135  1.0000
  H   H87       1.0  0.40880424262014264  0.23687806350849877  0.5925284460320484  1.0000
  H   H88       1.0  0.4077838847015087  0.13060993744321084  0.5917752507360987  1.0000
  H   H89       1.0  0.9555752899288734  0.6328337272951925  0.85419720580942  1.0000
  H   H90       1.0  0.044508924079863656  0.44250988909994493  0.14592335101946222  1.0000
  H   H91       1.0  0.23687785403985367  0.40880393258295555  0.7617896920612421  1.0000
  H   H92       1.0  0.13061054569796937  0.4077835010722452  0.8698313306988295  1.0000
  H   H93       1.0  0.557394800101939  0.8541965215977568  0.6328325090542892  1.0000
  H   H94       1.0  0.3670581594523767  0.14592233764793144  0.4425100348736848  1.0000
  H   H95       1.0  0.5925290354336639  0.7617893011081804  0.4088038077574439  1.0000
  H   H96       1.0  0.5917751852193832  0.8698306604641881  0.40778288268520413  1.0000
  H   H97       1.0  0.8192259654918601  0.5724664708045067  0.03584119894218671  1.0000
  H   H98       1.0  0.1808389861255861  0.427469266140072  0.9642221853608177  1.0000
  H   H99       1.0  0.5724673282758274  0.8192252574311352  0.5724654502557202  1.0000
  H   H100      1.0  0.4274697908909815  0.18083854211361225  0.4274698257649447  1.0000
  H   H101      1.0  0.03584197753542631  0.5724663934094848  0.8192260841784033  1.0000
  H   H102      1.0  0.9642217988320426  0.4274698799507842  0.18083846304908513  1.0000
  H   H103      1.0  0.5724667994811413  0.03584141484419941  0.572465926947359  1.0000
  H   H104      1.0  0.4274697232377634  0.9642217882542492  0.42746949379210253  1.0000
  H   H105      1.0  0.572466645781212  0.5724661084819329  0.03584117259270414  1.0000
  H   H106      1.0  0.42746989621935694  0.42746959427004316  0.9642217297605453  1.0000
  H   H107      1.0  0.8192260468320852  0.03584170480466035  0.5724666221088482  1.0000
  H   H108      1.0  0.18083863228250885  0.9642221350984527  0.42746945527721186  1.0000
  H   H109      1.0  0.5724661406909775  0.5724658866888742  0.8192260229843457  1.0000
  H   H110      1.0  0.42746983483835516  0.4274692495873038  0.180838536409439  1.0000
  H   H111      1.0  0.03584206223000321  0.8192263729295489  0.572466005562255  1.0000
  H   H112      1.0  0.9642220019404422  0.18083941953393157  0.42746925829032273  1.0000
  H   H113      1.0  0.5724665540410356  0.8192257783132599  0.03584135282064706  1.0000
  H   H114      1.0  0.4274695221239142  0.18083868938327902  0.964222700025573  1.0000
  H   H115      1.0  0.03584155135686754  0.5724669563208166  0.5724656506356849  1.0000
  H   H116      1.0  0.9642218095646413  0.42746975794489106  0.42746994506583036  1.0000
  H   H117      1.0  0.5724659419079502  0.03584213568483119  0.8192263604873984  1.0000
  H   H118      1.0  0.42746956778574946  0.9642217655359102  0.18083934939935625  1.0000
  H   H119      1.0  0.8192253836151974  0.5724671613122323  0.5724659651865805  1.0000
  H   H120      1.0  0.18083832669844907  0.4274699023429348  0.4274699799104055  1.0000
  H   H121      1.0  0.44051573424351914  0.440515673927919  0.6784532373879416  1.0000
  H   H122      1.0  0.4405156962272159  0.4405148779711181  0.44051525234421957  1.0000
  H   H123      1.0  0.6784540067650371  0.44051533430064876  0.4405147371056232  1.0000
  H   H124      1.0  0.44051525362578287  0.6784539820401178  0.44051490939089893  1.0000
  C   C1        1.0  0.7858461226131368  0.448720345658053  0.21301263809217363  1.0000
  C   C2        1.0  0.8459263132446821  0.4483333830531746  0.15395813380535386  1.0000
  C   C3        1.0  0.4487208781681249  0.7858458934645325  0.5524200363772138  1.0000
  C   C4        1.0  0.4483338191602682  0.8459260074321903  0.5517816748307282  1.0000
  C   C5        1.0  0.2130131169704726  0.5524214259155042  0.7858450149932634  1.0000
  C   C6        1.0  0.15395835195482033  0.5517823745492335  0.8459257531462469  1.0000
  C   C7        1.0  0.5524211695577179  0.2130127996479913  0.4487203020472278  1.0000
  C   C8        1.0  0.5517818870863066  0.15395778378623945  0.44833373737261445  1.0000
  C   C9        1.0  0.44871976735863933  0.5524219713486928  0.21301236647199318  1.0000
  C   C10       1.0  0.44833460061872904  0.5517820045006088  0.15395743308280885  1.0000
  C   C11       1.0  0.7858450894708897  0.21301212952961626  0.5524224344397197  1.0000
  C   C12       1.0  0.8459247747872355  0.15395793110746345  0.551782788591467  1.0000
  C   C13       1.0  0.552421494523202  0.4487201633488878  0.7858458304701726  1.0000
  C   C14       1.0  0.5517821059339387  0.4483338628625547  0.8459254257576773  1.0000
  C   C15       1.0  0.21301156725702008  0.7858462550924015  0.4487201501122939  1.0000
  C   C16       1.0  0.15395821513315164  0.8459259312106935  0.4483341458363768  1.0000
  C   C17       1.0  0.5524271105856047  0.7858449735850993  0.21301299644266444  1.0000
  C   C18       1.0  0.5517792717036586  0.8459264276888799  0.15395751680866712  1.0000
  C   C19       1.0  0.21301260474238873  0.44871542961506344  0.5524265553753054  1.0000
  C   C20       1.0  0.15395699132510277  0.4483368023311199  0.5517792956109204  1.0000
  C   C21       1.0  0.448715682480561  0.2130119065123921  0.7858454749402525  1.0000
  C   C22       1.0  0.44833768020387754  0.1539568984452727  0.8459270394398217  1.0000
  C   C23       1.0  0.7858455762508431  0.5524269858856881  0.4487144470953552  1.0000
  C   C24       1.0  0.8459267114112874  0.5517788477140112  0.44833678492043544  1.0000
  C   C25       1.0  0.448721200820664  0.7858467207274982  0.21301263337462473  1.0000
  C   C26       1.0  0.4483326763162694  0.8459256033504373  0.15395878645750122  1.0000
  C   C27       1.0  0.78584620938161  0.4487216394844466  0.5524190828433859  1.0000
  C   C28       1.0  0.8459254435004337  0.44833263037858734  0.5517831433535535  1.0000
  C   C29       1.0  0.552420229968625  0.21301222042873746  0.7858461874001889  1.0000
  C   C30       1.0  0.5517834197567665  0.15395857861836493  0.8459257697892041  1.0000
  C   C31       1.0  0.21301205013674016  0.5524199987095243  0.4487215702326991  1.0000
  C   C32       1.0  0.1539586147935026  0.5517825193871032  0.44833360599069033  1.0000
  C   C33       1.0  0.5524250854177027  0.448716636151161  0.21301258288263367  1.0000
  C   C34       1.0  0.5517804261271239  0.44833581250580307  0.15395747425456827  1.0000
  C   C35       1.0  0.2130121047898185  0.7858463769445548  0.5524247877962408  1.0000
  C   C36       1.0  0.15395807265884526  0.8459262299290771  0.551779862261796  1.0000
  C   C37       1.0  0.4487163511602081  0.5524256732411459  0.785845788757264  1.0000
  C   C38       1.0  0.4483357801485895  0.5517804104125615  0.8459260533970223  1.0000
  C   C39       1.0  0.7858456486629566  0.21301224856854603  0.44871698322586434  1.0000
  C   C40       1.0  0.8459261948478842  0.1539571983060028  0.4483367527512955  1.0000
  C   C41       1.0  0.7858447555942336  0.5524253983256384  0.21301327886026666  1.0000
  C   C42       1.0  0.8459265890121304  0.5517799052727382  0.15395781121329594  1.0000
  C   C43       1.0  0.4487166654909062  0.21301211347011414  0.552425215499781  1.0000
  C   C44       1.0  0.44833642681095415  0.15395682408311015  0.5517804040321151  1.0000
  C   C45       1.0  0.21301210967816803  0.44871656643991287  0.7858455071698244  1.0000
  C   C46       1.0  0.15395697329709881  0.4483364611074663  0.8459265698507964  1.0000
  C   C47       1.0  0.5524264189309278  0.7858450488336  0.44871561704161433  1.0000
  C   C48       1.0  0.5517796349931674  0.8459264668558854  0.4483356769841222  1.0000
  C   C49       1.0  0.6908130732474546  0.5016120165055253  0.3059718488961779  1.0000
  C   C50       1.0  0.7552053324541034  0.5010183250629934  0.2427538215230882  1.0000
  C   C51       1.0  0.8765281733316429  0.49997761858762113  0.12352062986929019  1.0000
  C   C52       1.0  0.940322906377638  0.4999349330544118  0.05980721305249425  1.0000
  C   C53       1.0  0.9327986692988974  0.5370557904155432  0.9930905789552541  1.0000
  C   C54       1.0  0.8613849116413521  0.5767653959455002  0.9850849780926224  1.0000
  C   C55       1.0  0.0673135835574499  0.4628296824120638  0.0070276532095335555  1.0000
  C   C56       1.0  0.1387250149795847  0.4231322999063563  0.015010779083496626  1.0000
  C   C57       1.0  0.5016128444046047  0.6908131255526654  0.5016017592361877  1.0000
  C   C58       1.0  0.5010180729244383  0.7552051816512417  0.501022518515484  1.0000
  C   C59       1.0  0.4999787816747699  0.8765277658630306  0.49997278040818577  1.0000
  C   C60       1.0  0.49993577524144656  0.9403230549247753  0.4999343317853189  1.0000
  C   C61       1.0  0.5370569906750404  0.9327977449092654  0.5370544646537425  1.0000
  C   C62       1.0  0.5767661411585581  0.8613843775549976  0.5767643644782082  1.0000
  C   C63       1.0  0.4628297302705917  0.06731322176724314  0.46282953704486823  1.0000
  C   C64       1.0  0.4231317928633159  0.13872496460960793  0.4231325844933166  1.0000
  C   C65       1.0  0.30597205961689167  0.5016013193401675  0.6908129474598254  1.0000
  C   C66       1.0  0.24275372881488988  0.5010222360772189  0.7552048324862851  1.0000
  C   C67       1.0  0.1235205670557349  0.4999744288997545  0.8765279805778833  1.0000
  C   C68       1.0  0.05980704004339536  0.4999357115714602  0.9403228282825254  1.0000
  C   C69       1.0  0.9930905760549961  0.5370559938830008  0.9327983249582559  1.0000
  C   C70       1.0  0.9850850611151786  0.5767651960798047  0.8613852575986625  1.0000
  C   C71       1.0  0.007027281333812145  0.4628299484849022  0.06731330902869101  1.0000
  C   C72       1.0  0.01501085421237748  0.4231321818007671  0.13872482887689586  1.0000
  C   C73       1.0  0.5016014483370839  0.3059721415867357  0.5016125388860856  1.0000
  C   C74       1.0  0.5010217849702271  0.2427540654177276  0.5010182713470996  1.0000
  C   C75       1.0  0.49997454872210784  0.12351972313892644  0.4999772694683102  1.0000
  C   C76       1.0  0.4999356741487517  0.059806017799161296  0.4999347813167034  1.0000
  C   C77       1.0  0.5370567073570099  0.9930900406511537  0.5370550436726801  1.0000
  C   C78       1.0  0.5767661544978254  0.9850847811391357  0.5767643061838115  1.0000
  C   C79       1.0  0.46283010274376585  0.007027006010694876  0.46282907793543165  1.0000
  C   C80       1.0  0.4231323608773181  0.015010593218654791  0.4231318788781876  1.0000
  C   C81       1.0  0.501611121370068  0.5016029152243319  0.30597124978077517  1.0000
  C   C82       1.0  0.5010185097782125  0.5010216850326327  0.2427543870670235  1.0000
  C   C83       1.0  0.4999772643673879  0.49997493054726033  0.12351982170172703  1.0000
  C   C84       1.0  0.49993467473564124  0.4999351639494164  0.05980735977684769  1.0000
  C   C85       1.0  0.5370553769642331  0.5370554121245588  0.9930898218016964  1.0000
  C   C86       1.0  0.5767651184307921  0.5767650396412664  0.9850847456705338  1.0000
  C   C87       1.0  0.4628292637458814  0.46282924513935325  0.0070283355111728325  1.0000
  C   C88       1.0  0.423131832684824  0.42313192807316097  0.015010887062757734  1.0000
  C   C89       1.0  0.6908133818667466  0.3059715403655189  0.5016029011653416  1.0000
  C   C90       1.0  0.7552048463208508  0.24275464661546656  0.5010222427603425  1.0000
  C   C91       1.0  0.8765279590711399  0.12352063340325971  0.4999747335803376  1.0000
  C   C92       1.0  0.9403227182099483  0.059808022657612876  0.49993515868198557  1.0000
  C   C93       1.0  0.9327990476862099  0.9930903227752803  0.5370552767321399  1.0000
  C   C94       1.0  0.8613848448181184  0.9850857462211731  0.5767650327183846  1.0000
  C   C95       1.0  0.06731306644387307  0.007028654673256167  0.46282906444310606  1.0000
  C   C96       1.0  0.1387253684760097  0.015010790357123953  0.4231315962011876  1.0000
  C   C97       1.0  0.501603768416622  0.5016119922308774  0.6908133073820791  1.0000
  C   C98       1.0  0.5010222134376151  0.501019055464667  0.7552040264685687  1.0000
  C   C99       1.0  0.49997396666340443  0.4999771729064049  0.8765282375945915  1.0000
  C   C100      1.0  0.4999351323004008  0.4999346596474865  0.9403226459266419  1.0000
  C   C101      1.0  0.5370555146827339  0.537055791507683  0.9327985499882914  1.0000
  C   C102      1.0  0.576764647080928  0.5767650641187669  0.8613848253344683  1.0000
  C   C103      1.0  0.4628289999553201  0.4628295955431552  0.0673132386202155  1.0000
  C   C104      1.0  0.4231323267688864  0.4231319262732355  0.13872491240871906  1.0000
  C   C105      1.0  0.3059713886775341  0.6908141015589848  0.5016105032009648  1.0000
  C   C106      1.0  0.24275479574398418  0.7552050113769581  0.5010183234415919  1.0000
  C   C107      1.0  0.12352024698452631  0.8765284451053287  0.4999768556710861  1.0000
  C   C108      1.0  0.05980733975771115  0.940322907790417  0.4999344841631552  1.0000
  C   C109      1.0  0.9930898462667557  0.9327991648401832  0.5370552278486683  1.0000
  C   C110      1.0  0.9850857055237159  0.8613845156817913  0.576765116158036  1.0000
  C   C111      1.0  0.0070282587048567215  0.0673138217658362  0.4628291133390832  1.0000
  C   C112      1.0  0.015010742058642333  0.13872564188871192  0.42313218154495746  1.0000
  C   C113      1.0  0.5016157035716802  0.6908133455220165  0.3059711946193034  1.0000
  C   C114      1.0  0.5010160122563291  0.7552050120361499  0.2427549181491672  1.0000
  C   C115      1.0  0.4999790604337874  0.8765278418869111  0.123520368184586  1.0000
  C   C116      1.0  0.49993471737805373  0.9403229053894218  0.059807631681593434  1.0000
  C   C117      1.0  0.5370555874576652  0.9327987929359266  0.9930904219369122  1.0000
  C   C118      1.0  0.5767648463635527  0.8613848694254711  0.9850855470788389  1.0000
  C   C119      1.0  0.4628296221994433  0.06731322901578089  0.007028303868864373  1.0000
  C   C120      1.0  0.42313208596775803  0.13872518191671893  0.01501137257973543  1.0000
  C   C121      1.0  0.30597182049924504  0.5015975594096673  0.5016174211917885  1.0000
  C   C122      1.0  0.24275470195110668  0.5010233722379948  0.5010165994497768  1.0000
  C   C123      1.0  0.12352012020409825  0.49997377970476714  0.4999784903255318  1.0000
  C   C124      1.0  0.05980661597686788  0.49993619687977997  0.49993438695436504  1.0000
  C   C125      1.0  0.9930897319442737  0.5370567360303155  0.5370551518057598  1.0000
  C   C126      1.0  0.9850848685352676  0.5767661443442762  0.5767644894447841  1.0000
  C   C127      1.0  0.007027900251294797  0.4628298378894085  0.4628291449813914  1.0000
  C   C128      1.0  0.01501041641600425  0.423132315683027  0.42313236483998645  1.0000
  C   C129      1.0  0.5015974275532997  0.3059716416099292  0.6908134404531765  1.0000
  C   C130      1.0  0.5010247284331656  0.24275427834700733  0.7552054313968383  1.0000
  C   C131      1.0  0.499973754129478  0.1235199867185911  0.876528910874569  1.0000
  C   C132      1.0  0.4999357664689798  0.0598069124096625  0.9403237467362897  1.0000
  C   C133      1.0  0.5370564485774522  0.9930899072816359  0.9327987109376534  1.0000
  C   C134      1.0  0.5767652380220558  0.9850852913213539  0.8613852490327432  1.0000
  C   C135      1.0  0.4628294053011643  0.00702789391295499  0.06731359137730657  1.0000
  C   C136      1.0  0.42313205134096427  0.015010567834757122  0.13872550584047622  1.0000
  C   C137      1.0  0.6908132263721285  0.5016165204970519  0.5015988699504915  1.0000
  C   C138      1.0  0.7552053928648019  0.5010156385839649  0.5010241818992254  1.0000
  C   C139      1.0  0.8765278822418026  0.49997924190152077  0.49997240325804165  1.0000
  C   C140      1.0  0.9403223672392187  0.49993519725387564  0.499935395497232  1.0000
  C   C141      1.0  0.9327982884875612  0.537056381696054  0.5370552904805097  1.0000
  C   C142      1.0  0.8613844285730606  0.5767656937133124  0.5767647837178416  1.0000
  C   C143      1.0  0.06731276343438723  0.4628304586360555  0.46282955519575353  1.0000
  C   C144      1.0  0.13872507126727365  0.42313243198869077  0.4231323403925487  1.0000
  O   O1        1.0  0.6657940413191029  0.4529026625502011  0.3311063833480858  1.0000
  O   O2        1.0  0.4529033275437088  0.6657930505002198  0.5501967572403004  1.0000
  O   O3        1.0  0.3311064131362544  0.5501957749268767  0.6657927656490442  1.0000
  O   O4        1.0  0.5501958183030311  0.3311072897025154  0.45290336293857797  1.0000
  O   O5        1.0  0.45290320103113413  0.5501955829344991  0.3311074996501516  1.0000
  O   O6        1.0  0.6657925726826902  0.33110672142512215  0.5501958049351003  1.0000
  O   O7        1.0  0.5501968430276564  0.4529044787545543  0.6657919741314088  1.0000
  O   O8        1.0  0.3311070435894908  0.665793766265544  0.45290268281249263  1.0000
  O   O9        1.0  0.5501914956853045  0.6657949226973087  0.33110384648458785  1.0000
  O   O10       1.0  0.33110325466065393  0.45290968681268834  0.5501914310648743  1.0000
  O   O11       1.0  0.4529095820851553  0.3311030951089363  0.6657961589614274  1.0000
  O   O12       1.0  0.6657946105437986  0.5501929832296352  0.45290920026538134  1.0000
  O   O13       1.0  0.45290162900545267  0.665792230145456  0.33110672264238883  1.0000
  O   O14       1.0  0.6657914253176146  0.45290259170273095  0.5501990032536241  1.0000
  O   O15       1.0  0.5501989061805689  0.3311078125832835  0.6657918004581519  1.0000
  O   O16       1.0  0.33110797069436176  0.5501990416444753  0.45290113396504944  1.0000
  O   O17       1.0  0.5501938948417048  0.4529062954363565  0.3311047080088372  1.0000
  O   O18       1.0  0.3311045920167859  0.6657943480639898  0.5501934194943984  1.0000
  O   O19       1.0  0.4529070650804742  0.5501946821179472  0.6657934581276663  1.0000
  O   O20       1.0  0.6657952112822941  0.3311046149836157  0.4529058817857815  1.0000
  O   O21       1.0  0.6657947935443717  0.5501927986277976  0.3311039430037041  1.0000
  O   O22       1.0  0.45290659788314985  0.3311039976193868  0.5501934870039448  1.0000
  O   O23       1.0  0.33110431096494614  0.45290600057023755  0.6657961942201708  1.0000
  O   O24       1.0  0.550192734990482  0.665794817940302  0.4529074467075206  1.0000
  O   O25       1.0  0.6276532080158573  0.4574487014990253  0.4574494028428475  1.0000
  O   O26       1.0  0.4056862949734495  0.5314387739799923  0.5314365187848864  1.0000
  O   O27       1.0  0.45744834379877375  0.6276528950627238  0.45744869826724976  1.0000
  O   O28       1.0  0.5314392959339218  0.405685956906417  0.5314376247138098  1.0000
  O   O29       1.0  0.45745008671975274  0.45744931191838123  0.6276523195847118  1.0000
  O   O30       1.0  0.5314370941562743  0.5314377928000125  0.4056858768301979  1.0000
  O   O31       1.0  0.4574489738020517  0.4574497370664473  0.45744806492844237  1.0000
  O   O32       1.0  0.531437584046067  0.5314369228018022  0.5314384353163177  1.0000
