data_image0
_chemical_formula_structural       Zn8H60C72O26F4
_chemical_formula_sum              "Zn8 H60 C72 O26 F4"
_cell_length_a       17.7828408383935
_cell_length_b       18.645091388854997
_cell_length_c       23.464745009533825
_cell_angle_alpha    66.57379822164148
_cell_angle_beta     69.57560806456064
_cell_angle_gamma    90.07023544312774

_space_group_name_H-M_alt    "P 1"
_space_group_IT_number       1

loop_
  _space_group_symop_operation_xyz
  'x, y, z'

loop_
  _atom_site_type_symbol
  _atom_site_label
  _atom_site_symmetry_multiplicity
  _atom_site_fract_x
  _atom_site_fract_y
  _atom_site_fract_z
  _atom_site_occupancy
  Zn  Zn1       1.0  0.1186344631271936  0.5307434799117488  0.9426305005627568  1.0000
  Zn  Zn2       1.0  0.9710753528392144  0.5581587809781965  0.052016611574828134  1.0000
  Zn  Zn3       1.0  0.9767262717153075  0.3889248927315947  0.048863069263511215  1.0000
  Zn  Zn4       1.0  0.9397175003091292  0.5313392466342463  0.9336048391013632  1.0000
  Zn  Zn5       1.0  0.3851763375030899  0.978376312765022  0.048479779929372975  1.0000
  Zn  Zn6       1.0  0.5292479303169841  0.11591097098615681  0.9377213388191166  1.0000
  Zn  Zn7       1.0  0.5249968831092957  0.9469193477418901  0.9358341632748547  1.0000
  Zn  Zn8       1.0  0.5664579247120328  0.971571926726412  0.051302022553215976  1.0000
  H   H1        1.0  0.49428784593341396  0.8705346355721489  0.2601137699948238  1.0000
  H   H2        1.0  0.4354519281627134  0.8079718580093742  0.3853807170838834  1.0000
  H   H3        1.0  0.19431671741801895  0.8077468275890566  0.3802716120600633  1.0000
  H   H4        1.0  0.32053685832757145  0.6955815262044994  0.6100254458450819  1.0000
  H   H5        1.0  0.01998052223267173  0.6360023918656952  0.7257655959122359  1.0000
  H   H6        1.0  0.08154413168078627  0.6987514661788764  0.6005550214428794  1.0000
  H   H7        1.0  0.6266680357061674  0.023895905867988204  0.7304327692053505  1.0000
  H   H8        1.0  0.6962064507602861  0.0835371092592041  0.6055407716841967  1.0000
  H   H9        1.0  0.7017112979356314  0.31626871153437014  0.604672599628408  1.0000
  H   H10       1.0  0.8096602287594125  0.1899229885002569  0.3859820794872133  1.0000
  H   H11       1.0  0.869701015682658  0.4821533051337923  0.25564753719727656  1.0000
  H   H12       1.0  0.8124445766894864  0.42470062187870644  0.38090857951818446  1.0000
  H   H13       1.0  0.19937114529573557  0.3024392680479977  0.9106503592921911  1.0000
  H   H14       1.0  0.1271627398248611  0.23044294185032044  0.986879344234978  1.0000
  H   H15       1.0  0.21664297624737122  0.1388679644977984  0.9840645858879923  1.0000
  H   H16       1.0  0.28852236834682543  0.2116534106789842  0.9081752468488772  1.0000
  H   H17       1.0  0.2159850506859158  0.12457468585762399  0.09506621330714886  1.0000
  H   H18       1.0  0.2880136750364741  0.1857456907929773  0.0990609246427141  1.0000
  H   H19       1.0  0.1275294593086542  0.2173770497824634  0.09791903336390813  1.0000
  H   H20       1.0  0.2009636802666961  0.2786018539547328  0.1004077611070358  1.0000
  H   H21       1.0  0.3039864970459761  0.3920571149610979  0.9136025516966197  1.0000
  H   H22       1.0  0.30452223606623363  0.3835587397252738  0.9907313703299392  1.0000
  H   H23       1.0  0.39285724741315414  0.2909071993337876  0.9900868269204678  1.0000
  H   H24       1.0  0.39349954206782206  0.30068342083129107  0.9123433725220025  1.0000
  H   H25       1.0  0.8904935383970454  0.8001600707537833  0.9052552120630394  1.0000
  H   H26       1.0  0.8874706797318409  0.7872810914184498  0.9849900644573635  1.0000
  H   H27       1.0  0.7981058778420548  0.8791063322236569  0.9866662908267827  1.0000
  H   H28       1.0  0.8015046644833249  0.8911731598140805  0.907028352271496  1.0000
  H   H29       1.0  0.6944372556087616  0.7753666306679676  0.09189051720198901  1.0000
  H   H30       1.0  0.6223294531427895  0.7136557204343532  0.08848135225068875  1.0000
  H   H31       1.0  0.7823161131271449  0.6820013607005037  0.09063911195948995  1.0000
  H   H32       1.0  0.7104133976465901  0.6219233431351369  0.08551218339158582  1.0000
  H   H33       1.0  0.7892170383832139  0.712496939194651  0.8974389545670575  1.0000
  H   H34       1.0  0.7160593780985423  0.6390116614388575  0.9706347336596436  1.0000
  H   H35       1.0  0.6261113449975468  0.729942219599714  0.9736542846826737  1.0000
  H   H36       1.0  0.6988471844504714  0.8029924858364268  0.9000134652771833  1.0000
  H   H37       1.0  0.1615885252645484  0.7926498100568936  0.9378623271633728  1.0000
  H   H38       1.0  0.2455156420983897  0.7559320139800719  0.8973158601192066  1.0000
  H   H39       1.0  0.3338266468923052  0.8521023568396161  0.8936577169290556  1.0000
  H   H40       1.0  0.24940847186479692  0.8875957656897099  0.9350728004190927  1.0000
  H   H41       1.0  0.39407372159340776  0.7438181554796583  0.9603991533751355  1.0000
  H   H42       1.0  0.35336714079713266  0.7032037095639866  0.04904257906393636  1.0000
  H   H43       1.0  0.30464326602575653  0.64742292293721  0.9649042982986841  1.0000
  H   H44       1.0  0.26391208310381137  0.6081718726330507  0.05350299963873077  1.0000
  H   H45       1.0  0.10151434846937953  0.7354829275303133  0.06564718099998856  1.0000
  H   H46       1.0  0.14282567421798834  0.6597919345571415  0.11283308502404304  1.0000
  H   H47       1.0  0.23263273786162847  0.75458642035656  0.10927424271190483  1.0000
  H   H48       1.0  0.19066004742815323  0.8301736913102644  0.06280927212844739  1.0000
  H   H49       1.0  0.8989192521576256  0.2687394520126816  0.9288435390119716  1.0000
  H   H50       1.0  0.853746292421171  0.3436805935959555  0.8837796326219162  1.0000
  H   H51       1.0  0.7680284071880904  0.24627983931420516  0.8864086322706226  1.0000
  H   H52       1.0  0.8121923032303185  0.17185304825067493  0.9329419909517467  1.0000
  H   H53       1.0  0.6478045371878521  0.29628750480446797  0.9459145350624921  1.0000
  H   H54       1.0  0.6050840563873335  0.25581200832609613  0.034497992420412425  1.0000
  H   H55       1.0  0.7344493815219407  0.39224023416098674  0.9447064094213002  1.0000
  H   H56       1.0  0.6920524695471358  0.3502499621883999  0.03329273821439921  1.0000
  H   H57       1.0  0.8391508326577296  0.20719418715631832  0.05643957007242038  1.0000
  H   H58       1.0  0.7559487533752077  0.24096006571021888  0.09973319649837012  1.0000
  H   H59       1.0  0.6663279271065791  0.14724634135328785  0.10198065866492088  1.0000
  H   H60       1.0  0.7497412811112909  0.11154122013228121  0.06093492268852431  1.0000
  C   C1        1.0  0.14066647214209382  0.6344252166149503  0.0046479194038297365  1.0000
  C   C2        1.0  0.9076585095881883  0.40897948229665815  0.1751851953295682  1.0000
  C   C3        1.0  0.14567985401127  0.3645118533376746  0.0005883979205733716  1.0000
  C   C4        1.0  0.8604660331489457  0.3672960698966889  0.9887054552693542  1.0000
  C   C5        1.0  0.09293581066894772  0.5924995892658417  0.8135217252024348  1.0000
  C   C6        1.0  0.8612169325724184  0.6431956571526598  0.988851503009549  1.0000
  C   C7        1.0  0.36163018894248466  0.14294518719619026  0.9964712113284762  1.0000
  C   C8        1.0  0.5827898114993102  0.09500454310884272  0.8124439649530542  1.0000
  C   C9        1.0  0.35685134209279573  0.8637386725520458  0.9970571609286126  1.0000
  C   C10       1.0  0.6434743737911078  0.8643113295626749  0.9925732978969891  1.0000
  C   C11       1.0  0.4179441167710037  0.9142213499717684  0.17440468660758768  1.0000
  C   C12       1.0  0.6467657367479874  0.13837516874015424  0.9928854877567372  1.0000
  C   C13       1.0  0.3794733518587777  0.8754132844534012  0.2494575446023716  1.0000
  C   C14       1.0  0.42862713591142676  0.8565017748907169  0.2875581073391799  1.0000
  C   C15       1.0  0.39589061859809493  0.8216097607678208  0.35722956290790364  1.0000
  C   C16       1.0  0.31055137031638225  0.8034095691068472  0.3923429058056342  1.0000
  C   C17       1.0  0.2602790385102622  0.8211837354053841  0.35520669473203975  1.0000
  C   C18       1.0  0.29478105918116876  0.8563293836630663  0.2855830074236465  1.0000
  C   C19       1.0  0.2749633960456848  0.7678170078940882  0.4634463686754486  1.0000
  C   C20       1.0  0.2423593900986631  0.7372645918190273  0.5246868074415686  1.0000
  C   C21       1.0  0.2056131920879807  0.7018691755209545  0.5957404744141214  1.0000
  C   C22       1.0  0.2544577965553572  0.6831504825006364  0.6340848018171171  1.0000
  C   C23       1.0  0.2184401486034488  0.648306940742245  0.7036834838946788  1.0000
  C   C24       1.0  0.13349495921103482  0.6303013774418176  0.7385939984460986  1.0000
  C   C25       1.0  0.08580298588447022  0.6496291739894674  0.6992534176682312  1.0000
  C   C26       1.0  0.1200597997336956  0.6845312535511283  0.6296221651704883  1.0000
  C   C27       1.0  0.6240794380664597  0.13462430089639812  0.7377975620226137  1.0000
  C   C28       1.0  0.6434956267518713  0.0878730590378183  0.701645366300724  1.0000
  C   C29       1.0  0.6822084904792547  0.12098550025186938  0.632370601554747  1.0000
  C   C30       1.0  0.7037400644751415  0.20416658633082116  0.5958578383344741  1.0000
  C   C31       1.0  0.6856405674382062  0.2520410864675995  0.6310269049545736  1.0000
  C   C32       1.0  0.6464775031342355  0.2171753400037915  0.7003922064269262  1.0000
  C   C33       1.0  0.7418063668133927  0.2391942912717795  0.5250129949834488  1.0000
  C   C34       1.0  0.7729424861820603  0.2691318026129396  0.46374522598930656  1.0000
  C   C35       1.0  0.8068183647373103  0.30319648743214606  0.39274267627376946  1.0000
  C   C36       1.0  0.8225035712738773  0.2541754168544728  0.35859921536400924  1.0000
  C   C37       1.0  0.8543217803130644  0.28787776171547813  0.2889428666877762  1.0000
  C   C38       1.0  0.872181894610563  0.3703693976918601  0.25017916703420423  1.0000
  C   C39       1.0  0.8560487773107326  0.41823865811050354  0.2853918233676822  1.0000
  C   C40       1.0  0.8243125603167131  0.38631156371182845  0.3549155771142338  1.0000
  C   C41       1.0  0.19076309328452376  0.2601491493634711  0.9619551100900736  1.0000
  C   C42       1.0  0.2500402937745676  0.19946566995094633  0.9603104119775806  1.0000
  C   C43       1.0  0.30499748404192667  0.2038483329957046  0.9978443110335106  1.0000
  C   C44       1.0  0.24975138723922896  0.18498718758498  0.07114447903519758  1.0000
  C   C45       1.0  0.1912858975480702  0.24640367153640602  0.0724869694785184  1.0000
  C   C46       1.0  0.20570983520658356  0.3064537011552916  0.0001769438287908877  1.0000
  C   C47       1.0  0.2942125204946251  0.34900873474826716  0.9647899575011322  1.0000
  C   C48       1.0  0.3530456215350598  0.28814110194224435  0.963959818237271  1.0000
  C   C49       1.0  0.8493443226882889  0.7860888046928525  0.9571620017072319  1.0000
  C   C50       1.0  0.7899730485131968  0.8468925424055203  0.9583480666984984  1.0000
  C   C51       1.0  0.701040731807318  0.8038275122013374  0.9912484978345263  1.0000
  C   C52       1.0  0.686024296686142  0.7433738781412131  0.06354383260637055  1.0000
  C   C53       1.0  0.7446954587853936  0.6822095558193766  0.06216591985808851  1.0000
  C   C54       1.0  0.8010856333366976  0.7014144728525695  0.9890449925156088  1.0000
  C   C55       1.0  0.7491246210053718  0.6993788381676611  0.9492901872748616  1.0000
  C   C56       1.0  0.6895642396065539  0.759629832737943  0.9510006354774772  1.0000
  C   C57       1.0  0.2183381980366122  0.7707283168581045  0.9402570706148621  1.0000
  C   C58       1.0  0.2769985885800424  0.8340997276573534  0.9380694782937198  1.0000
  C   C59       1.0  0.297345172933106  0.8008103814589733  0.001830207900098855  1.0000
  C   C60       1.0  0.33710214685287815  0.7264674088679401  0.004574723656247631  1.0000
  C   C61       1.0  0.2777989886859302  0.6630331749044699  0.007375051911949946  1.0000
  C   C62       1.0  0.1977890281636263  0.6942019591570271  0.00589833822492377  1.0000
  C   C63       1.0  0.15892928205663281  0.714268288361801  0.06619234289255606  1.0000
  C   C64       1.0  0.21812897456857883  0.777146396481669  0.06400593196877932  1.0000
  C   C65       1.0  0.8405064074629536  0.28846487184418373  0.9293954374692318  1.0000
  C   C66       1.0  0.7829321064902502  0.224182094018694  0.9314353051567679  1.0000
  C   C67       1.0  0.7030245297415263  0.1988542885924147  0.9942037984982334  1.0000
  C   C68       1.0  0.6628833842133375  0.2732262548898134  0.9908275974191766  1.0000
  C   C69       1.0  0.7206682400763214  0.3364888027457908  0.9898377666479375  1.0000
  C   C70       1.0  0.8006600376802524  0.3059629527111979  0.991663251484006  1.0000
  C   C71       1.0  0.7819213222110051  0.22838669264033482  0.05539916521784948  1.0000
  C   C72       1.0  0.7231068776380525  0.16549584298061856  0.057422337285451854  1.0000
  O   O1        1.0  0.0005094904695326222  0.5034835987132313  0.9931549555505583  1.0000
  O   O2        1.0  0.17072429613919843  0.6078206685790378  0.9604309527850533  1.0000
  O   O3        1.0  0.9162001062214316  0.48458878485462265  0.14761824941338375  1.0000
  O   O4        1.0  0.0711212023908061  0.3347341991936261  0.037391652651919606  1.0000
  O   O5        1.0  0.06716372104783373  0.6168171113879383  0.04636566218463398  1.0000
  O   O6        1.0  0.1734753674889049  0.4378819055411753  0.9634320926638367  1.0000
  O   O7        1.0  0.9268963872611308  0.3642824658898506  0.14489363942938382  1.0000
  O   O8        1.0  0.901176117689488  0.3406778425776551  0.025702693264335462  1.0000
  O   O9        1.0  0.015120909420275611  0.5804462797464397  0.8380737259854669  1.0000
  O   O10       1.0  0.8669498831897114  0.439789572316606  0.9488220301041251  1.0000
  O   O11       1.0  0.13898483016014748  0.5754292441098768  0.8465017029817615  1.0000
  O   O12       1.0  0.8993096946010936  0.634085116489061  0.027812650775174984  1.0000
  O   O13       1.0  0.8696165301379609  0.608828556937148  0.9501754478336437  1.0000
  O   O14       1.0  0.5022937998106941  0.001640948982654294  0.9944715108016096  1.0000
  O   O15       1.0  0.3288840674854826  0.0700141624069843  0.026895549900416385  1.0000
  O   O16       1.0  0.5570993527106367  0.13866636734665147  0.8429557268410263  1.0000
  O   O17       1.0  0.4274857651268674  0.8818961844298344  0.9504821696370839  1.0000
  O   O18       1.0  0.43761174087887866  0.1690250465390406  0.9648439344930323  1.0000
  O   O19       1.0  0.3319054117028487  0.8939298793601653  0.03909421217359461  1.0000
  O   O20       1.0  0.5765225194248914  0.0195366215656492  0.8397257214429316  1.0000
  O   O21       1.0  0.6029999163002557  0.876099384751811  0.955233171475747  1.0000
  O   O22       1.0  0.49493870843428317  0.9179901616350677  0.14799736045767972  1.0000
  O   O23       1.0  0.6404255193473887  0.8986939703662458  0.030687884504366988  1.0000
  O   O24       1.0  0.3710651982891092  0.940792536529294  0.14312709584971364  1.0000
  O   O25       1.0  0.6213701872749341  0.1637845340475579  0.9448308885063738  1.0000
  O   O26       1.0  0.6296949043339451  0.06770197850020308  0.03863029924296059  1.0000
  F   F1        1.0  0.2420850907801793  0.8705288149368968  0.2537939388167628  1.0000
  F   F2        1.0  0.26995176903660933  0.6324230067289563  0.7365831017831893  1.0000
  F   F3        1.0  0.63144155725616  0.2669952022913336  0.7307492786109222  1.0000
  F   F4        1.0  0.8669580046699539  0.23686311790600462  0.25976812651830267  1.0000
