data_image0
_chemical_formula_structural       Zn4H16C32N16O8
_chemical_formula_sum              "Zn4 H16 C32 N16 O8"
_cell_length_a       4.89752725986222
_cell_length_b       10.510273479326639
_cell_length_c       17.033608253000637
_cell_angle_alpha    90.00002594016338
_cell_angle_beta     90.00001367085711
_cell_angle_gamma    97.96814448329712

_space_group_name_H-M_alt    "P 1"
_space_group_IT_number       1

loop_
  _space_group_symop_operation_xyz
  'x, y, z'

loop_
  _atom_site_type_symbol
  _atom_site_label
  _atom_site_symmetry_multiplicity
  _atom_site_fract_x
  _atom_site_fract_y
  _atom_site_fract_z
  _atom_site_occupancy
  Zn  Zn1       1.0  0.20358178357295734  0.6479557782883203  0.6594035444817832  1.0000
  Zn  Zn2       1.0  0.7964159894759958  0.8520437580331118  0.15940383554242027  1.0000
  Zn  Zn3       1.0  0.7964172865305698  0.3520439007057092  0.3405961447208057  1.0000
  Zn  Zn4       1.0  0.2035830806275314  0.14795592096091778  0.8405958536601685  1.0000
  H   H1        1.0  0.36662156156354087  0.829548297409637  0.5308559437034573  1.0000
  H   H2        1.0  0.6333783999916421  0.6704520972473489  0.03085617294780009  1.0000
  H   H3        1.0  0.6333798343499097  0.17045234331651218  0.4691437454993518  1.0000
  H   H4        1.0  0.36662067011188537  0.329547581746681  0.9691435162547888  1.0000
  H   H5        1.0  0.21369918331711088  0.88792059218796  0.39776494400381773  1.0000
  H   H6        1.0  0.786301170138934  0.6120800975900236  0.8977646829685069  1.0000
  H   H7        1.0  0.7863042547418574  0.11208004954552553  0.6022353322737286  1.0000
  H   H8        1.0  0.2136981836293117  0.38792054212903065  0.10223500623422407  1.0000
  H   H9        1.0  0.3830612279064453  0.7894211358466234  0.2798239825280219  1.0000
  H   H10       1.0  0.6169387159106563  0.7105784983414267  0.7798243243901692  1.0000
  H   H11       1.0  0.616937842197082  0.210578543147406  0.720175706674574  1.0000
  H   H12       1.0  0.38306035419287815  0.289421180652603  0.22017536481242667  1.0000
  H   H13       1.0  0.8855955250950417  0.5780338671830025  0.4265251250595269  1.0000
  H   H14       1.0  0.11440485908020993  0.9219668457280931  0.9265249042519554  1.0000
  H   H15       1.0  0.11440382867320409  0.42196677253605935  0.5734745641432113  1.0000
  H   H16       1.0  0.8855965368335532  0.0780337949982908  0.07347537202552697  1.0000
  C   C1        1.0  0.7343576935619326  0.6600634316207561  0.5642857258324552  1.0000
  C   C2        1.0  0.26563997789083515  0.8399360281936478  0.06428715120970448  1.0000
  C   C3        1.0  0.26564137654191466  0.33993624737350797  0.4357145504448069  1.0000
  C   C4        1.0  0.734359092213637  0.16006365080109217  0.9357142992169043  1.0000
  C   C5        1.0  0.7671249818874913  0.6218760436620911  0.2755001673984906  1.0000
  C   C6        1.0  0.2328749573109761  0.8781235870479023  0.7754999425075295  1.0000
  C   C7        1.0  0.23287613036124097  0.37812363633904056  0.7244995218041693  1.0000
  C   C8        1.0  0.7671241127925512  0.1218760919461275  0.22449974669506634  1.0000
  C   C9        1.0  0.6262538728269362  0.6946190099418744  0.48643434158612536  1.0000
  C   C10       1.0  0.37374657533857186  0.8053817511570927  0.9864346931695279  1.0000
  C   C11       1.0  0.373749565232032  0.30538163179161154  0.5135659346914208  1.0000
  C   C12       1.0  0.6262527784303062  0.19461888856243087  0.013566170182549797  1.0000
  C   C13       1.0  0.44139827078348054  0.7844328490564507  0.47900256946584097  1.0000
  C   C14       1.0  0.5586001272988241  0.7155679050577105  0.9790029087115073  1.0000
  C   C15       1.0  0.5586010829847651  0.21556779066260384  0.52099711973689  1.0000
  C   C16       1.0  0.4413989428050158  0.2844317739365607  0.020997367565762193  1.0000
  C   C17       1.0  0.3576876322755851  0.8185086387962385  0.40449692455344877  1.0000
  C   C18       1.0  0.642312444705965  0.6814910956713193  0.9044960859011862  1.0000
  C   C19       1.0  0.6423137636384908  0.1814920019303869  0.5955039387986998  1.0000
  C   C20       1.0  0.35768662539756957  0.3185085833227106  0.09550360330140248  1.0000
  C   C21       1.0  0.4557601024692771  0.7635605963620904  0.3374535796489368  1.0000
  C   C22       1.0  0.5442396192378425  0.7364381234547467  0.8374533366512009  1.0000
  C   C23       1.0  0.5442410097797676  0.23643908363926866  0.6625466966283964  1.0000
  C   C24       1.0  0.45575945086568487  0.2635615555392831  0.16254635255138786  1.0000
  C   C25       1.0  0.6455744283246432  0.6753341679351833  0.3443657910749067  1.0000
  C   C26       1.0  0.35442586809496385  0.824666478891508  0.8443655596320452  1.0000
  C   C27       1.0  0.35442668392440885  0.3246655120661828  0.6556344852024338  1.0000
  C   C28       1.0  0.6455734856732819  0.1753341608275463  0.15563412957069284  1.0000
  C   C29       1.0  0.7308240247867063  0.642155363195279  0.4191796503686404  1.0000
  C   C30       1.0  0.26917635154304514  0.8578453438077531  0.9191800093932228  1.0000
  C   C31       1.0  0.26917737112674434  0.3578452775308704  0.5808200388341689  1.0000
  C   C32       1.0  0.7308250443707252  0.14215529691863787  0.0808202668842526  1.0000
  N   N1        1.0  0.8499889479204086  0.5049493371237616  0.27141939789409963  1.0000
  N   N2        1.0  0.1500089447741359  0.9950502892967986  0.7714191999038318  1.0000
  N   N3        1.0  0.1500101221831187  0.49505034187026814  0.7285802913084891  1.0000
  N   N4        1.0  0.8499901253293983  0.0049493896972379  0.22858048929875704  1.0000
  N   N5        1.0  0.9630075420458228  0.4941830919643238  0.19942056234337704  1.0000
  N   N6        1.0  0.036992674320451606  0.005816616148493399  0.6994202202197001  1.0000
  N   N7        1.0  0.036993286538503846  0.5058156273120175  0.800579713933814  1.0000
  N   N8        1.0  0.9630063957830755  0.994183062845536  0.30057946898288884  1.0000
  N   N9        1.0  0.9502360842055922  0.5992013928452663  0.16046288829677735  1.0000
  N   N10       1.0  0.04976401578481654  0.9007991060603897  0.6604632442235284  1.0000
  N   N11       1.0  0.049765311707858514  0.40079924788088317  0.8395368009060247  1.0000
  N   N12       1.0  0.950237096464228  0.09920057394097626  0.33953703205380487  1.0000
  N   N13       1.0  0.8292445329065645  0.6813361315786465  0.20650305269175814  1.0000
  N   N14       1.0  0.17075504893029594  0.8186624829088769  0.7065028069597046  1.0000
  N   N15       1.0  0.1707565793421679  0.3186635484224852  0.7934966365109017  1.0000
  N   N16       1.0  0.8292437375085129  0.18133623536013488  0.2934968822427493  1.0000
  O   O1        1.0  0.5965662262752716  0.6626102169683462  0.6274978127517628  1.0000
  O   O2        1.0  0.4034338385042772  0.8373902554217663  0.1274974856599016  1.0000
  O   O3        1.0  0.4034328438285755  0.33738946202591785  0.3725024635254995  1.0000
  O   O4        1.0  0.5965675574094861  0.1626103853046246  0.8725027906175739  1.0000
  O   O5        1.0  0.9789532283683188  0.6301561640929804  0.563737402319745  1.0000
  O   O6        1.0  0.021046484643029727  0.8698432962867739  0.0637370580087762  1.0000
  O   O7        1.0  0.021048167545131898  0.369844476633169  0.436262286883064  1.0000
  O   O8        1.0  0.978952301795779  0.13015542198223778  0.9362626311936776  1.0000
