data_image0
_chemical_formula_structural       Cu4H40C24N16Cl8
_chemical_formula_sum              "Cu4 H40 C24 N16 Cl8"
_cell_length_a       6.870968306322172
_cell_length_b       8.558698061028805
_cell_length_c       16.329499111012
_cell_angle_alpha    90.00007127673638
_cell_angle_beta     90.0000869056004
_cell_angle_gamma    108.79174611916629

_space_group_name_H-M_alt    "P 1"
_space_group_IT_number       1

loop_
  _space_group_symop_operation_xyz
  'x, y, z'

loop_
  _atom_site_type_symbol
  _atom_site_label
  _atom_site_symmetry_multiplicity
  _atom_site_fract_x
  _atom_site_fract_y
  _atom_site_fract_z
  _atom_site_occupancy
  Cu  Cu1       1.0  1.9524585538999994e-06  1.2318236742e-06  1.0019000000000004e-12  1.0000
  Cu  Cu2       1.0  0.4999966270798666  0.4999992877638348  0.5000003448960302  1.0000
  Cu  Cu3       1.0  0.5000019594587287  0.999999425381809  0.9999995944766416  1.0000
  Cu  Cu4       1.0  0.9999974556110658  0.5000005664917425  0.5000004973202368  1.0000
  H   H1        1.0  0.3326213179801982  0.31100019512840754  0.926372158229086  1.0000
  H   H2        1.0  0.1673799979836659  0.1890031355516228  0.42637020314833063  1.0000
  H   H3        1.0  0.6673807024508349  0.689002071142845  0.07362853156686103  1.0000
  H   H4        1.0  0.8326166630776157  0.8109966694326116  0.5736286494792041  1.0000
  H   H5        1.0  0.33108372546557535  0.5171285993539244  0.9314256570694328  1.0000
  H   H6        1.0  0.16891489700936543  0.9828750803526205  0.4314238971781778  1.0000
  H   H7        1.0  0.668920247424019  0.4828748987410023  0.06857503272751593  1.0000
  H   H8        1.0  0.8310803096073159  0.0171247269975936  0.5685761802262237  1.0000
  H   H9        1.0  0.4725225046807964  0.4354813333083812  0.7995226683784229  1.0000
  H   H10       1.0  0.02747860375739461  0.06451905748721033  0.29951993332748134  1.0000
  H   H11       1.0  0.5274819266351471  0.5645196940480446  0.2004780214178511  1.0000
  H   H12       1.0  0.9725189741581914  0.9354758060211522  0.7004795316873573  1.0000
  H   H13       1.0  0.22333369959393679  0.3071378504642367  0.7748745190141479  1.0000
  H   H14       1.0  0.27666777745634613  0.1928636833607555  0.27487263311793003  1.0000
  H   H15       1.0  0.7766687792634457  0.6928619450685147  0.2251261707811168  1.0000
  H   H16       1.0  0.7233273895727308  0.8071324190613042  0.7251262195079211  1.0000
  H   H17       1.0  0.3238253375410167  0.5802050863776884  0.7061070682567492  1.0000
  H   H18       1.0  0.1761735168921419  0.9197940527132004  0.206105271095126  1.0000
  H   H19       1.0  0.6761756868685467  0.41979471151878295  0.2938936215380822  1.0000
  H   H20       1.0  0.8238240610266561  0.08020081079742881  0.7938954186970196  1.0000
  H   H21       1.0  0.3589559075411799  0.6820724524770654  0.802184768741832  1.0000
  H   H22       1.0  0.1410439493061802  0.8179282761403643  0.3021841076038713  1.0000
  H   H23       1.0  0.6410456148759068  0.31792857960453347  0.19781469627623957  1.0000
  H   H24       1.0  0.8589555810727845  0.18206781919506201  0.6978171945779367  1.0000
  H   H25       1.0  0.031298427495833954  0.6730051948240786  0.7343999780087673  1.0000
  H   H26       1.0  0.4686995794533502  0.8269915805328408  0.23439891024469264  1.0000
  H   H27       1.0  0.9687025969089123  0.3269946030689965  0.26559887462008913  1.0000
  H   H28       1.0  0.5313004489347365  0.17300574898884954  0.765601779549016  1.0000
  H   H29       1.0  0.948642670956197  0.45690279585652865  0.7321998737973208  1.0000
  H   H30       1.0  0.5513577490660142  0.043094966659211316  0.23219897631080505  1.0000
  H   H31       1.0  0.05135735743028386  0.5430945336640249  0.2678002036077346  1.0000
  H   H32       1.0  0.44864178130812593  0.9569011286728254  0.7678004887050351  1.0000
  H   H33       1.0  0.041476008528796564  0.6673091910259785  0.8889558527950644  1.0000
  H   H34       1.0  0.45852575830676295  0.8326918561441303  0.3889547825934657  1.0000
  H   H35       1.0  0.958526011899025  0.33269307524301434  0.11104361222356836  1.0000
  H   H36       1.0  0.5414738116533755  0.16730794411493125  0.6110452948122643  1.0000
  H   H37       1.0  0.7934721817630503  0.5864704568556222  0.8452511017798374  1.0000
  H   H38       1.0  0.7065280642104739  0.9135292859342101  0.345251156149459  1.0000
  H   H39       1.0  0.20653224955128024  0.41353057049967396  0.15474897562778275  1.0000
  H   H40       1.0  0.29347054931579925  0.08647175087822491  0.6547501460336992  1.0000
  C   C1        1.0  0.2629149824143298  0.3977015219869456  0.899954943828398  1.0000
  C   C2        1.0  0.23708474041496433  0.10230171335557971  0.3999535863246849  1.0000
  C   C3        1.0  0.7370870380183165  0.6023007442854434  0.10004635835620233  1.0000
  C   C4        1.0  0.7629148295435686  0.8976980869023521  0.6000458786923918  1.0000
  C   C5        1.0  0.3088090575118443  0.42096820370225163  0.8075804235987579  1.0000
  C   C6        1.0  0.19119404569099166  0.07903344872055838  0.3075790227346361  1.0000
  C   C7        1.0  0.6911948757949631  0.5790315894679169  0.19242087858560816  1.0000
  C   C8        1.0  0.8088054846815426  0.9209626466103484  0.6924198298925437  1.0000
  C   C9        1.0  0.26712445488487185  0.570188903747372  0.76943170893658  1.0000
  C   C10       1.0  0.23287473199945916  0.9298104695467446  0.2694305653548029  1.0000
  C   C11       1.0  0.7328775259601701  0.4298096575968628  0.23056836846947712  1.0000
  C   C12       1.0  0.7671247983746811  0.0701856257852924  0.7305688996610302  1.0000
  C   C13       1.0  0.04239822194015373  0.5642939188163539  0.767389322316163  1.0000
  C   C14       1.0  0.4575999977850885  0.9357066834755016  0.2673883196454271  1.0000
  C   C15       1.0  0.9576047549247519  0.43570711090153214  0.23261014270235597  1.0000
  C   C16       1.0  0.5423990741643153  0.06429188259616579  0.7326117577597419  1.0000
  C   C17       1.0  0.9432638183619773  0.5672574805674628  0.8505697365634223  1.0000
  C   C18       1.0  0.5567350010827284  0.932742284254296  0.3505684875282357  1.0000
  C   C19       1.0  0.056738660492193616  0.4327423149630292  0.14942972845453548  1.0000
  C   C20       1.0  0.4432645688774174  0.0672575160047586  0.6494315898774945  1.0000
  C   C21       1.0  0.04028488215875114  0.33460305724410944  0.9172248275699605  1.0000
  C   C22       1.0  0.45971684421071757  0.1653977688680541  0.41722364751119323  1.0000
  C   C23       1.0  0.9597176362814113  0.6654004432134003  0.08277524983788714  1.0000
  C   C24       1.0  0.5402788208307002  0.8345995677425293  0.5827758175038726  1.0000
  N   N1        1.0  0.9302090866624084  0.1941060981654275  0.9539769451763365  1.0000
  N   N2        1.0  0.5697905848001454  0.3058949576819144  0.45397684503004154  1.0000
  N   N3        1.0  0.06979438821323207  0.8058961657398385  0.04602251984274371  1.0000
  N   N4        1.0  0.4302070327030449  0.6941036107546025  0.5460238447633403  1.0000
  N   N5        1.0  0.7321608390349398  0.18980289423146252  0.9527196494706307  1.0000
  N   N6        1.0  0.7678373713810273  0.3101981593309374  0.4527202853058726  1.0000
  N   N7        1.0  0.26784118139127594  0.8101993720363935  0.04727920315934851  1.0000
  N   N8        1.0  0.23216074413290502  0.6898016432929668  0.5472804044880706  1.0000
  N   N9        1.0  0.7126314961348542  0.3192609899380514  0.9170345745904602  1.0000
  N   N10       1.0  0.7873694358310742  0.18073992691674326  0.4170345243713599  1.0000
  N   N11       1.0  0.2873719787423994  0.6807412739683513  0.08296550281727384  1.0000
  N   N12       1.0  0.21263258459996584  0.8192623393545161  0.5829661654245869  1.0000
  N   N13       1.0  0.9037686680167667  0.4109304066170054  0.8948980380486947  1.0000
  N   N14       1.0  0.5962311912932989  0.08907166491578522  0.39489658592251703  1.0000
  N   N15       1.0  0.0962348068620926  0.5890718572905342  0.10510265174769276  1.0000
  N   N16       1.0  0.40377033112378785  0.9109293671658137  0.6051028790955615  1.0000
  Cl  Cl1       1.0  0.6196029960932705  0.8218669133709399  0.9266051222481626  1.0000
  Cl  Cl2       1.0  0.880393313637356  0.6781331373913134  0.426604514635102  1.0000
  Cl  Cl3       1.0  0.3803980283146873  0.17813288452439485  0.07339495515800823  1.0000
  Cl  Cl4       1.0  0.11960579789644045  0.3218691336062492  0.5733955627713032  1.0000
  Cl  Cl5       1.0  0.18121667987651335  0.9860632132205251  0.8839589093186719  1.0000
  Cl  Cl6       1.0  0.31877878451672365  0.5139402956683341  0.3839612175484889  1.0000
  Cl  Cl7       1.0  0.818784882123353  0.013941523785831602  0.11603994331198213  1.0000
  Cl  Cl8       1.0  0.6812179161353811  0.4860632142463216  0.6160400846348966  1.0000
