data_image0
_chemical_formula_structural       Zn8H84C72O26
_chemical_formula_sum              "Zn8 H84 C72 O26"
_cell_length_a       21.695873591420725
_cell_length_b       21.704100286125097
_cell_length_c       21.62482627452324
_cell_angle_alpha    60.20529196083897
_cell_angle_beta     60.28751940900979
_cell_angle_gamma    89.97582362345888

_space_group_name_H-M_alt    "P 1"
_space_group_IT_number       1

loop_
  _space_group_symop_operation_xyz
  'x, y, z'

loop_
  _atom_site_type_symbol
  _atom_site_label
  _atom_site_symmetry_multiplicity
  _atom_site_fract_x
  _atom_site_fract_y
  _atom_site_fract_z
  _atom_site_occupancy
  Zn  Zn1       1.0  0.9531890097051913  0.03925158533397171  0.08476778749336222  1.0000
  Zn  Zn2       1.0  0.9537862534488184  0.04174770377640161  0.935351331689816  1.0000
  Zn  Zn3       1.0  0.9541852818882505  0.8935716357033954  0.08103507392863923  1.0000
  Zn  Zn4       1.0  0.1010382793894991  0.039554721333097106  0.9373784599687695  1.0000
  Zn  Zn5       1.0  0.5259530782320496  0.46712655866251407  0.9359677381753143  1.0000
  Zn  Zn6       1.0  0.5255001749129348  0.46623306351125393  0.08551744786736747  1.0000
  Zn  Zn7       1.0  0.3790162651788335  0.46762706608369353  0.08532916914080606  1.0000
  Zn  Zn8       1.0  0.5277384409706939  0.6134439287739184  0.9343187258692891  1.0000
  H   H1        1.0  0.8687893620215518  0.23252582476580838  0.9444075127797973  1.0000
  H   H2        1.0  0.7643532871185243  0.1276726023573858  0.14278086844128524  1.0000
  H   H3        1.0  0.8310234261196568  0.21682875068650284  0.08046316900671259  1.0000
  H   H4        1.0  0.683719213046288  0.20457784681654093  0.13866466410289754  1.0000
  H   H5        1.0  0.6554934484178858  0.1744080412204383  0.052578388089948094  1.0000
  H   H6        1.0  0.7838645230348006  0.16568682282551353  0.9380694809128158  1.0000
  H   H7        1.0  0.7332655028484824  0.09459055084658982  0.050891893852394725  1.0000
  H   H8        1.0  0.7943439378802211  0.3013030473255469  0.885944328527465  1.0000
  H   H9        1.0  0.6475754468982444  0.289535504486743  0.9425067257154821  1.0000
  H   H10       1.0  0.7138959725598254  0.3786503520297019  0.881186279148821  1.0000
  H   H11       1.0  0.6083864281848932  0.27305663009748576  0.0794684113147284  1.0000
  H   H12       1.0  0.743256784731372  0.41111651385714515  0.9743290294523559  1.0000
  H   H13       1.0  0.6923310083429897  0.339624654915248  0.08706753356494087  1.0000
  H   H14       1.0  0.8217583976927971  0.3321743528518867  0.9721209800581362  1.0000
  H   H15       1.0  0.754703645777404  0.8221792415598586  0.3559136279799307  1.0000
  H   H16       1.0  0.8717745622025886  0.897625236424169  0.35838424128352386  1.0000
  H   H17       1.0  0.7850039199850869  0.9124592692533186  0.3814657522859832  1.0000
  H   H18       1.0  0.7962934697584599  0.8130514655673126  0.5146759491604911  1.0000
  H   H19       1.0  0.8113674211519566  0.6976277202110098  0.5103867847803584  1.0000
  H   H20       1.0  0.8066464560357146  0.7194187071308776  0.37616955596433843  1.0000
  H   H21       1.0  0.8863211791334251  0.770798558118635  0.3544596982705175  1.0000
  H   H22       1.0  0.6768594749861876  0.6853150887204364  0.504597665048408  1.0000
  H   H23       1.0  0.6907399946028149  0.5889961457156545  0.6370360825653381  1.0000
  H   H24       1.0  0.6032215272926748  0.602010708797586  0.6607628251730304  1.0000
  H   H25       1.0  0.7203412030637822  0.6822968244555554  0.6593192671793275  1.0000
  H   H26       1.0  0.5866390629213001  0.729058346266996  0.6616067119600259  1.0000
  H   H27       1.0  0.664926407226872  0.782890528771347  0.6398594156292035  1.0000
  H   H28       1.0  0.6634724065112607  0.8027466494163279  0.504957627361378  1.0000
  H   H29       1.0  0.17265632573524667  0.11497482869339137  0.06702463544424837  1.0000
  H   H30       1.0  0.08713285130556159  0.22644232812985624  0.035564677380882884  1.0000
  H   H31       1.0  0.07813685561658451  0.16425867957809712  0.13402025321028788  1.0000
  H   H32       1.0  0.17054843100269318  0.31080319988862465  0.0244219884182542  1.0000
  H   H33       1.0  0.28637286988242755  0.3266020827671526  0.8909300892829676  1.0000
  H   H34       1.0  0.2701831446037204  0.19063368349470272  0.9115781233823128  1.0000
  H   H35       1.0  0.2133893987030149  0.24435560682074706  0.889308951614879  1.0000
  H   H36       1.0  0.3059061094324207  0.18912228801549702  0.007613792948021094  1.0000
  H   H37       1.0  0.3989773680384586  0.33524918103398704  0.8975999719144098  1.0000
  H   H38       1.0  0.3892517477757238  0.2737994996017861  0.9967006678625764  1.0000
  H   H39       1.0  0.3038191823612664  0.38495137074996694  0.9631014537883972  1.0000
  H   H40       1.0  0.26409314857415467  0.25746207746388444  0.14117478378736342  1.0000
  H   H41       1.0  0.20688519441284836  0.3105789035550687  0.11902600985017399  1.0000
  H   H42       1.0  0.19049656086703945  0.173948741161766  0.141176103243545  1.0000
  H   H43       1.0  0.8770342573220659  0.8265742415647994  0.950643848421315  1.0000
  H   H44       1.0  0.7585173028635738  0.9035233493794834  0.990576329817806  1.0000
  H   H45       1.0  0.8222374831979168  0.9175835987262533  0.8894065534198244  1.0000
  H   H46       1.0  0.6790841112851923  0.8180671107472296  0.9985241365580463  1.0000
  H   H47       1.0  0.6691682187351589  0.7023483111626234  0.12780223886727535  1.0000
  H   H48       1.0  0.8054664053281613  0.7258169158698209  0.1051626297834643  1.0000
  H   H49       1.0  0.7469865765232058  0.7779059599417978  0.13173362052724283  1.0000
  H   H50       1.0  0.8117775538682822  0.6935449503328999  0.004737353567435363  1.0000
  H   H51       1.0  0.6694719517371653  0.59280842850778  0.11450341974462927  1.0000
  H   H52       1.0  0.731984188409399  0.6079953243052573  0.012360805128821463  1.0000
  H   H53       1.0  0.6136780103579866  0.684395889106746  0.055894204621573275  1.0000
  H   H54       1.0  0.7408149673851625  0.7318195597102245  0.8740621430320561  1.0000
  H   H55       1.0  0.6830630459342545  0.7843474950235177  0.9007703921813782  1.0000
  H   H56       1.0  0.82057753232705  0.8084112075119024  0.8753841067423379  1.0000
  H   H57       1.0  0.17273094263725847  0.2407358278946106  0.6636724698840482  1.0000
  H   H58       1.0  0.091511830722169  0.12670925901434774  0.6622005356918734  1.0000
  H   H59       1.0  0.08006966438070863  0.21466058988595907  0.6386067526868899  1.0000
  H   H60       1.0  0.1754946199386964  0.2012796791496285  0.5059475103067753  1.0000
  H   H61       1.0  0.29100478423145404  0.18248893797598237  0.5091615099270754  1.0000
  H   H62       1.0  0.2724345371103354  0.18472789843815465  0.6434543938626548  1.0000
  H   H63       1.0  0.21797488060639128  0.10685858477440752  0.665219655223062  1.0000
  H   H64       1.0  0.30797600007880993  0.31608166883639643  0.5155002734724831  1.0000
  H   H65       1.0  0.40183096730011403  0.30137445536058755  0.38339986930986913  1.0000
  H   H66       1.0  0.39106053038291594  0.3897059224285401  0.3590449917323823  1.0000
  H   H67       1.0  0.3068993838595873  0.27442158657353843  0.3614733273744761  1.0000
  H   H68       1.0  0.2650824005388159  0.41031039028469257  0.3574277970107289  1.0000
  H   H69       1.0  0.20897007732916964  0.333036263399059  0.37983815049655323  1.0000
  H   H70       1.0  0.1914713681175328  0.3341072014834836  0.5140963971959421  1.0000
  H   H71       1.0  0.17639470902780371  0.8404912580218993  0.9397052691988677  1.0000
  H   H72       1.0  0.08880072558855556  0.7513245803332255  0.13768947672485868  1.0000
  H   H73       1.0  0.08126217606289993  0.7214986868465944  0.07827663838341449  1.0000
  H   H74       1.0  0.17396340936570445  0.6790324730103593  0.13259050511266687  1.0000
  H   H75       1.0  0.2873039843842449  0.7955700300493548  0.04274368726199635  1.0000
  H   H76       1.0  0.2695776409218168  0.9155904804531189  0.9288197860816325  1.0000
  H   H77       1.0  0.2108468485715562  0.876427317876491  0.041497399438547786  1.0000
  H   H78       1.0  0.3098723781619981  0.8297061057073379  0.8788218752210993  1.0000
  H   H79       1.0  0.40250755656306586  0.7876219530423613  0.9331457537743757  1.0000
  H   H80       1.0  0.3946149943284781  0.7563623357177466  0.8749832047105099  1.0000
  H   H81       1.0  0.3057613746210777  0.6697258111362032  0.07292753555247349  1.0000
  H   H82       1.0  0.2737090976488332  0.6322564672723204  0.9706038682872347  1.0000
  H   H83       1.0  0.2139903196049317  0.5931771436892246  0.0832619757902862  1.0000
  H   H84       1.0  0.19650329475599906  0.7128702229141554  0.968817623181792  1.0000
  C   C1        1.0  0.8757025364117937  0.1247828730938565  0.008230791662661744  1.0000
  C   C2        1.0  0.8293035632916103  0.17695307415703357  0.004966289371196893  1.0000
  C   C3        1.0  0.7911781596888899  0.18409531682804922  0.08182536119830541  1.0000
  C   C4        1.0  0.7319300618693845  0.21980523961104131  0.07530979025167997  1.0000
  C   C5        1.0  0.7146898720734641  0.20116861163404567  0.0227301699862891  1.0000
  C   C6        1.0  0.7641809497859527  0.155120352948444  0.0011129198895006584  1.0000
  C   C7        1.0  0.7459017898267888  0.2862808814333492  0.9490571445208502  1.0000
  C   C8        1.0  0.6869196008828242  0.32204875465257743  0.9419191757615195  1.0000
  C   C9        1.0  0.6479771358545392  0.32867474313469114  0.019110586771816516  1.0000
  C   C10       1.0  0.7125783713703271  0.35050908104915374  0.02375047767469606  1.0000
  C   C11       1.0  0.7627122984200412  0.30495295872392353  0.0018829296072766478  1.0000
  C   C12       1.0  0.601777824883179  0.38099589487374175  0.015330052849847757  1.0000
  C   C13       1.0  0.8647032133340105  0.8844583867977178  0.24367827419157362  1.0000
  C   C14       1.0  0.8113911153894832  0.8345691539406488  0.341705025160998  1.0000
  C   C15       1.0  0.8129865212851043  0.8696446854360859  0.3879013052112795  1.0000
  C   C16       1.0  0.7759943319421369  0.8028090598412307  0.48196061358601133  1.0000
  C   C17       1.0  0.7847245803854149  0.7317882854347034  0.47993707827828286  1.0000
  C   C18       1.0  0.8255526873611317  0.7596985115883187  0.3847906402996134  1.0000
  C   C19       1.0  0.6979372185054303  0.6969699249156991  0.5359176199961482  1.0000
  C   C20       1.0  0.661911201897631  0.6311337450691428  0.6303839975385587  1.0000
  C   C21       1.0  0.6632653579916976  0.6679588874055257  0.6750712250831724  1.0000
  C   C22       1.0  0.6474734601106107  0.7415872754497101  0.6316006090377327  1.0000
  C   C23       1.0  0.6892118517482331  0.7685221514628823  0.5367683389639738  1.0000
  C   C24       1.0  0.6116211327068227  0.6192917527860757  0.7732872739085295  1.0000
  C   C25       1.0  0.10692864697906398  0.10882230193062983  0.023027667671641425  1.0000
  C   C26       1.0  0.15603391552844673  0.15521183690892576  0.026184649077393363  1.0000
  C   C27       1.0  0.11852321442174943  0.19992935770503104  0.06311427716491377  1.0000
  C   C28       1.0  0.18392369749246737  0.2596053137940331  0.032228454847484  1.0000
  C   C29       1.0  0.25471945691294456  0.26923442079665705  0.9504038361612359  1.0000
  C   C30       1.0  0.22795762960021188  0.21516285656144166  0.9363332635478159  1.0000
  C   C31       1.0  0.2927421649907984  0.24042355816229843  0.9996724126490689  1.0000
  C   C32       1.0  0.3582693535619228  0.30014031310982153  0.9684444135701896  1.0000
  C   C33       1.0  0.3207080641314874  0.3455756521571658  0.004207072115235586  1.0000
  C   C34       1.0  0.24911300084595914  0.28597036930170106  0.09445166477178912  1.0000
  C   C35       1.0  0.22206993462828004  0.23113558483464666  0.08137418883629975  1.0000
  C   C36       1.0  0.370328338093799  0.39359993962253986  0.005177566217007309  1.0000
  C   C37       1.0  0.8802903768435257  0.889419417262452  0.9983569722351435  1.0000
  C   C38       1.0  0.8352690879570093  0.8401943933755974  0.9940862998692239  1.0000
  C   C39       1.0  0.7880233260400048  0.8751867749073484  0.9599179373485002  1.0000
  C   C40       1.0  0.7318848237824936  0.8080368586365552  0.9887188626541528  1.0000
  C   C41       1.0  0.7258470120945331  0.7373138112658921  0.06796349560643497  1.0000
  C   C42       1.0  0.7782373274560898  0.7658967921768323  0.08270227732607058  1.0000
  C   C43       1.0  0.7587622930774812  0.7030918538511557  0.014824569984789156  1.0000
  C   C44       1.0  0.7026987351928682  0.6356391034352172  0.04413924363861104  1.0000
  C   C45       1.0  0.6541901201913802  0.6704729778422377  0.011960052776508658  1.0000
  C   C46       1.0  0.7105687769916  0.74437389997086  0.9227555735030181  1.0000
  C   C47       1.0  0.7642057559309877  0.7735592969598386  0.9358078419970685  1.0000
  C   C48       1.0  0.606678235191204  0.6204000581373423  0.011030435331860922  1.0000
  C   C49       1.0  0.1084294195292159  0.13082633728057405  0.7761090991369883  1.0000
  C   C50       1.0  0.15783848704290904  0.18432107426536962  0.6780898342542584  1.0000
  C   C51       1.0  0.1214910201403114  0.18496068172283492  0.6322652251844048  1.0000
  C   C52       1.0  0.18753655366403169  0.2208864771905894  0.5381497838878389  1.0000
  C   C53       1.0  0.2583676790900427  0.2095415428688199  0.5399151913073011  1.0000
  C   C54       1.0  0.23107175906442734  0.16776906932010152  0.6349519404826651  1.0000
  C   C55       1.0  0.2951948648141142  0.2960731176707441  0.4840355321501163  1.0000
  C   C56       1.0  0.3606638615953344  0.33136167818220497  0.38973022988056993  1.0000
  C   C57       1.0  0.32322615125605136  0.33142115480927004  0.3451261759709894  1.0000
  C   C58       1.0  0.2509455157660128  0.3493327282664396  0.38795131563545476  1.0000
  C   C59       1.0  0.224110681216537  0.30740571356967195  0.48281805889379836  1.0000
  C   C60       1.0  0.3720203763784724  0.38278592096055775  0.24689272820382513  1.0000
  C   C61       1.0  0.10775962488133221  0.8856146736960683  0.00401788117518021  1.0000
  C   C62       1.0  0.1574652882875753  0.8368431297882283  0.9995470018881888  1.0000
  C   C63       1.0  0.12081861475714109  0.7541295642752033  0.07735995672997834  1.0000
  C   C64       1.0  0.18709117236406317  0.7256073860806184  0.06945949515383633  1.0000
  C   C65       1.0  0.2564299364731752  0.7969583631956284  0.014504194735359004  1.0000
  C   C66       1.0  0.22778593336779102  0.8640688073294457  0.9927714032261007  1.0000
  C   C67       1.0  0.296623199429348  0.7831910087080661  0.9420335283722492  1.0000
  C   C68       1.0  0.36275236392680915  0.7545569680463873  0.9346884965764486  1.0000
  C   C69       1.0  0.3255551329592167  0.6723008807314913  0.013494424785392317  1.0000
  C   C70       1.0  0.25594184597242997  0.6446959973004384  0.019399906298382147  1.0000
  C   C71       1.0  0.22728898502996492  0.7117718196932615  0.9970580570738221  1.0000
  C   C72       1.0  0.37477168784310777  0.6230248306347478  0.011457021412596146  1.0000
  O   O1        1.0  0.9906692341143568  0.003706517775150098  0.009497020241255526  1.0000
  O   O2        1.0  0.8915686415395925  0.10363106243423201  0.9580809742211186  1.0000
  O   O3        1.0  0.8957840678244579  0.10678963125511133  0.05964272104147022  1.0000
  O   O4        1.0  0.5832194917418433  0.3998600906758086  0.06787785906816883  1.0000
  O   O5        1.0  0.5847387201540641  0.40144765504737734  0.9609942820159887  1.0000
  O   O6        1.0  0.8840138336873409  0.8515805523506617  0.20498841194623202  1.0000
  O   O7        1.0  0.8856112052810658  0.9550865208437219  0.20773908265435626  1.0000
  O   O8        1.0  0.593054795345644  0.6535463864182419  0.810358839750016  1.0000
  O   O9        1.0  0.5913868929548726  0.5482874920034604  0.8112405603326566  1.0000
  O   O10       1.0  0.1404877190467815  0.08667038590383672  0.9739004228904022  1.0000
  O   O11       1.0  0.03629307377057241  0.09547627387611611  0.0695794017780003  1.0000
  O   O12       1.0  0.3372222174682166  0.41438327467892583  0.0558216758145207  1.0000
  O   O13       1.0  0.4410485153510777  0.4097035042934678  0.9550057161888433  1.0000
  O   O14       1.0  0.9020324274536334  0.8555395207036727  0.04791546465167361  1.0000
  O   O15       1.0  0.8934347233237361  0.9601080552620688  0.9521804382514958  1.0000
  O   O16       1.0  0.5868074010444388  0.6535796695532027  0.9594127166676003  1.0000
  O   O17       1.0  0.5895266645600613  0.5496045714510558  0.062375588144128385  1.0000
  O   O18       1.0  0.141362788220242  0.11530233769423863  0.8146751696548904  1.0000
  O   O19       1.0  0.0382112772351206  0.1057835336715272  0.8121469194058404  1.0000
  O   O20       1.0  0.33834128234883565  0.3972676470710327  0.2092327415380454  1.0000
  O   O21       1.0  0.44261139018141193  0.4070384524874343  0.20952976797433814  1.0000
  O   O22       1.0  0.14027404620953376  0.9560773238711351  0.9451958111038082  1.0000
  O   O23       1.0  0.038021202818853836  0.8531399377343761  0.06524119657375843  1.0000
  O   O24       1.0  0.3416499087639552  0.5529319345258159  0.07175298785623609  1.0000
  O   O25       1.0  0.44464831887817974  0.6548365408668743  0.9507108421240745  1.0000
  O   O26       1.0  0.48935344674816145  0.5033365076902286  0.010595635239567924  1.0000
