data_image0
_chemical_formula_structural       H4Ru4C28N4O16F24
_chemical_formula_sum              "H4 Ru4 C28 N4 O16 F24"
_cell_length_a       8.932394611191562
_cell_length_b       13.149153715829605
_cell_length_c       13.149094456119714
_cell_angle_alpha    102.9728194462655
_cell_angle_beta     93.31975964723439
_cell_angle_gamma    93.31647049438845

_space_group_name_H-M_alt    "P 1"
_space_group_IT_number       1

loop_
  _space_group_symop_operation_xyz
  'x, y, z'

loop_
  _atom_site_type_symbol
  _atom_site_label
  _atom_site_symmetry_multiplicity
  _atom_site_fract_x
  _atom_site_fract_y
  _atom_site_fract_z
  _atom_site_occupancy
  H   H1        1.0  0.8947481783117581  0.8410959210047576  0.05154310455974801  1.0000
  H   H2        1.0  0.10524364523170959  0.9484565227670457  0.15890136091132231  1.0000
  H   H3        1.0  0.10526418332601385  0.15889481133686437  0.9484503921723686  1.0000
  H   H4        1.0  0.8947699233148824  0.0515349930575155  0.8410931163415044  1.0000
  Ru  Ru1       1.0  0.5498670243296928  0.573269404520154  0.9737771929463863  1.0000
  Ru  Ru2       1.0  0.450110012328345  0.026224468065464593  0.4267247866551642  1.0000
  Ru  Ru3       1.0  0.4501276505512095  0.4267339365422487  0.02622750438160889  1.0000
  Ru  Ru4       1.0  0.5498895747869739  0.9737827492917858  0.573275633688013  1.0000
  C   C1        1.0  0.7473990692503348  0.40658243691368773  0.9558928763721469  1.0000
  C   C2        1.0  0.25264897215556903  0.0440835382329112  0.5934025114771302  1.0000
  C   C3        1.0  0.25259853220609324  0.5934271149802227  0.04410417639591194  1.0000
  C   C4        1.0  0.7473459581113886  0.9559220882840475  0.40658976981857353  1.0000
  C   C5        1.0  0.8953474349003514  0.3522470723711066  0.9358145904128962  1.0000
  C   C6        1.0  0.10468544395744317  0.06417789466343747  0.647755567472359  1.0000
  C   C7        1.0  0.10464336227941119  0.6477515744227205  0.06418740021469196  1.0000
  C   C8        1.0  0.8953118223611439  0.9358183704990776  0.3522423523402622  1.0000
  C   C9        1.0  0.6226516846934157  0.5757437352137698  0.19014415179817226  1.0000
  C   C10       1.0  0.3774235056681761  0.809894948037254  0.4242691484596009  1.0000
  C   C11       1.0  0.37734910933072285  0.4242642656264052  0.8098572490657077  1.0000
  C   C12       1.0  0.6225759949615008  0.1901114576481788  0.5757250058111154  1.0000
  C   C13       1.0  0.6997765590132657  0.6196287328439352  0.3011652976361106  1.0000
  C   C14       1.0  0.3002814603118225  0.6988604938350349  0.3803898707397835  1.0000
  C   C15       1.0  0.30022579191528104  0.38037301007008734  0.6988363093976204  1.0000
  C   C16       1.0  0.6997244246589672  0.30114278056031907  0.6196068891372732  1.0000
  C   C17       1.0  0.694040322262559  0.7844017365936011  0.9000315290876983  1.0000
  C   C18       1.0  0.3059656355398345  0.09995684085713208  0.21559240600198856  1.0000
  C   C19       1.0  0.30596228514421847  0.21560233190106703  0.09996603646852259  1.0000
  C   C20       1.0  0.6940397361766201  0.90004177143345  0.784410152860609  1.0000
  C   C21       1.0  0.7568457901696205  0.8742687551966665  0.8742760520842979  1.0000
  C   C22       1.0  0.24315803137627512  0.12572592541504687  0.12572101769316651  1.0000
  C   C23       1.0  0.8793301522226641  0.9378435296836756  0.9378475594158573  1.0000
  C   C24       1.0  0.12067798231412036  0.0621495716854241  0.062148572905670094  1.0000
  C   C25       1.0  0.9411202942615374  0.9105825729198997  0.02905731311248866  1.0000
  C   C26       1.0  0.05888277030881986  0.9709419123750036  0.0894124082592923  1.0000
  C   C27       1.0  0.0588868048483633  0.08941131359249249  0.9709389509858113  1.0000
  C   C28       1.0  0.941125364327256  0.029051192641915698  0.9105844853853996  1.0000
  N   N1        1.0  0.6428845358130532  0.7096942996948031  0.9238296985104456  1.0000
  N   N2        1.0  0.357087977511469  0.07614881913584527  0.2902900279168392  1.0000
  N   N3        1.0  0.35710393403471125  0.29030359180497806  0.07617659714819068  1.0000
  N   N4        1.0  0.6429104028936122  0.92385762203412  0.7097109345519572  1.0000
  O   O1        1.0  0.741495091608634  0.49733211280621237  0.9385325979786074  1.0000
  O   O2        1.0  0.25848661070769197  0.06143307816611101  0.502672647461985  1.0000
  O   O3        1.0  0.2584998474772391  0.5026634007100766  0.061470388188226414  1.0000
  O   O4        1.0  0.7415106486784707  0.9385733693057787  0.49732903261958944  1.0000
  O   O5        1.0  0.6433940575252065  0.6313767334908036  0.12402603100618849  1.0000
  O   O6        1.0  0.3566466657283839  0.8759657746939592  0.36863299726950055  1.0000
  O   O7        1.0  0.35660596587275956  0.3686242468335194  0.8759783584122688  1.0000
  O   O8        1.0  0.6433579275358665  0.12403596655970259  0.6313694585081607  1.0000
  O   O9        1.0  0.6447964824059155  0.35487009795456703  0.9898770361187348  1.0000
  O   O10       1.0  0.3552062412824312  0.0101309250789257  0.6451258561967921  1.0000
  O   O11       1.0  0.3551899161909233  0.6451293492405056  0.010126477800788744  1.0000
  O   O12       1.0  0.6447967090882187  0.9898762806682058  0.35487393395437994  1.0000
  O   O13       1.0  0.547423828495681  0.4881074629857449  0.17421325243429917  1.0000
  O   O14       1.0  0.4526309045342813  0.8257944107147921  0.5118800488523904  1.0000
  O   O15       1.0  0.45256963947640116  0.5118950945937256  0.8257904643729932  1.0000
  O   O16       1.0  0.5473674765658244  0.17421205598996173  0.48812624287854334  1.0000
  F   F1        1.0  0.9946870026505433  0.4091822673282551  0.8937240302617656  1.0000
  F   F2        1.0  0.005338599632395399  0.10627491977534478  0.5908281134357481  1.0000
  F   F3        1.0  0.005314749630208796  0.5908140419352748  0.1062854842398266  1.0000
  F   F4        1.0  0.9946511688543321  0.8937143225567538  0.4091687260533235  1.0000
  F   F5        1.0  0.8677386474808841  0.256693590443021  0.8695512803177439  1.0000
  F   F6        1.0  0.1323024742307766  0.1304336296316251  0.7433098317510343  1.0000
  F   F7        1.0  0.1322455938758367  0.7433066190146533  0.1304469924060214  1.0000
  F   F8        1.0  0.8676883223532527  0.8695649952752472  0.2566875909375738  1.0000
  F   F9        1.0  0.9596812270803381  0.33815894702168947  0.02755040874049537  1.0000
  F   F10       1.0  0.04035496896086235  0.9724444371475652  0.6618398211140503  1.0000
  F   F11       1.0  0.04029913776671629  0.6618366119413253  0.9724542931608086  1.0000
  F   F12       1.0  0.9596554941986852  0.02754946693732309  0.33816190337753943  1.0000
  F   F13       1.0  0.6564986749567865  0.5630473645348032  0.3693109650033363  1.0000
  F   F14       1.0  0.34360754185432535  0.6307122663805274  0.43695434738173594  1.0000
  F   F15       1.0  0.34351092376137154  0.4369488750804819  0.6306881969466859  1.0000
  F   F16       1.0  0.6563994642346671  0.36929100536072906  0.5630424562057074  1.0000
  F   F17       1.0  0.6648217727716741  0.7204351257448991  0.3380642575786013  1.0000
  F   F18       1.0  0.3351614324344538  0.6619713511518485  0.27957018834376873  1.0000
  F   F19       1.0  0.3351769587211777  0.2795643141420783  0.6619443050941386  1.0000
  F   F20       1.0  0.6648443668450098  0.3380311407543032  0.720426396046136  1.0000
  F   F21       1.0  0.8512594950729876  0.6200637665072007  0.2981082904248495  1.0000
  F   F22       1.0  0.14880516233029786  0.7019320811185279  0.3800127318726112  1.0000
  F   F23       1.0  0.14874207690690608  0.3799410871307671  0.701889406908137  1.0000
  F   F24       1.0  0.8512010651079152  0.2980743122901544  0.6199824459835882  1.0000
