data_image0
_chemical_formula_structural       U8H32C32O44
_chemical_formula_sum              "U8 H32 C32 O44"
_cell_length_a       6.6631380812321055
_cell_length_b       14.74382365688166
_cell_length_c       15.028591925147394
_cell_angle_alpha    101.35169512179496
_cell_angle_beta     89.9991302370722
_cell_angle_gamma    89.99982131789055

_space_group_name_H-M_alt    "P 1"
_space_group_IT_number       1

loop_
  _space_group_symop_operation_xyz
  'x, y, z'

loop_
  _atom_site_type_symbol
  _atom_site_label
  _atom_site_symmetry_multiplicity
  _atom_site_fract_x
  _atom_site_fract_y
  _atom_site_fract_z
  _atom_site_occupancy
  U   U1        1.0  0.26508797796016387  0.9475025198394745  0.6174704279959471  1.0000
  U   U2        1.0  0.26509889394730385  0.05249806742451569  0.8825316624906987  1.0000
  U   U3        1.0  0.7349053988789223  0.05249616827682499  0.3825301858591813  1.0000
  U   U4        1.0  0.7349094909070502  0.9474998580154119  0.11746482361040482  1.0000
  U   U5        1.0  0.30729030999761875  0.7745911403912658  0.836180574027118  1.0000
  U   U6        1.0  0.3072847275350911  0.22540934102109839  0.6638218702641723  1.0000
  U   U7        1.0  0.6927075692291426  0.22540685603675567  0.16381991762440148  1.0000
  U   U8        1.0  0.6927161533270836  0.7745899796221991  0.33617552782379073  1.0000
  H   H1        1.0  0.5100828423099203  0.911576729987793  0.763851141342691  1.0000
  H   H2        1.0  0.5100743649817262  0.0884272886106743  0.7361478576524119  1.0000
  H   H3        1.0  0.4899180385055433  0.0884212664360433  0.23614935029767276  1.0000
  H   H4        1.0  0.48992951745334073  0.9115727355393448  0.2638503301964832  1.0000
  H   H5        1.0  0.29279089824038357  0.9200902436559486  0.9977502241411781  1.0000
  H   H6        1.0  0.29279329479980026  0.07991026635566809  0.5022516603615654  1.0000
  H   H7        1.0  0.7072069810107069  0.07990910064935257  0.002248509128399699  1.0000
  H   H8        1.0  0.7072195923948075  0.9200890779287009  0.4977470728522063  1.0000
  H   H9        1.0  0.015603370605624903  0.902969200820557  0.4510840102699872  1.0000
  H   H10       1.0  0.015583070609977804  0.09702942871084728  0.048911129957907896  1.0000
  H   H11       1.0  0.9844125181981129  0.09702874826671597  0.5489138109736658  1.0000
  H   H12       1.0  0.9844193111202487  0.9029705008100065  0.9510817172147625  1.0000
  H   H13       1.0  0.24035399901686821  0.8589106516337919  0.42072060696555974  1.0000
  H   H14       1.0  0.24033986100214128  0.1410853351514731  0.07927583322408789  1.0000
  H   H15       1.0  0.7596558866298793  0.14108590226894782  0.5792763023414551  1.0000
  H   H16       1.0  0.7596580182759355  0.8589132938140055  0.9207214426881689  1.0000
  H   H17       1.0  0.21725129833300372  0.6787447871243161  0.4293242542000256  1.0000
  H   H18       1.0  0.21723760575702045  0.3212652160235052  0.0706814773831468  1.0000
  H   H19       1.0  0.7827510833695186  0.3212592924885342  0.5706693260938493  1.0000
  H   H20       1.0  0.7827602734242803  0.678736262472327  0.9293209603731609  1.0000
  H   H21       1.0  0.1735459090032663  0.5245240728929091  0.3292784801658967  1.0000
  H   H22       1.0  0.1735442360250375  0.47548257006594236  0.17072563028735738  1.0000
  H   H23       1.0  0.8264564727019207  0.47547794350285233  0.6707154011525913  1.0000
  H   H24       1.0  0.826455143972446  0.5245106437305154  0.8292773439766492  1.0000
  H   H25       1.0  0.20326710859651342  0.38075157241522123  0.3932201673001073  1.0000
  H   H26       1.0  0.20327100146015914  0.6192591732213016  0.10678645798461162  1.0000
  H   H27       1.0  0.7967127611413576  0.6192532462266556  0.606776205605243  1.0000
  H   H28       1.0  0.7967238759356691  0.3807418265170455  0.8932278741300548  1.0000
  H   H29       1.0  0.32774098286986236  0.5467477538976624  0.65635516516528  1.0000
  H   H30       1.0  0.327738204743767  0.4532547218614554  0.8436461584222241  1.0000
  H   H31       1.0  0.672255395712604  0.4532493970746573  0.3436365256970149  1.0000
  H   H32       1.0  0.6722716807040926  0.5467516575361699  0.15636047252363738  1.0000
  C   C1        1.0  0.2772248050988041  0.37315839939505924  0.5716349215549668  1.0000
  C   C2        1.0  0.2772314123483568  0.6268468893388076  0.9283619257319841  1.0000
  C   C3        1.0  0.7227700727109795  0.626842162673725  0.42835470990633695  1.0000
  C   C4        1.0  0.7227649659062862  0.3731561026410973  0.0716480998411271  1.0000
  C   C5        1.0  0.27681753998911063  0.6223115937509077  0.5489689475371902  1.0000
  C   C6        1.0  0.27682674755681097  0.3776938617199121  0.9510372489619311  1.0000
  C   C7        1.0  0.7231818400984196  0.37768976645376273  0.45102681436127756  1.0000
  C   C8        1.0  0.7231996466250123  0.622309774584508  0.04897022834553159  1.0000
  C   C9        1.0  0.23085277249660413  0.6159851958157958  0.4568124011102981  1.0000
  C   C10       1.0  0.23084853472978045  0.384022085458284  0.04319741363809024  1.0000
  C   C11       1.0  0.7691406043298841  0.3840203736337813  0.5431874318578237  1.0000
  C   C12       1.0  0.7691598499054281  0.6159753848777854  0.9568123019806689  1.0000
  C   C13       1.0  0.206617699397988  0.5291805554432899  0.4010095005442621  1.0000
  C   C14       1.0  0.2066139534804918  0.4708336037822676  0.0989957080305075  1.0000
  C   C15       1.0  0.7933726759134885  0.4708256228901248  0.5989857815253001  1.0000
  C   C16       1.0  0.7933809240067903  0.5291686728599175  0.9010128601908604  1.0000
  C   C17       1.0  0.2226759063047439  0.4487613019533185  0.4364891429096645  1.0000
  C   C18       1.0  0.22267724809974968  0.5512473145090482  0.06351697148844689  1.0000
  C   C19       1.0  0.7773129681972862  0.551242145140904  0.5635076531736941  1.0000
  C   C20       1.0  0.7773236324892923  0.44875298171001526  0.9364965708318065  1.0000
  C   C21       1.0  0.2641788032673631  0.45549548220060393  0.5290890868660724  1.0000
  C   C22       1.0  0.2641846034466369  0.5445134077902337  0.970914476643166  1.0000
  C   C23       1.0  0.7358100712998382  0.5445065223850846  0.4709041269174179  1.0000
  C   C24       1.0  0.735819278682989  0.4554924337095514  0.02910071074609282  1.0000
  C   C25       1.0  0.2936381444736186  0.5420785753383086  0.5847636561627354  1.0000
  C   C26       1.0  0.29363894455850936  0.45791922472907487  0.915241071223974  1.0000
  C   C27       1.0  0.7063582340390582  0.4579207098245418  0.4152317391862893  1.0000
  C   C28       1.0  0.7063724416700198  0.5420775539208122  0.08476852219675378  1.0000
  C   C29       1.0  0.3095605078621945  0.7126875112335966  0.6104691092952945  1.0000
  C   C30       1.0  0.3095664388785765  0.28731234312250814  0.8895372013951215  1.0000
  C   C31       1.0  0.6904253650340735  0.2873118330884451  0.3895296240189267  1.0000
  C   C32       1.0  0.690443446650967  0.7126884555034891  0.1104657817149075  1.0000
  O   O1        1.0  0.0065920515480613  0.9551359329400311  0.6521883979111464  1.0000
  O   O2        1.0  0.0065891754934171  0.044867462170806484  0.847816649103805  1.0000
  O   O3        1.0  0.9934103300597954  0.044860691946617175  0.34781251693512866  1.0000
  O   O4        1.0  0.9934011997568036  0.9551429017413253  0.15218136884264055  1.0000
  O   O5        1.0  0.5287375849596928  0.9413146027393677  0.5852584958658297  1.0000
  O   O6        1.0  0.5287398754141182  0.05868257711343719  0.9147464859301591  1.0000
  O   O7        1.0  0.47126629739988607  0.058671765204259395  0.4147472620241145  1.0000
  O   O8        1.0  0.47126400703941584  0.9413146803085793  0.08525121317126863  1.0000
  O   O9        1.0  0.045334721162518604  0.7669857167599828  0.8042484652313033  1.0000
  O   O10       1.0  0.04532351381721612  0.23301176478717164  0.695739961745694  1.0000
  O   O11       1.0  0.9546676605250682  0.23300395581994587  0.195749224990621  1.0000
  O   O12       1.0  0.9546758663440118  0.7669902042971515  0.3042512492430589  1.0000
  O   O13       1.0  0.572948356989457  0.7903140842022794  0.866391529706078  1.0000
  O   O14       1.0  0.5729454009965239  0.2096878496134238  0.6336159813952733  1.0000
  O   O15       1.0  0.42704802149818744  0.2096872878354787  0.13360489978877868  1.0000
  O   O16       1.0  0.42705998210787766  0.7903109331173893  0.36638997309702137  1.0000
  O   O17       1.0  0.36323459186751  0.9120646875480461  0.7652675100379509  1.0000
  O   O18       1.0  0.3632276662079336  0.0879356496648569  0.734735185808226  1.0000
  O   O19       1.0  0.6367662890335454  0.08793047117434578  0.234728487343581  1.0000
  O   O20       1.0  0.636776216175811  0.9120637419476976  0.26526621777993137  1.0000
  O   O21       1.0  0.22130758271378437  0.9114513212585604  0.9385585294864496  1.0000
  O   O22       1.0  0.22131094030036286  0.08854804024349511  0.5614456449876002  1.0000
  O   O23       1.0  0.7786947989361652  0.0885473195295532  0.06143941399429308  1.0000
  O   O24       1.0  0.7787034476550405  0.9114513395254987  0.43855509097627277  1.0000
  O   O25       1.0  0.16440088433486724  0.9051484028299368  0.46516169164724624  1.0000
  O   O26       1.0  0.16438407213893677  0.09484916732961318  0.0348348901738973  1.0000
  O   O27       1.0  0.835613503696898  0.09484952260162059  0.5348347944315321  1.0000
  O   O28       1.0  0.8356153079906863  0.9051542087765156  0.9651579003590384  1.0000
  O   O29       1.0  0.38927089899868156  0.7130645814771697  0.68822007836809  1.0000
  O   O30       1.0  0.3892674223571789  0.2869349441172702  0.8117796313158578  1.0000
  O   O31       1.0  0.6107059691222361  0.28693614622142155  0.31177889935334946  1.0000
  O   O32       1.0  0.6107259545398022  0.7130650563895812  0.18821722140165054  1.0000
  O   O33       1.0  0.25815694117062554  0.7868383695841811  0.5854938341168178  1.0000
  O   O34       1.0  0.2581610900388256  0.21316713793864037  0.9145125011725523  1.0000
  O   O35       1.0  0.7418289316624256  0.213163788781486  0.4145080582857758  1.0000
  O   O36       1.0  0.7418427923468729  0.7868336252090061  0.08548847920411622  1.0000
  O   O37       1.0  0.2516403206377902  0.2906412112817521  0.5266909699549558  1.0000
  O   O38       1.0  0.25163130542360085  0.7093641488297775  0.9733060676516981  1.0000
  O   O39       1.0  0.7483605603224106  0.7093600661184781  0.47330011884134376  1.0000
  O   O40       1.0  0.7483605704341373  0.2906409182023992  0.026704324498751895  1.0000
  O   O41       1.0  0.31453307532113683  0.38508693222080825  0.6574759797095735  1.0000
  O   O42       1.0  0.3145576452773895  0.6149099995657821  0.8425217941623514  1.0000
  O   O43       1.0  0.6854557993099918  0.614908823569067  0.3425147992216607  1.0000
  O   O44       1.0  0.6854447361804077  0.3850874707786574  0.1574879214787259  1.0000
