data_image0
_chemical_formula_structural       Nd2H32C32N20Cl2O12
_chemical_formula_sum              "Nd2 H32 C32 N20 Cl2 O12"
_cell_length_a       8.735725227331532
_cell_length_b       11.12015054604137
_cell_length_c       13.046380455524027
_cell_angle_alpha    115.20444443880751
_cell_angle_beta     105.56180707214384
_cell_angle_gamma    89.99218096524348

_space_group_name_H-M_alt    "P 1"
_space_group_IT_number       1

loop_
  _space_group_symop_operation_xyz
  'x, y, z'

loop_
  _atom_site_type_symbol
  _atom_site_label
  _atom_site_symmetry_multiplicity
  _atom_site_fract_x
  _atom_site_fract_y
  _atom_site_fract_z
  _atom_site_occupancy
  Nd  Nd1       1.0  0.7500443328520277  0.44651598216041316  6.569819095153858e-05  1.0000
  Nd  Nd2       1.0  0.2499519951788046  0.5534821208937899  0.9999335397996771  1.0000
  H   H1        1.0  0.4814690155106831  0.2758668483870892  0.9983144824240566  1.0000
  H   H2        1.0  0.0186704630411896  0.2775170214461937  0.0017117884264691904  1.0000
  H   H3        1.0  0.518529843606018  0.724132246643528  0.001686345734576513  1.0000
  H   H4        1.0  0.9813276914006082  0.722485089307753  0.9982892526725136  1.0000
  H   H5        1.0  0.6456598869209317  0.2345113208264138  0.06317157368740568  1.0000
  H   H6        1.0  0.854483442037484  0.17143761837412094  0.9369739191285333  1.0000
  H   H7        1.0  0.354340324106623  0.7654887803166375  0.9368291027771035  1.0000
  H   H8        1.0  0.14551455715143652  0.8285634957945973  0.06302596133820514  1.0000
  H   H9        1.0  0.5313168842256388  0.705964108597513  0.34655155293008727  1.0000
  H   H10       1.0  0.968598756022516  0.35916232681023524  0.6532925404175316  1.0000
  H   H11       1.0  0.46868587100001247  0.29403700226937707  0.6534484230610572  1.0000
  H   H12       1.0  0.03140027583002342  0.6408377884688433  0.34670639418485644  1.0000
  H   H13       1.0  0.4730855205318962  0.5354658042465985  0.307509812923989  1.0000
  H   H14       1.0  0.0269381564608153  0.22785425142448193  0.6925704712461993  1.0000
  H   H15       1.0  0.5269127979042665  0.46453731492418643  0.6924908617129901  1.0000
  H   H16       1.0  0.9730630916010984  0.7721448567447382  0.3074284958068319  1.0000
  H   H17       1.0  0.004692221510765628  0.9361069560455846  0.6179253383454153  1.0000
  H   H18       1.0  0.49535103283839993  0.31797995635132986  0.3820967382842112  1.0000
  H   H19       1.0  0.9953068147125069  0.06389316514930243  0.38207283270985226  1.0000
  H   H20       1.0  0.5046491694476886  0.6820201329601119  0.6179054652745394  1.0000
  H   H21       1.0  0.2419355713890496  0.08715993386830691  0.7878926951692049  1.0000
  H   H22       1.0  0.2581420627328725  0.29929170359855556  0.21212843887852265  1.0000
  H   H23       1.0  0.7580656766728638  0.9128391743009132  0.21210627188382603  1.0000
  H   H24       1.0  0.741856800754569  0.7007073973478696  0.7878716257329897  1.0000
  H   H25       1.0  0.39853653099996933  0.0013031629860051988  0.9263716447307856  1.0000
  H   H26       1.0  0.1015763251163833  0.0751015740106027  0.07357583671536357  1.0000
  H   H27       1.0  0.6014621859760751  0.998694953206801  0.07362573215424109  1.0000
  H   H28       1.0  0.8984237306582941  0.9248975305472131  0.9264236791169083  1.0000
  H   H29       1.0  0.11645972851958672  0.6312726390659336  0.7386400301581302  1.0000
  H   H30       1.0  0.38337132725257567  0.8925508821016591  0.2613680466635131  1.0000
  H   H31       1.0  0.8835391393385951  0.3687264677963  0.26135927090626143  1.0000
  H   H32       1.0  0.6166287197806286  0.10744821062454689  0.738632996263007  1.0000
  C   C1        1.0  0.6273982202122286  0.564479532600828  0.21358004232926225  1.0000
  C   C2        1.0  0.8725782588286536  0.3508633735181946  0.7863662656897004  1.0000
  C   C3        1.0  0.37260215043895073  0.43552157104326045  0.7864210312203638  1.0000
  C   C4        1.0  0.1274243367733732  0.6491367348476516  0.2136333132163343  1.0000
  C   C5        1.0  0.5732374113233618  0.6076453915335093  0.3245529922679751  1.0000
  C   C6        1.0  0.9267273729082889  0.2829168097392909  0.6754095329457143  1.0000
  C   C7        1.0  0.42676312332216787  0.39235672052742393  0.6754477148196472  1.0000
  C   C8        1.0  0.0732750586993873  0.7170822902097173  0.32459041242232434  1.0000
  C   C9        1.0  0.9049077593274079  0.6836543939546899  0.5698458529730317  1.0000
  C   C10       1.0  0.595038701714131  0.11351710325445201  0.43020199128896747  1.0000
  C   C11       1.0  0.09509245607088702  0.3163457131041697  0.4301540599443569  1.0000
  C   C12       1.0  0.40496031265545446  0.8864829883613938  0.569799997501903  1.0000
  C   C13       1.0  0.0436390917489931  0.7717539099223314  0.664947747229938  1.0000
  C   C14       1.0  0.4563288394055078  0.10663572804328679  0.3350829525869726  1.0000
  C   C15       1.0  0.9563609683964246  0.22824520055129943  0.33505100505521307  1.0000
  C   C16       1.0  0.5436715225041908  0.8933653637691845  0.6649196480568944  1.0000
  C   C17       1.0  0.0798536436176462  0.9019239937792988  0.6791878226380561  1.0000
  C   C18       1.0  0.42012683253639693  0.222609966254275  0.3208644820810775  1.0000
  C   C19       1.0  0.9201464165277714  0.0980751166943321  0.3208109296470951  1.0000
  C   C20       1.0  0.5798721905746689  0.7773901371931801  0.6791359796155517  1.0000
  C   C21       1.0  0.20958940155457387  0.9852927344226712  0.7729163101439622  1.0000
  C   C22       1.0  0.29040767584636035  0.21236837872824316  0.22710390123330623  1.0000
  C   C23       1.0  0.7904115316308381  0.0147043746602833  0.22708109919171454  1.0000
  C   C24       1.0  0.70959356784482  0.7876307235251688  0.7728958293668453  1.0000
  C   C25       1.0  0.297766101018894  0.9374584087146616  0.8505916166380982  1.0000
  C   C26       1.0  0.20226959726692684  0.0869500701979575  0.14939052280857368  1.0000
  C   C27       1.0  0.7022303866355556  0.0625406968405855  0.14940801843764712  1.0000
  C   C28       1.0  0.7977306093898946  0.9130500250292858  0.8506109172030561  1.0000
  C   C29       1.0  0.13978146807628633  0.7314613126435958  0.7463192214431585  1.0000
  C   C30       1.0  0.36012300215595877  0.9850946382473893  0.25371023931180753  1.0000
  C   C31       1.0  0.8602187516927486  0.268538800331072  0.25367992792710936  1.0000
  C   C32       1.0  0.6398761805787246  0.0149064677011097  0.7462906194699384  1.0000
  N   N1        1.0  0.8158094207089023  0.7181527305625223  0.48780619299542843  1.0000
  N   N2        1.0  0.6840444396553452  0.23005402634836264  0.5121832153516832  1.0000
  N   N3        1.0  0.18419095431301  0.281848378997374  0.512194117007084  1.0000
  N   N4        1.0  0.31595679529435483  0.7699450640734397  0.4878180423427095  1.0000
  N   N5        1.0  0.6998722372860868  0.6156241923943141  0.42579908339100564  1.0000
  N   N6        1.0  0.80011299483067  0.189609903146625  0.574222338014529  1.0000
  N   N7        1.0  0.3001281377358325  0.3843769171655822  0.5742012266115069  1.0000
  N   N8        1.0  0.1998858642860385  0.8103891918839923  0.4257784901441042  1.0000
  N   N9        1.0  0.7136092017374978  0.520350355651658  0.46379157636678053  1.0000
  N   N10       1.0  0.7865439253781477  0.05638696697064918  0.5363068887991105  1.0000
  N   N11       1.0  0.2863899853679186  0.47965075621264947  0.5362085188678449  1.0000
  N   N12       1.0  0.21345747793664324  0.9436131377837995  0.4636932388861652  1.0000
  N   N13       1.0  0.8436097934643244  0.5625417723454903  0.555604486288999  1.0000
  N   N14       1.0  0.6565196457255951  0.0067213205264450996  0.44451229713104806  1.0000
  N   N15       1.0  0.15639042630471078  0.4374583406291778  0.44439466308126896  1.0000
  N   N16       1.0  0.3434804013076089  0.9932777721997607  0.5554887457954647  1.0000
  N   N17       1.0  0.26375348730571363  0.8130400920354572  0.8374482388905375  1.0000
  N   N18       1.0  0.23619207683946541  0.9756353459640155  0.16254612558075388  1.0000
  N   N19       1.0  0.7362455445468188  0.1869600232436213  0.16255069571185027  1.0000
  N   N20       1.0  0.7638081341880963  0.024364755179036007  0.8374545508837555  1.0000
  Cl  Cl1       1.0  0.7499808742024143  0.6975857004818381  7.96087986293668e-06  1.0000
  Cl  Cl2       1.0  0.2500156134520353  0.30241340507340186  0.9999916741958826  1.0000
  O   O1        1.0  0.5297646130594842  0.5639246964008039  0.12106893459453973  1.0000
  O   O2        1.0  0.9702474121018342  0.4428399030051653  0.87878042903111  1.0000
  O   O3        1.0  0.47023559796807757  0.4360754047422475  0.8789317418699694  1.0000
  O   O4        1.0  0.02975415957804729  0.557161216081937  0.121218568645034  1.0000
  O   O5        1.0  0.7654146298030896  0.5295688188199534  0.21528686380518983  1.0000
  O   O6        1.0  0.73460371993896  0.314333956604507  0.7847497967793088  1.0000
  O   O7        1.0  0.23458558996594556  0.47043129415471446  0.784712285565078  1.0000
  O   O8        1.0  0.26539903528669134  0.6856671542623829  0.2152501792118429  1.0000
  O   O9        1.0  0.5945632065441019  0.2667037388116711  0.9994731057049575  1.0000
  O   O10       1.0  0.9055953914990129  0.26724663068858234  0.000617248246811693  1.0000
  O   O11       1.0  0.4054359761905746  0.7332973671368279  0.0005277530767884775  1.0000
  O   O12       1.0  0.09440143288562552  0.7327545035319574  0.9993801268106848  1.0000
