data_image0
_chemical_formula_structural       Mn2H12C20N16O4
_chemical_formula_sum              "Mn2 H12 C20 N16 O4"
_cell_length_a       7.522947735361929
_cell_length_b       7.524423097734653
_cell_length_c       12.04087342017663
_cell_angle_alpha    84.70580398080146
_cell_angle_beta     85.87518014750745
_cell_angle_gamma    62.180452590808954

_space_group_name_H-M_alt    "P 1"
_space_group_IT_number       1

loop_
  _space_group_symop_operation_xyz
  'x, y, z'

loop_
  _atom_site_type_symbol
  _atom_site_label
  _atom_site_symmetry_multiplicity
  _atom_site_fract_x
  _atom_site_fract_y
  _atom_site_fract_z
  _atom_site_occupancy
  Mn  Mn1       1.0  0.08097270558915416  0.91669544098432  0.2501382549811524  1.0000
  Mn  Mn2       1.0  0.9263262224604532  0.0785745125888013  0.7488967984494436  1.0000
  H   H1        1.0  0.679905259676481  0.19562343677502272  0.2770220680325224  1.0000
  H   H2        1.0  0.8021488444374113  0.32230371176474654  0.22196185441185176  1.0000
  H   H3        1.0  0.30994659060251445  0.8173728678692883  0.7283927063070549  1.0000
  H   H4        1.0  0.18118992109668847  0.6884901867438842  0.7809927067734748  1.0000
  H   H5        1.0  0.46080208285295027  0.5995795855687761  0.3088140445122463  1.0000
  H   H6        1.0  0.394264206436226  0.5368815194436962  0.19840419761280972  1.0000
  H   H7        1.0  0.5626828584561351  0.37592198194874976  0.6878505294914703  1.0000
  H   H8        1.0  0.6281621493468208  0.4379002624485083  0.8012278553167178  1.0000
  H   H9        1.0  0.9637060608642684  0.5594255235983  0.31275092081364875  1.0000
  H   H10       1.0  0.4461022019651608  0.028051833157768203  0.18780220864791633  1.0000
  H   H11       1.0  0.006494846534600517  0.45690162631483133  0.6745544773981037  1.0000
  H   H12       1.0  0.5445946094973309  0.9996559767945216  0.8217006316640295  1.0000
  C   C1        1.0  0.8434340695182315  0.7921349626329998  0.0716612940536194  1.0000
  C   C2        1.0  0.21688842532675065  0.1442804972534475  0.425189676168479  1.0000
  C   C3        1.0  0.14837602301824399  0.2109844677724837  0.9104031146783812  1.0000
  C   C4        1.0  0.7866884731496951  0.8560281084135896  0.5902069374603373  1.0000
  C   C5        1.0  0.7754037051988969  0.6447548376724656  0.07286934291861512  1.0000
  C   C6        1.0  0.3613401291703511  0.21569315532183  0.4241372671304831  1.0000
  C   C7        1.0  0.20516091555812468  0.3649344493682208  0.9123279382511028  1.0000
  C   C8        1.0  0.6348118755942237  0.7960437522278594  0.5896134493112585  1.0000
  C   C9        1.0  0.9088638950334554  0.6149674749765239  0.2292434648036661  1.0000
  C   C10       1.0  0.3914257528902283  0.08197997521077131  0.2701498666446938  1.0000
  C   C11       1.0  0.06700328030971993  0.3985423149122981  0.7565294621919066  1.0000
  C   C12       1.0  0.6021134857297809  0.9385083132363619  0.7412314120459699  1.0000
  C   C13       1.0  0.8459548030636626  0.9194069253922591  0.979548138037508  1.0000
  C   C14       1.0  0.09579489385684066  0.1379875451141359  0.5178800920243987  1.0000
  C   C15       1.0  0.16801386660394257  0.07169622175920409  0.9999064319727395  1.0000
  C   C16       1.0  0.9229404521676015  0.835785424911741  0.5011016130742476  1.0000
  C   C17       1.0  0.6864302364765961  0.6036198435179685  0.9869064351399288  1.0000
  C   C18       1.0  0.3933885487246371  0.30854442055807146  0.5107440739867926  1.0000
  C   C19       1.0  0.2977318776162361  0.39706118440577154  0.00048023859145729933  1.0000
  C   C20       1.0  0.6060156043490252  0.6971551504326143  0.5041752140615543  1.0000
  N   N1        1.0  0.9273050505907536  0.7701011935185207  0.1734105515421334  1.0000
  N   N2        1.0  0.23821680309254128  0.06092504099719778  0.3248169502663459  1.0000
  N   N3        1.0  0.06101578179367806  0.2345640895288099  0.8097185688660957  1.0000
  N   N4        1.0  0.7646515583484259  0.9458097824840906  0.688595394198039  1.0000
  N   N5        1.0  0.8190651215727484  0.5344674339913666  0.17335023651081372  1.0000
  N   N6        1.0  0.47075523311332984  0.17350999443299736  0.3255223155335969  1.0000
  N   N7        1.0  0.15195733387388094  0.48174305513466453  0.8144637609884242  1.0000
  N   N8        1.0  0.5191280067013011  0.8508592411987835  0.6853701257146553  1.0000
  N   N9        1.0  0.8553603857368444  0.005061762902720093  0.8940475809649159  1.0000
  N   N10       1.0  0.01708360654399139  0.12700206173921913  0.6045201002241356  1.0000
  N   N11       1.0  0.18994559548469428  0.9689323332369356  0.0821233060872189  1.0000
  N   N12       1.0  0.02308773083522908  0.8124528025248025  0.41940657518443913  1.0000
  N   N13       1.0  0.6137938591232553  0.5690889562095264  0.914741205157597  1.0000
  N   N14       1.0  0.41268211747347294  0.3836640100023274  0.5865256037018725  1.0000
  N   N15       1.0  0.3746003343887309  0.4158281114177456  0.07619159267259332  1.0000
  N   N16       1.0  0.5914764592329785  0.6157813257863795  0.43001160677683714  1.0000
  O   O1        1.0  0.8134348349822531  0.18689322032331296  0.2497074299132862  1.0000
  O   O2        1.0  0.18191937782716375  0.8231647688247251  0.7641739993075802  1.0000
  O   O3        1.0  0.3534486022325111  0.6346230210469843  0.2560508045378782  1.0000
  O   O4        1.0  0.6759896793345416  0.3620464539984456  0.7324370627584358  1.0000
