data_image0
_chemical_formula_structural       Cd4H32C40S8N24
_chemical_formula_sum              "Cd4 H32 C40 S8 N24"
_cell_length_a       7.793663241061935
_cell_length_b       11.581794757083903
_cell_length_c       14.829235432015425
_cell_angle_alpha    89.9999059465908
_cell_angle_beta     89.9998628367132
_cell_angle_gamma    90.0004306429339

_space_group_name_H-M_alt    "P 1"
_space_group_IT_number       1

loop_
  _space_group_symop_operation_xyz
  'x, y, z'

loop_
  _atom_site_type_symbol
  _atom_site_label
  _atom_site_symmetry_multiplicity
  _atom_site_fract_x
  _atom_site_fract_y
  _atom_site_fract_z
  _atom_site_occupancy
  Cd  Cd1       1.0  0.6956788349398765  0.22777571210375674  0.7499989694663115  1.0000
  Cd  Cd2       1.0  0.19568298689095087  0.2722292047977107  0.24999977737316936  1.0000
  Cd  Cd3       1.0  0.8043160046312677  0.7277770797175196  0.7500006007952964  1.0000
  Cd  Cd4       1.0  0.3043240058616448  0.7722297089986865  0.250000060013079  1.0000
  H   H1        1.0  0.6051718280439359  0.06684653346951559  0.4218358870384763  1.0000
  H   H2        1.0  0.10517113824589329  0.43314928622908877  0.5781609512889219  1.0000
  H   H3        1.0  0.8948311977901966  0.5668521761506113  0.07816358308064511  1.0000
  H   H4        1.0  0.39483664982144256  0.9331490315841934  0.9218376375564221  1.0000
  H   H5        1.0  0.39482588033197885  0.9331493899560858  0.5781624681066972  1.0000
  H   H6        1.0  0.894827853236471  0.5668492274712095  0.4218380781973679  1.0000
  H   H7        1.0  0.10516651057827178  0.4331446106934038  0.9218401668127711  1.0000
  H   H8        1.0  0.6051713233278803  0.06685207240978029  0.07816274060971301  1.0000
  H   H9        1.0  0.5932300213857503  0.2542976779437609  0.3360606163307481  1.0000
  H   H10       1.0  0.0932358547348642  0.2456989441127533  0.6639355627572243  1.0000
  H   H11       1.0  0.906772508252928  0.7543040662302903  0.1639392859622717  1.0000
  H   H12       1.0  0.4067724295218084  0.7456963391437841  0.8360652912886195  1.0000
  H   H13       1.0  0.4067702531899187  0.7456991089159573  0.6639343670942495  1.0000
  H   H14       1.0  0.9067746845840786  0.7542978427704056  0.3360621180356774  1.0000
  H   H15       1.0  0.0932290493936847  0.2456935840440906  0.836067835646148  1.0000
  H   H16       1.0  0.5932291281513214  0.25430390140833486  0.163936435569326  1.0000
  H   H17       1.0  0.6457902074659214  0.43861457761187234  0.42338323975926073  1.0000
  H   H18       1.0  0.14579311786559399  0.0613805864374868  0.5766148958629673  1.0000
  H   H19       1.0  0.8542092251839931  0.9386226060153433  0.07661709875787183  1.0000
  H   H20       1.0  0.3542067155449756  0.5613818476056593  0.923388219338783  1.0000
  H   H21       1.0  0.354208783997187  0.561379618970335  0.576613766699019  1.0000
  H   H22       1.0  0.8542110060103452  0.9386205175501627  0.42338211058760333  1.0000
  H   H23       1.0  0.14579361556241108  0.06137504426513368  0.923387325475332  1.0000
  H   H24       1.0  0.6457897097742488  0.43862271005211534  0.07661485620682382  1.0000
  H   H25       1.0  0.7032825770496344  0.4184268321054318  0.5912954470649296  1.0000
  H   H26       1.0  0.20327877241208372  0.08157207970341321  0.40870126713238625  1.0000
  H   H27       1.0  0.7967207833234297  0.9184295566895528  0.9087038768868043  1.0000
  H   H28       1.0  0.2967158501877663  0.5815711491714879  0.09130016526118111  1.0000
  H   H29       1.0  0.2967189806261814  0.5815716816042381  0.40870088504534163  1.0000
  H   H30       1.0  0.7967163697907862  0.9184264339877332  0.5912970880127375  1.0000
  H   H31       1.0  0.2032833405246492  0.08156982044157249  0.09130122168807732  1.0000
  H   H32       1.0  0.7032780089280948  0.41842995478498324  0.9087015616010775  1.0000
  C   C1        1.0  0.5177383685097752  0.504958549181879  0.7500009260152681  1.0000
  C   C2        1.0  0.0177359993323094  0.9950450467877372  0.24999942303715272  1.0000
  C   C3        1.0  0.982254010521416  0.0049586474331136  0.7500002807950709  1.0000
  C   C4        1.0  0.4822567737329493  0.4950477353242065  0.24999877781203855  1.0000
  C   C5        1.0  0.5342209769615778  0.9673955548977843  0.7499999425318296  1.0000
  C   C6        1.0  0.03421863354384409  0.532605535114861  0.24999566526314254  1.0000
  C   C7        1.0  0.9657777917393701  0.4673877980423739  0.7499959464485217  1.0000
  C   C8        1.0  0.46578314692561656  0.0326081393605691  0.24999841260426345  1.0000
  C   C9        1.0  0.6270451051791142  0.14937348724453872  0.4555637893686111  1.0000
  C   C10       1.0  0.1270436568311055  0.3506233077608201  0.5444323469408943  1.0000
  C   C11       1.0  0.8729639643361508  0.6493756347048603  0.044437597162549  1.0000
  C   C12       1.0  0.37296321992196363  0.8506237343108651  0.955565674176917  1.0000
  C   C13       1.0  0.3729564524907829  0.850625889884249  0.5444372631462926  1.0000
  C   C14       1.0  0.8729579008475811  0.6493743425283257  0.4555606134519366  1.0000
  C   C15       1.0  0.1270337440275497  0.3506202887151133  0.9555661527314216  1.0000
  C   C16       1.0  0.6270357715527622  0.14937477938591567  0.0444367270273744  1.0000
  C   C17       1.0  0.6210999324094003  0.25357757866307656  0.4078943767653272  1.0000
  C   C18       1.0  0.1211022498247729  0.24642436648107954  0.5921064874655215  1.0000
  C   C19       1.0  0.8789077216314921  0.7535805205313155  0.09210620080057913  1.0000
  C   C20       1.0  0.37890475932367446  0.7464180154583036  0.907896388677166  1.0000
  C   C21       1.0  0.3788990590824993  0.7464226618852904  0.592104652719847  1.0000
  C   C22       1.0  0.8789018740010021  0.7535706935305629  0.4078979367685492  1.0000
  C   C23       1.0  0.12109640222459458  0.2464205834471827  0.907899572116783  1.0000
  C   C24       1.0  0.6210967983239114  0.25357704455099395  0.0921039894969269  1.0000
  C   C25       1.0  0.6484148782120512  0.3543555887701331  0.4559169994872789  1.0000
  C   C26       1.0  0.14841373409091568  0.14564390581871578  0.5440770867523811  1.0000
  C   C27       1.0  0.8515913225303748  0.8543602179272581  0.0440807505081935  1.0000
  C   C28       1.0  0.3515895959933388  0.6456399051882472  0.9559211991849496  1.0000
  C   C29       1.0  0.35159181183541216  0.645642924951254  0.5440806813069443  1.0000
  C   C30       1.0  0.8515903897547118  0.8543511542020709  0.455918571014891  1.0000
  C   C31       1.0  0.1484128013365904  0.1456417494780951  0.9559223250342158  1.0000
  C   C32       1.0  0.6484093955035135  0.35436206220609273  0.04407985332991161  1.0000
  C   C33       1.0  0.6792499170876453  0.343663791410691  0.5483135238688703  1.0000
  C   C34       1.0  0.1792416109724613  0.15633154376671143  0.4516778259910056  1.0000
  C   C35       1.0  0.8207539008000994  0.8436682761293073  0.9516831992939674  1.0000
  C   C36       1.0  0.3207564033916555  0.6563334161065413  0.0483208124418937  1.0000
  C   C37       1.0  0.3207567729737519  0.6563355857389581  0.4516801108631938  1.0000
  C   C38       1.0  0.8207535311997206  0.8436591991137238  0.5483151344103377  1.0000
  C   C39       1.0  0.1792450906828194  0.1563328278367706  0.04832189928304591  1.0000
  C   C40       1.0  0.6792438711878076  0.34366682444229474  0.9516809144168621  1.0000
  S   S1        1.0  0.4164990341566436  0.382289910285344  0.7500017436413131  1.0000
  S   S2        1.0  0.9164946485347015  0.1177169995324761  0.24999942119420382  1.0000
  S   S3        1.0  0.08350690917430371  0.8822866947235326  0.7499948878819183  1.0000
  S   S4        1.0  0.5835050897103214  0.6177120571200092  0.2500013319010961  1.0000
  S   S5        1.0  0.4232092632660098  0.0863694702199496  0.7500019305473202  1.0000
  S   S6        1.0  0.9232145608909619  0.4136322934068063  0.24999450539039006  1.0000
  S   S7        1.0  0.07677929820203389  0.5863619031643879  0.7500004780403415  1.0000
  S   S8        1.0  0.5767781804930365  0.9136532193175527  0.2500031680230492  1.0000
  N   N1        1.0  0.5889454334625627  0.5952297145073331  0.7499967765969586  1.0000
  N   N2        1.0  0.08894976596636177  0.904769928593865  0.2500001106443506  1.0000
  N   N3        1.0  0.9110466593604939  0.09523462906743421  0.7499995931832617  1.0000
  N   N4        1.0  0.41105612421534227  0.4047713894688271  0.25000495026043273  1.0000
  N   N5        1.0  0.6126957866117662  0.8800017012937573  0.7499972519665195  1.0000
  N   N6        1.0  0.1126969744557229  0.6200023804042729  0.25000027956848214  1.0000
  N   N7        1.0  0.8873109987056366  0.37999786017339693  0.7499926808186148  1.0000
  N   N8        1.0  0.38731475277831606  0.12000631010612041  0.24999638275753713  1.0000
  N   N9        1.0  0.6824582732671445  0.2408765784667608  0.5896279232059456  1.0000
  N   N10       1.0  0.18245513865637264  0.2591265439435233  0.41037084036600663  1.0000
  N   N11       1.0  0.8175418433305666  0.740875952383071  0.9103750018465036  1.0000
  N   N12       1.0  0.31754529392391356  0.7591248600004689  0.0896296882968386  1.0000
  N   N13       1.0  0.31753943514367217  0.7591253889278063  0.4103697575917239  1.0000
  N   N14       1.0  0.8175374373703973  0.7408745600117684  0.5896288634662669  1.0000
  N   N15       1.0  0.182458431241443  0.259125151584179  0.0896321197604948  1.0000
  N   N16       1.0  0.6824562637476957  0.24087538055094634  0.9103727129047102  1.0000
  N   N17       1.0  0.6571834555208297  0.14281490289310741  0.5442028689842999  1.0000
  N   N18       1.0  0.15718376415877336  0.35717772915365487  0.4557966009136366  1.0000
  N   N19       1.0  0.8428155782486186  0.6428220821663614  0.9557974853760032  1.0000
  N   N20       1.0  0.34281775120515334  0.8571805863417267  0.04420514975972621  1.0000
  N   N21       1.0  0.34281040356471243  0.8571801570964936  0.45579750919466744  1.0000
  N   N22       1.0  0.8428113780330334  0.642819057688719  0.5442024285762059  1.0000
  N   N23       1.0  0.15718213012308266  0.3571755681009847  0.0442069388604551  1.0000
  N   N24       1.0  0.6571876557680767  0.14282310791639222  0.9557965770935511  1.0000
