data_image0
_chemical_formula_structural       Na4H40C20Br4O24
_chemical_formula_sum              "Na4 H40 C20 Br4 O24"
_cell_length_a       6.008659643601982
_cell_length_b       6.00863569978441
_cell_length_c       25.769294374024216
_cell_angle_alpha    89.99984195041085
_cell_angle_beta     90.0000411307735
_cell_angle_gamma    104.61325046681945

_space_group_name_H-M_alt    "P 1"
_space_group_IT_number       1

loop_
  _space_group_symop_operation_xyz
  'x, y, z'

loop_
  _atom_site_type_symbol
  _atom_site_label
  _atom_site_symmetry_multiplicity
  _atom_site_fract_x
  _atom_site_fract_y
  _atom_site_fract_z
  _atom_site_occupancy
  Na  Na1       1.0  0.7527751897989033  0.7527766792541329  0.4999999237804573  1.0000
  Na  Na2       1.0  0.2472252270317198  0.2472250237559308  7.152353518000001e-07  1.0000
  Na  Na3       1.0  0.9914798937753558  0.0085146486455088  0.7500000437141097  1.0000
  Na  Na4       1.0  0.008515625976727408  0.9914841541836595  0.24999954028695737  1.0000
  H   H1        1.0  0.96413304306315  0.183158394027693  0.5598263649111317  1.0000
  H   H2        1.0  0.1831627640677311  0.9641368632552914  0.44017279475795595  1.0000
  H   H3        1.0  0.816840447235556  0.035870026290659496  0.9401728653792463  1.0000
  H   H4        1.0  0.03586441642718088  0.8168374566637979  0.0598271429528836  1.0000
  H   H5        1.0  0.6092668180934878  0.24101965300187095  0.7709931407818544  1.0000
  H   H6        1.0  0.24101878635711668  0.6092699308568683  0.22900686814561058  1.0000
  H   H7        1.0  0.7589786431868502  0.3907170623820235  0.7290074762056946  1.0000
  H   H8        1.0  0.3907154054568096  0.7589789452231985  0.2709932351069568  1.0000
  H   H9        1.0  0.22168732657694076  0.6320884152437857  0.7715533410211322  1.0000
  H   H10       1.0  0.6320883468054957  0.22169159916792588  0.2284443386942812  1.0000
  H   H11       1.0  0.3679113685638526  0.7783108847625683  0.7284461875305227  1.0000
  H   H12       1.0  0.7783116192075566  0.3679170108429588  0.2715510321072756  1.0000
  H   H13       1.0  0.5962326574980281  0.8048291434270569  0.6009638545644195  1.0000
  H   H14       1.0  0.804832342575011  0.5962344036862605  0.3990367948462108  1.0000
  H   H15       1.0  0.19517408745654305  0.403766070873516  0.8990357549306582  1.0000
  H   H16       1.0  0.40376403168364317  0.19516967238367763  0.10096509201370202  1.0000
  H   H17       1.0  0.23484796537672992  0.762708421696644  0.5314640714643987  1.0000
  H   H18       1.0  0.7627126130820513  0.2348501534695089  0.4685351250792635  1.0000
  H   H19       1.0  0.237290169866057  0.7651546854390932  0.9685354099730648  1.0000
  H   H20       1.0  0.7651528096681375  0.23728774968040514  0.0314645614852722  1.0000
  H   H21       1.0  0.3254498123501008  0.3777773041694061  0.6819941300357757  1.0000
  H   H22       1.0  0.3777718945236401  0.32545091908903595  0.3180059151071291  1.0000
  H   H23       1.0  0.6222177836952768  0.6745436659917701  0.8180055421394812  1.0000
  H   H24       1.0  0.6745469066152623  0.6222205667468971  0.18199474489728837  1.0000
  H   H25       1.0  0.4883041702617489  0.08883358712122912  0.6329738795511304  1.0000
  H   H26       1.0  0.088834771687182  0.4883049966042706  0.36702503246716844  1.0000
  H   H27       1.0  0.9111653412686138  0.5116907066008453  0.8670267499565442  1.0000
  H   H28       1.0  0.511692530685714  0.9111648554170985  0.1329754463225754  1.0000
  H   H29       1.0  0.10437492704214432  0.8552928193805658  0.620678736565182  1.0000
  H   H30       1.0  0.855295965466709  0.1043738253806907  0.3793208573687465  1.0000
  H   H31       1.0  0.1447087943283521  0.8956268841078417  0.8793206554050031  1.0000
  H   H32       1.0  0.8956250953654318  0.14470575648761752  0.12067930672245811  1.0000
  H   H33       1.0  0.026161309546551992  0.44586660505915193  0.6374775379877278  1.0000
  H   H34       1.0  0.44586821609228616  0.026162689847943506  0.3625210118562521  1.0000
  H   H35       1.0  0.5541311097783108  0.9738365107158702  0.8625212107145188  1.0000
  H   H36       1.0  0.9738387190358253  0.554131774912058  0.1374790193855517  1.0000
  H   H37       1.0  0.8715595281266102  0.15797032219064994  0.6496041443036378  1.0000
  H   H38       1.0  0.15797501069684466  0.8715598244846064  0.35039465630809025  1.0000
  H   H39       1.0  0.8420284221253949  0.12843606261011337  0.8503942828435314  1.0000
  H   H40       1.0  0.12843884192323426  0.8420279213985751  0.1496053084313544  1.0000
  C   C1        1.0  0.49199914999749683  0.2800064431591239  0.5635062580780499  1.0000
  C   C2        1.0  0.2800340548830746  0.49204023378935363  0.43649803876311205  1.0000
  C   C3        1.0  0.7199791330082447  0.5079666684547561  0.9364985648872591  1.0000
  C   C4        1.0  0.5079711720973066  0.7199808405072048  0.0635040674491023  1.0000
  C   C5        1.0  0.443390501006931  0.050130047439843416  0.5917767962562267  1.0000
  C   C6        1.0  0.05012771916097589  0.4433926879483252  0.4082221363531104  1.0000
  C   C7        1.0  0.9498758270478476  0.5566094094388419  0.908223442700745  1.0000
  C   C8        1.0  0.5566083786988258  0.9498774750098777  0.091777956865279  1.0000
  C   C9        1.0  0.18081408293322443  0.9644735759726115  0.5876941019902375  1.0000
  C   C10       1.0  0.9644754253390316  0.18081562894683867  0.4123042820553593  1.0000
  C   C11       1.0  0.03552523517081599  0.8191881507918309  0.9123052768470217  1.0000
  C   C12       1.0  0.8191842643607641  0.0355253895512817  0.08769550710847081  1.0000
  C   C13       1.0  0.10572182436790459  0.18985209104158685  0.5870598708601947  1.0000
  C   C14       1.0  0.18985463333234517  0.10572174480856233  0.4129398866144882  1.0000
  C   C15       1.0  0.8101468128402515  0.8942785826986891  0.9129394004983595  1.0000
  C   C16       1.0  0.8942781856825875  0.8101468768580988  0.08706039808809862  1.0000
  C   C17       1.0  0.04213661732576669  0.26774873444949787  0.6397058301838003  1.0000
  C   C18       1.0  0.26775115543679817  0.0421386144368512  0.3602935357070933  1.0000
  C   C19       1.0  0.7322493938245885  0.9578588871770394  0.8602933844282605  1.0000
  C   C20       1.0  0.9578617490857083  0.7322496245678212  0.1397064176841596  1.0000
  Br  Br1       1.0  0.6552679726417165  0.6743792187656369  0.6759189999333657  1.0000
  Br  Br2       1.0  0.6743805071521576  0.655267807985382  0.32408127900570355  1.0000
  Br  Br3       1.0  0.325616702819353  0.3447301259519763  0.8240810736221604  1.0000
  Br  Br4       1.0  0.3447304070803767  0.325618717969391  0.1759193676767978  1.0000
  O   O1        1.0  0.7480021876964427  0.25200540674109123  0.7499987818753483  1.0000
  O   O2        1.0  0.25201014621563894  0.7480071150905727  0.2500023543575551  1.0000
  O   O3        1.0  0.2309892644922797  0.769011615121599  0.7500001267398986  1.0000
  O   O4        1.0  0.7690155398996054  0.23099748703003803  0.24999712890609527  1.0000
  O   O5        1.0  0.6708621901635538  0.38467783670160577  0.5425580509444927  1.0000
  O   O6        1.0  0.3846657752194957  0.6708451966919712  0.4574395790899857  1.0000
  O   O7        1.0  0.615340676279402  0.3291545968112857  0.9574417570012982  1.0000
  O   O8        1.0  0.32915295470004213  0.6153353741588744  0.0425609451399822  1.0000
  O   O9        1.0  0.5662962978249623  0.8993962310781428  0.5709280748774148  1.0000
  O   O10       1.0  0.8993984693740132  0.566293447208885  0.4290725586185289  1.0000
  O   O11       1.0  0.10061261401784799  0.4337118267524858  0.9290722607945271  1.0000
  O   O12       1.0  0.43370248208647405  0.10060464986189999  0.07092860206282131  1.0000
  O   O13       1.0  0.11887347490615957  0.846751781216206  0.5396365524244402  1.0000
  O   O14       1.0  0.8467531689481689  0.11887468972687289  0.4603626519827486  1.0000
  O   O15       1.0  0.1532496109959425  0.8811302444841191  0.9603624607274883  1.0000
  O   O16       1.0  0.8811260789331142  0.1532460197851293  0.03963750286666821  1.0000
  O   O17       1.0  0.3040429224758441  0.3620263147752924  0.5647460646647531  1.0000
  O   O18       1.0  0.362031988304274  0.30404958228873374  0.43525398962778183  1.0000
  O   O19       1.0  0.6379702514996736  0.6959470401815722  0.9352539933019273  1.0000
  O   O20       1.0  0.6959525291838415  0.6379746483009755  0.0647470607019116  1.0000
  O   O21       1.0  0.19428113390063828  0.24010885367085416  0.6804904368097766  1.0000
  O   O22       1.0  0.2401061353513185  0.19428078359546666  0.31950889842070757  1.0000
  O   O23       1.0  0.7598859918392692  0.8057103341037362  0.8195088499144136  1.0000
  O   O24       1.0  0.8057155845120788  0.7598890347782332  0.18049137091859543  1.0000
