data_image0
_chemical_formula_structural       Zn2H48C56N4O16
_chemical_formula_sum              "Zn2 H48 C56 N4 O16"
_cell_length_a       9.408765196710362
_cell_length_b       10.860527540598913
_cell_length_c       23.814275756718864
_cell_angle_alpha    89.68545662917046
_cell_angle_beta     89.52693519866651
_cell_angle_gamma    87.49719655198484

_space_group_name_H-M_alt    "P 1"
_space_group_IT_number       1

loop_
  _space_group_symop_operation_xyz
  'x, y, z'

loop_
  _atom_site_type_symbol
  _atom_site_label
  _atom_site_symmetry_multiplicity
  _atom_site_fract_x
  _atom_site_fract_y
  _atom_site_fract_z
  _atom_site_occupancy
  Zn  Zn1       1.0  0.6451252302030072  0.49385926010152287  0.4993727527653745  1.0000
  Zn  Zn2       1.0  0.35683423468005765  0.5059593859559824  0.5004637687030353  1.0000
  H   H1        1.0  0.4355209097864687  0.8291556580882826  0.9454855241195119  1.0000
  H   H2        1.0  0.5656994976413044  0.21496425999593072  0.9482928587899833  1.0000
  H   H3        1.0  0.7304603927452291  0.5154082263278427  0.213270832810565  1.0000
  H   H4        1.0  0.2700812803660995  0.5305924696010181  0.7867118771442491  1.0000
  H   H5        1.0  0.7302781299300704  0.5054137920406417  0.3188723012357073  1.0000
  H   H6        1.0  0.27058015170671007  0.5241132315893324  0.6811255513419353  1.0000
  H   H7        1.0  0.27454676494292574  0.5217691686711632  0.3207956017430504  1.0000
  H   H8        1.0  0.7262235576840438  0.4974528507859333  0.6795849059399685  1.0000
  H   H9        1.0  0.27310273648329536  0.5318723656764206  0.21518836914075476  1.0000
  H   H10       1.0  0.7273859364759756  0.5047311109567332  0.7851550887830357  1.0000
  H   H11       1.0  0.7306888857058309  0.07281275466046108  0.4652296830790802  1.0000
  H   H12       1.0  0.5654125480783704  0.21634625031815352  0.0548433204147472  1.0000
  H   H13       1.0  0.2715276859161832  0.9268769461448301  0.5348417005375978  1.0000
  H   H14       1.0  0.5151931690434137  0.045772438851393815  0.6847821668614742  1.0000
  H   H15       1.0  0.5035524108656728  0.9198391877415018  0.6378445135710109  1.0000
  H   H16       1.0  0.252431615158244  0.076974218639883  0.6854129785312395  1.0000
  H   H17       1.0  0.23668049562604657  0.9545446219270204  0.6375370381964984  1.0000
  H   H18       1.0  0.3446552503739396  0.8040979829159269  0.7078954288181193  1.0000
  H   H19       1.0  0.19308928809726916  0.8834032738977978  0.7372171751189002  1.0000
  H   H20       1.0  0.366193363273581  0.9252346896189322  0.7561388710985497  1.0000
  H   H21       1.0  0.678132182097215  0.031153987510762707  0.3599456877028544  1.0000
  H   H22       1.0  0.49155369138455995  0.0607557627742494  0.3506742229161972  1.0000
  H   H23       1.0  0.8897752364161275  0.6042642415997294  0.5796306989329594  1.0000
  H   H24       1.0  0.6637345064405195  0.8410962854586329  0.29999060022819884  1.0000
  H   H25       1.0  0.4813818468154523  0.8763817999856586  0.28902531735445075  1.0000
  H   H26       1.0  0.5445132925552157  0.08093173126635379  0.24309447321900987  1.0000
  H   H27       1.0  0.6213870511072345  0.9514049954460828  0.2073340754037147  1.0000
  H   H28       1.0  0.7272743605090427  0.03970450970701481  0.2521829185920694  1.0000
  H   H29       1.0  0.8058857164708682  0.9536482256820021  0.641416389981984  1.0000
  H   H30       1.0  0.7232926081457761  0.07778456208537678  0.6031525770353383  1.0000
  H   H31       1.0  0.00021321539806250453  0.9336937588448959  0.571528788332607  1.0000
  H   H32       1.0  0.9126442523425382  0.04262910959690199  0.5269661205997807  1.0000
  H   H33       1.0  0.9340298282799677  0.20802784757238163  0.5992381356587444  1.0000
  H   H34       1.0  0.11241272665704118  0.39629637207509927  0.4199477287085358  1.0000
  H   H35       1.0  0.10606766363525816  0.141739224696849  0.5830361156722859  1.0000
  H   H36       1.0  0.018049639376563693  0.10093808070460851  0.6459662569174611  1.0000
  H   H37       1.0  0.0864973272182326  0.12232089559035589  0.41033560704077837  1.0000
  H   H38       1.0  0.11589379637696598  0.04600935858160679  0.4758681749449423  1.0000
  H   H39       1.0  0.18773673402068874  0.9350386771824545  0.3601915758983765  1.0000
  H   H40       1.0  0.21084990668701659  0.8576362397653626  0.42499898725991864  1.0000
  H   H41       1.0  0.9438707404173314  0.8782685302715193  0.44349933186048673  1.0000
  H   H42       1.0  0.9800267051931967  0.8020250601511733  0.3789524701709511  1.0000
  H   H43       1.0  0.9211404501048007  0.9589231941020272  0.37919455171063987  1.0000
  H   H44       1.0  0.08392425616070649  0.7080872632353987  0.49789156264831286  1.0000
  H   H45       1.0  0.9181464252480181  0.2920405282765159  0.5015910766243934  1.0000
  H   H46       1.0  0.8948772197131517  0.5980584411645112  0.4177028344333635  1.0000
  H   H47       1.0  0.10679104664524167  0.4019992839784976  0.5819996006737965  1.0000
  H   H48       1.0  0.43774285789925926  0.8309949593238598  0.05191006698674979  1.0000
  C   C1        1.0  0.49783560349084865  0.7393509091909676  0.49971760260412873  1.0000
  C   C2        1.0  0.6272231874988776  0.5051709267656365  0.7035948266293204  1.0000
  C   C3        1.0  0.3727517993259112  0.5263779760356897  0.2382684876874421  1.0000
  C   C4        1.0  0.6278306163715186  0.5093193131719573  0.761996335173741  1.0000
  C   C5        1.0  0.5017806618100735  0.5240274675543475  0.20903011689563297  1.0000
  C   C6        1.0  0.49878720260799964  0.5182007480880769  0.7911857728307226  1.0000
  C   C7        1.0  0.6077524653808621  0.9541936916106694  0.5341156518236261  1.0000
  C   C8        1.0  0.39414459372039806  0.04568983151624908  0.4660791207487236  1.0000
  C   C9        1.0  0.47620934129842124  0.04322392596645841  0.5530771708038174  1.0000
  C   C10       1.0  0.5256803180884403  0.9566835280764749  0.4473271428138972  1.0000
  C   C11       1.0  0.5026255235297157  0.12455804310686601  0.4993104156704859  1.0000
  C   C12       1.0  0.5041423741432709  0.26076857965686157  0.5007074808154854  1.0000
  C   C13       1.0  0.5002586983420725  0.8756592268680378  0.5013741298184584  1.0000
  C   C14       1.0  0.6304362148736119  0.038130299691779584  0.4808068234897789  1.0000
  C   C15       1.0  0.3716042352457619  0.9623277681575501  0.5194508778868112  1.0000
  C   C16       1.0  0.5033833126977925  0.5035917715975556  0.3885568742309858  1.0000
  C   C17       1.0  0.49796272391100865  0.5055914241349413  0.611441810625422  1.0000
  C   C18       1.0  0.03937179775380171  0.616935487189174  0.498725813027427  1.0000
  C   C19       1.0  0.9626196091763433  0.38324229173597496  0.5008681924428302  1.0000
  C   C20       1.0  0.9465917612378763  0.5585193762292703  0.5448392854673045  1.0000
  C   C21       1.0  0.055484284550956886  0.4416887650982558  0.45480581801194836  1.0000
  C   C22       1.0  0.949527898132331  0.5551686785980293  0.4535594885967953  1.0000
  C   C23       1.0  0.6311399410447011  0.5175001675754061  0.2371953365177433  1.0000
  C   C24       1.0  0.052434477653427805  0.44496117460676027  0.5460883310482032  1.0000
  C   C25       1.0  0.5239365281146321  0.40600711584853144  0.8794033948192562  1.0000
  C   C26       1.0  0.4795241631817218  0.6394375152236976  0.12103071462587418  1.0000
  C   C27       1.0  0.4750206885596596  0.6354076201899233  0.8781563334558413  1.0000
  C   C28       1.0  0.5240196695013849  0.4095264616984053  0.1219083550038675  1.0000
  C   C29       1.0  0.4762825356872965  0.634552759652145  0.9405003596053091  1.0000
  C   C30       1.0  0.5245089738148536  0.410894239405259  0.0596481419953463  1.0000
  C   C31       1.0  0.5005130662623785  0.52235429012606  0.9702015089160552  1.0000
  C   C32       1.0  0.5010431862640417  0.5232993618019464  0.030042828393447997  1.0000
  C   C33       1.0  0.5241455412848309  0.4091992323811198  0.9416406763553623  1.0000
  C   C34       1.0  0.36952725888769317  0.5235282827070407  0.7629071996257012  1.0000
  C   C35       1.0  0.47819675864712247  0.6365087092953273  0.0587037404326054  1.0000
  C   C36       1.0  0.4538140376900087  0.7443964334957088  0.969593646961016  1.0000
  C   C37       1.0  0.5475078025973302  0.30105197834163977  0.0306523769257865  1.0000
  C   C38       1.0  0.4550911550365271  0.7454375418326505  0.028596548489971996  1.0000
  C   C39       1.0  0.5475157937220984  0.300256413152347  0.9716954354850245  1.0000
  C   C40       1.0  0.45111239852123924  0.0077256680381836  0.6510483179698028  1.0000
  C   C41       1.0  0.3010904268408582  0.987602756795873  0.672283617028711  1.0000
  C   C42       1.0  0.30133618296215287  0.8952495000510581  0.7209656152221201  1.0000
  C   C43       1.0  0.576489047967584  0.9874465149151561  0.3514287970301311  1.0000
  C   C44       1.0  0.5841567015367277  0.9181301780552007  0.2962918365406395  1.0000
  C   C45       1.0  0.6310881775709872  0.5117453982899959  0.2955799126489183  1.0000
  C   C46       1.0  0.6213632333383571  0.0021751149337845017  0.24709392620597007  1.0000
  C   C47       1.0  0.788774600416616  0.9916197536108767  0.5989127783035713  1.0000
  C   C48       1.0  0.930780410587296  0.018108847478437395  0.5712619670386658  1.0000
  C   C49       1.0  0.0016000694650414992  0.1229256986894285  0.6013430114194804  1.0000
  C   C50       1.0  0.15403730260407394  0.051986830665669004  0.4320387205872507  1.0000
  C   C51       1.0  0.14384963207861998  0.9279493731682178  0.40301252218804245  1.0000
  C   C52       1.0  0.9893594335496302  0.8896032541407874  0.40117295486433585  1.0000
  C   C53       1.0  0.3697246100098824  0.5197960653910129  0.7044854697056023  1.0000
  C   C54       1.0  0.5024806615300079  0.5124871300225919  0.3256138169752987  1.0000
  C   C55       1.0  0.4983511751389003  0.5102815734360534  0.6744931858935389  1.0000
  C   C56       1.0  0.3734676868264799  0.5206831261303648  0.2966767399214163  1.0000
  N   N1        1.0  0.49921242653390135  0.5202031819904817  0.8518444159140657  1.0000
  N   N2        1.0  0.501619433166766  0.5248124994459359  0.1483596696034084  1.0000
  N   N3        1.0  0.8588127206330893  0.49641604976255127  0.49966987695122356  1.0000
  N   N4        1.0  0.14320777063578294  0.5036823033416126  0.4999938341505655  1.0000
  O   O1        1.0  0.617677701237639  0.6807093999102632  0.4990646791175948  1.0000
  O   O2        1.0  0.46268103123794185  0.7351377785566339  0.14801754720630808  1.0000
  O   O3        1.0  0.4547348229296161  0.7299496759595457  0.8502610224843394  1.0000
  O   O4        1.0  0.5416352050493102  0.31451370258542244  0.1496782814770512  1.0000
  O   O5        1.0  0.45422064392638367  0.09646617593863738  0.6051512832039165  1.0000
  O   O6        1.0  0.5478376789842726  0.9009833535674189  0.39609216222559945  1.0000
  O   O7        1.0  0.7105634163404912  0.9010385032672589  0.5689779292040242  1.0000
  O   O8        1.0  0.29323711888499554  0.100897647158547  0.43106537610560747  1.0000
  O   O9        1.0  0.3843500814505632  0.319010628082914  0.5051436303976402  1.0000
  O   O10       1.0  0.3758593019602614  0.6925904170684731  0.4984428055354044  1.0000
  O   O11       1.0  0.6256709023755959  0.308355805894024  0.49782902496588827  1.0000
  O   O12       1.0  0.6243373074426516  0.49787517806660003  0.4121234850433524  1.0000
  O   O13       1.0  0.377258636884619  0.5142889482606492  0.5876882124279206  1.0000
  O   O14       1.0  0.3830935624348584  0.5019261923705826  0.4134450964645496  1.0000
  O   O15       1.0  0.6183252501949426  0.4938895337805748  0.5867523245672785  1.0000
  O   O16       1.0  0.5434239421504756  0.3103658054886865  0.852591734749133  1.0000
