data_image0
_chemical_formula_structural       Sr5H20C32N2O24
_chemical_formula_sum              "Sr5 H20 C32 N2 O24"
_cell_length_a       7.063019298493911
_cell_length_b       10.403025278885444
_cell_length_c       12.714776894148871
_cell_angle_alpha    90.94404105303445
_cell_angle_beta     91.69397741815922
_cell_angle_gamma    103.77833221828166

_space_group_name_H-M_alt    "P 1"
_space_group_IT_number       1

loop_
  _space_group_symop_operation_xyz
  'x, y, z'

loop_
  _atom_site_type_symbol
  _atom_site_label
  _atom_site_symmetry_multiplicity
  _atom_site_fract_x
  _atom_site_fract_y
  _atom_site_fract_z
  _atom_site_occupancy
  Sr  Sr1       1.0  0.9999974089697407  0.9999981804541488  0.9999999915330805  1.0000
  Sr  Sr2       1.0  0.44020352913877075  0.7990064051704452  0.058146344754085505  1.0000
  Sr  Sr3       1.0  0.5597967118941369  0.2009917664048189  0.9418544770618809  1.0000
  Sr  Sr4       1.0  0.1280808929237054  0.37311437336521175  0.1112411511423943  1.0000
  Sr  Sr5       1.0  0.8719161530702524  0.6268867840589891  0.8887581012105557  1.0000
  H   H1        1.0  0.2165189114720079  0.15740183146394318  0.3602843747978568  1.0000
  H   H2        1.0  0.7834767295148808  0.842595370868821  0.6397139989104872  1.0000
  H   H3        1.0  0.4149316850589956  0.18186595132364397  0.530563918142235  1.0000
  H   H4        1.0  0.5850646683367631  0.8181292789631982  0.46943285854982975  1.0000
  H   H5        1.0  0.7537876677929634  0.15914042356219224  0.5296430701652142  1.0000
  H   H6        1.0  0.24621363787986184  0.8408567560431733  0.4703577505266169  1.0000
  H   H7        1.0  0.9007981813807079  0.11195532968672232  0.3606218003543802  1.0000
  H   H8        1.0  0.09920063035772851  0.8880468257373764  0.6393759241524393  1.0000
  H   H9        1.0  0.5563563478394331  0.37166168173244063  0.30406465120743326  1.0000
  H   H10       1.0  0.4436452998793286  0.6283404300253891  0.6959394085062769  1.0000
  H   H11       1.0  0.6595758373187125  0.478358138278125  0.4789787363766607  1.0000
  H   H12       1.0  0.340426159833136  0.5216449784038557  0.5210229871406257  1.0000
  H   H13       1.0  0.8860538919286258  0.7020587166342124  0.4918347943629442  1.0000
  H   H14       1.0  0.11394739225476515  0.29794637706330457  0.5081677397529134  1.0000
  H   H15       1.0  0.004133345047058969  0.8193037617335505  0.32639074662908035  1.0000
  H   H16       1.0  0.9958707802654418  0.18069738094788323  0.673609401804498  1.0000
  H   H17       1.0  0.9354407278464978  0.3633694738371105  0.33478148648096356  1.0000
  H   H18       1.0  0.06455703223510775  0.6366296966323047  0.6652185281088379  1.0000
  H   H19       1.0  0.1405537378824988  0.465802224073087  0.3353663086800438  1.0000
  H   H20       1.0  0.8594440221991064  0.5341969463963351  0.6646337059097576  1.0000
  C   C1        1.0  0.446920371306959  0.11972434824944138  0.2675055249453493  1.0000
  C   C2        1.0  0.5530759713440788  0.8802748390834834  0.7324921084587288  1.0000
  C   C3        1.0  0.36619275033827864  0.14650731616521984  0.3626292850355171  1.0000
  C   C4        1.0  0.6338060732640615  0.8534908722735531  0.637369155594719  1.0000
  C   C5        1.0  0.47633314072128746  0.16127656921363345  0.4564080141568638  1.0000
  C   C6        1.0  0.5236706442240617  0.8387196264064583  0.5435912545079802  1.0000
  C   C7        1.0  0.6688717195196647  0.14845167067259268  0.45580119999664953  1.0000
  C   C8        1.0  0.331131702449916  0.8515475019175579  0.544197329488057  1.0000
  C   C9        1.0  0.7508652690279833  0.12221385703828246  0.36178113431253683  1.0000
  C   C10       1.0  0.24913567087110536  0.8777863243852765  0.6382150151105748  1.0000
  C   C11       1.0  0.6415024524761962  0.10967010795533837  0.266967114426464  1.0000
  C   C12       1.0  0.35849600815036814  0.8903310574534943  0.7330305870236415  1.0000
  C   C13       1.0  0.32537109013900783  0.10301780451732867  0.168462854356072  1.0000
  C   C14       1.0  0.6746256030643071  0.896982377800491  0.8315340156870121  1.0000
  C   C15       1.0  0.7345106593784722  0.08603134944351609  0.1662131198188632  1.0000
  C   C16       1.0  0.26549063387085436  0.9139698021168099  0.8337861983318362  1.0000
  C   C17       1.0  0.7240892542142136  0.5326488062582797  0.2168780865632982  1.0000
  C   C18       1.0  0.2759152227697542  0.4673533214687992  0.7831228713447231  1.0000
  C   C19       1.0  0.6546232847926564  0.4698242530476121  0.309525745632719  1.0000
  C   C20       1.0  0.34537729772659287  0.530178855649744  0.6904775287874116  1.0000
  C   C21       1.0  0.7129452222404141  0.5301469835380954  0.4079895418885187  1.0000
  C   C22       1.0  0.2870571265828944  0.46985711818952314  0.5920129911032035  1.0000
  C   C23       1.0  0.8402166459420145  0.6555481345797031  0.41481536944017716  1.0000
  C   C24       1.0  0.15978711751390054  0.3444559751325399  0.5851856126487007  1.0000
  C   C25       1.0  0.9077416316903069  0.7202204606729267  0.32314414222270227  1.0000
  C   C26       1.0  0.09226214251032874  0.2797796919932479  0.6768559831541553  1.0000
  C   C27       1.0  0.8506876306759211  0.6601137404455668  0.2242571312488906  1.0000
  C   C28       1.0  0.149318261500234  0.339888390296508  0.7757430621739944  1.0000
  C   C29       1.0  0.9152991694018058  0.7386736716370873  0.1289087020501398  1.0000
  C   C30       1.0  0.08470425368695803  0.2613254910138139  0.8710914002699965  1.0000
  C   C31       1.0  0.6762927893770155  0.4554253411561857  0.114225757383025  1.0000
  C   C32       1.0  0.323708155558407  0.5445747955407397  0.8857774697995282  1.0000
  N   N1        1.0  0.34941791731994704  0.6689046321515588  0.2742528234808574  1.0000
  N   N2        1.0  0.650580907401576  0.33109354634795807  0.7257471899848085  1.0000
  O   O1        1.0  0.38012310806858113  0.047474797076368695  0.0870187575589512  1.0000
  O   O2        1.0  0.6198753519983884  0.9525263733020848  0.9129781574734324  1.0000
  O   O3        1.0  0.1690610035611044  0.14295022192731469  0.16666358271277912  1.0000
  O   O4        1.0  0.8309332222335971  0.8570469773904463  0.8333355554807014  1.0000
  O   O5        1.0  0.7993873591015872  0.18431528444611436  0.1070367151777916  1.0000
  O   O6        1.0  0.2006107509727074  0.8156848859778236  0.8929617496333009  1.0000
  O   O7        1.0  0.7492353077216125  0.9694867906214879  0.1460532150660327  1.0000
  O   O8        1.0  0.2507610366082035  0.03051238180255919  0.8539467775911902  1.0000
  O   O9        1.0  0.7869175274406504  0.7380526562027611  0.0549301123486288  1.0000
  O   O10       1.0  0.21307952135128266  0.26194847637331964  0.9450730720928888  1.0000
  O   O11       1.0  0.08935281183637755  0.8065837534709953  0.12464597100584741  1.0000
  O   O12       1.0  0.9106531023888069  0.19341045820930694  0.8753532954107185  1.0000
  O   O13       1.0  0.5068458997888925  0.3823523062928443  0.09682493907781262  1.0000
  O   O14       1.0  0.49315751479352343  0.6176507935256267  0.9031791656252041  1.0000
  O   O15       1.0  0.8161489209640252  0.4610166530836962  0.0505089204999862  1.0000
  O   O16       1.0  0.1838509576527017  0.5389844904920053  0.9494919485535575  1.0000
  O   O17       1.0  0.29011626585712946  0.6159044252630251  0.3591210006226079  1.0000
  O   O18       1.0  0.709881494224476  0.38409474520639  0.6408790139671936  1.0000
  O   O19       1.0  0.44539347459964074  0.7867593967146148  0.2717397194075772  1.0000
  O   O20       1.0  0.5546039338104976  0.21323878870916246  0.7282594857077884  1.0000
  O   O21       1.0  0.3112968576795795  0.6021066031095756  0.1865302980000152  1.0000
  O   O22       1.0  0.6887033827937331  0.39789157343531656  0.8134697373982293  1.0000
  O   O23       1.0  0.06742594770205561  0.37593699405213227  0.3095967479420096  1.0000
  O   O24       1.0  0.9325732281313396  0.6240621744626507  0.6904032885803771  1.0000
