data_image0
_chemical_formula_structural       Mg6H16C28N4O20
_chemical_formula_sum              "Mg6 H16 C28 N4 O20"
_cell_length_a       11.075407029745495
_cell_length_b       11.084363595235377
_cell_length_c       11.084374965923379
_cell_angle_alpha    67.64886147949598
_cell_angle_beta     79.74226685130681
_cell_angle_gamma    79.74230672211311

_space_group_name_H-M_alt    "P 1"
_space_group_IT_number       1

loop_
  _space_group_symop_operation_xyz
  'x, y, z'

loop_
  _atom_site_type_symbol
  _atom_site_label
  _atom_site_symmetry_multiplicity
  _atom_site_fract_x
  _atom_site_fract_y
  _atom_site_fract_z
  _atom_site_occupancy
  Mg  Mg1       1.0  0.249999820658843  0.8991129408129195  0.10088686681341845  1.0000
  Mg  Mg2       1.0  0.750000027171204  0.10088553621101683  0.89911365588118  1.0000
  Mg  Mg3       1.0  0.038558782062331404  0.8778007393174859  0.9550319806957929  1.0000
  Mg  Mg4       1.0  0.461441468138723  0.0449697796138295  0.12219764464820315  1.0000
  Mg  Mg5       1.0  0.961441870251825  0.12219872135920436  0.04496802691678431  1.0000
  Mg  Mg6       1.0  0.5385590712012557  0.9550306637667774  0.8778020120537561  1.0000
  H   H1        1.0  0.0259235247079701  0.8820008037007837  0.2022270732681761  1.0000
  H   H2        1.0  0.4740761427204987  0.7977737468682303  0.11799851686197385  1.0000
  H   H3        1.0  0.9740760971737145  0.11799963873097144  0.7977727476051795  1.0000
  H   H4        1.0  0.5259234782494248  0.20222669849485433  0.8820004008922236  1.0000
  H   H5        1.0  0.3738730926975292  0.9612913383560624  0.5466963930109757  1.0000
  H   H6        1.0  0.1261266770360052  0.45330361508811007  0.03871028467351326  1.0000
  H   H7        1.0  0.6261275605283884  0.038708119389298204  0.4533045177207595  1.0000
  H   H8        1.0  0.8738729457574335  0.546696824412308  0.9612904393190076  1.0000
  H   H9        1.0  0.055594930836676354  0.8286805119812112  0.48422928300548307  1.0000
  H   H10       1.0  0.4444045933973655  0.5157701575643827  0.17132111826628446  1.0000
  H   H11       1.0  0.9444054946173565  0.17132091703463456  0.5157691196667  1.0000
  H   H12       1.0  0.5555960598285522  0.4842293001809777  0.8286797924654508  1.0000
  H   H13       1.0  0.9598349241112345  0.819694981888368  0.7114432316477842  1.0000
  H   H14       1.0  0.5401665959593842  0.28855797970423674  0.1803034320609243  1.0000
  H   H15       1.0  0.040165614316975996  0.1803054644235758  0.2885555219350167  1.0000
  H   H16       1.0  0.45983474786470413  0.711443447329124  0.8196957095590135  1.0000
  C   C1        1.0  0.22361017114989323  0.9192398816327553  0.7047275165308305  1.0000
  C   C2        1.0  0.2763895250703214  0.2952726004124743  0.08076114244761355  1.0000
  C   C3        1.0  0.7763894507317914  0.08076056079899982  0.2952723043425251  1.0000
  C   C4        1.0  0.723610210697302  0.7047268563840349  0.9192399324555252  1.0000
  C   C5        1.0  0.2822838159956974  0.929235186644682  0.5797204945183978  1.0000
  C   C6        1.0  0.21771603205884552  0.4202793870451202  0.07076725505405788  1.0000
  C   C7        1.0  0.7177167233442744  0.07076525673592471  0.4202791621835613  1.0000
  C   C8        1.0  0.7822837046205394  0.5797200668200516  0.9292347229682462  1.0000
  C   C9        1.0  0.2208160164293318  0.8977338057360597  0.497762749902968  1.0000
  C   C10       1.0  0.27918341285958803  0.5022366754714581  0.10226843090632096  1.0000
  C   C11       1.0  0.7791845229106471  0.1022666376445471  0.5022369067989912  1.0000
  C   C12       1.0  0.7208155184239187  0.4977617976722898  0.8977331590788395  1.0000
  C   C13       1.0  0.10412060781533941  0.8555992569503201  0.5457712586331454  1.0000
  C   C14       1.0  0.39587894507564403  0.45422736031754596  0.14440300059536781  1.0000
  C   C15       1.0  0.8958799306128711  0.14440118936161642  0.4542274949496487  1.0000
  C   C16       1.0  0.6041217081502736  0.5457720974278077  0.8555979101363674  1.0000
  C   C17       1.0  0.051341012827904806  0.8506065614447988  0.6712082673016937  1.0000
  C   C18       1.0  0.44865920252517805  0.32879241873971676  0.1493930178242309  1.0000
  C   C19       1.0  0.9486595256003055  0.14939388486713773  0.3287904862811074  1.0000
  C   C20       1.0  0.5513413368147937  0.67120802464089  0.8506066388777282  1.0000
  C   C21       1.0  0.28545587702289044  0.9450051943701321  0.8020069820572006  1.0000
  C   C22       1.0  0.21454481000490228  0.19799214756894656  0.05499538900790672  1.0000
  C   C23       1.0  0.7145417978797821  0.054996225936498895  0.19799371936750274  1.0000
  C   C24       1.0  0.7854568736534872  0.8020063284213492  0.9450057084630498  1.0000
  C   C25       1.0  0.2766227531866647  0.9124916140584176  0.35883968317907733  1.0000
  C   C26       1.0  0.22337660272460616  0.6411589222323143  0.0875121494521736  1.0000
  C   C27       1.0  0.7233777852415456  0.08750883225351912  0.6411590704037167  1.0000
  C   C28       1.0  0.7766241652990188  0.35883954694647  0.9124909184285029  1.0000
  N   N1        1.0  0.10893231358705441  0.8827125853882831  0.7493084248434912  1.0000
  N   N2        1.0  0.3910683213042461  0.2506926765797957  0.11728664897490398  1.0000
  N   N3        1.0  0.8910683378153406  0.11728687821974398  0.25069067964992814  1.0000
  N   N4        1.0  0.6089322180357256  0.749307766800804  0.882713007727048  1.0000
  O   O1        1.0  0.21732785554601722  0.9425095192551395  0.9084319895338877  1.0000
  O   O2        1.0  0.2826726136677067  0.0915675103174962  0.05749143923478069  1.0000
  O   O3        1.0  0.7826726837939617  0.05749092412546018  0.09156766716807133  1.0000
  O   O4        1.0  0.7173270091257323  0.9084329291829221  0.9425092847577331  1.0000
  O   O5        1.0  0.39741685158492873  0.9632224989602773  0.7748592670291572  1.0000
  O   O6        1.0  0.10258260635940529  0.22513926235806284  0.0367795377765958  1.0000
  O   O7        1.0  0.6025835747808655  0.0367789271242387  0.22514003876218416  1.0000
  O   O8        1.0  0.8974163258358699  0.7748592078543554  0.9632229553277296  1.0000
  O   O9        1.0  0.370954742526699  0.9730271306882656  0.3135783798390932  1.0000
  O   O10       1.0  0.12904367340429698  0.6864198844300659  0.026978195136656852  1.0000
  O   O11       1.0  0.6290456829273338  0.0269742983275805  0.686420022833083  1.0000
  O   O12       1.0  0.8709542256232155  0.31357957633142053  0.9730214018709659  1.0000
  O   O13       1.0  0.22182610989521825  0.8653724350466804  0.29846437485164745  1.0000
  O   O14       1.0  0.278174368135744  0.7015356568827825  0.13462883015423444  1.0000
  O   O15       1.0  0.7781753459912865  0.1346280122141081  0.7015342145597571  1.0000
  O   O16       1.0  0.7218245604124787  0.29846282505497607  0.8653700504734442  1.0000
  O   O17       1.0  0.05413543828717591  0.9312537470701797  0.11140896179005473  1.0000
  O   O18       1.0  0.4458650519129391  0.8885917313440289  0.06874572979532452  1.0000
  O   O19       1.0  0.9458651010528029  0.06874669631041999  0.8885906949119043  1.0000
  O   O20       1.0  0.5541354874270324  0.11140871203657811  0.9312539269066348  1.0000
