data_image0
_chemical_formula_structural       Co2H24C36N4O12F8
_chemical_formula_sum              "Co2 H24 C36 N4 O12 F8"
_cell_length_a       7.144216061316863
_cell_length_b       11.087608283761153
_cell_length_c       11.087164216788862
_cell_angle_alpha    91.59361396118292
_cell_angle_beta     96.60000597504566
_cell_angle_gamma    96.59221138855985

_space_group_name_H-M_alt    "P 1"
_space_group_IT_number       1

loop_
  _space_group_symop_operation_xyz
  'x, y, z'

loop_
  _atom_site_type_symbol
  _atom_site_label
  _atom_site_symmetry_multiplicity
  _atom_site_fract_x
  _atom_site_fract_y
  _atom_site_fract_z
  _atom_site_occupancy
  Co  Co1       1.0  0.9999943062237763  0.49999723554326164  0.9999993865251326  1.0000
  Co  Co2       1.0  0.5000106607074102  5.380529209699794e-06  0.5000009529664311  1.0000
  H   H1        1.0  0.9514597724314484  0.3045471331451635  0.8151495835830646  1.0000
  H   H2        1.0  0.5487694061144383  0.18482381004892548  0.695449198969506  1.0000
  H   H3        1.0  0.04851582164992149  0.6954428926603312  0.18484989620315423  1.0000
  H   H4        1.0  0.4512223347982811  0.8151833940697625  0.30455287647135526  1.0000
  H   H5        1.0  0.9577679568006873  0.08468850046495648  0.8037034910844768  1.0000
  H   H6        1.0  0.5424449896613197  0.19627854809225193  0.9153217739453509  1.0000
  H   H7        1.0  0.042226674945140916  0.9153050308246828  0.1962966698815123  1.0000
  H   H8        1.0  0.4575415191632288  0.8037305061725417  0.08467723000277522  1.0000
  H   H9        1.0  0.0387456046441912  0.09863857152784306  0.1985824665101603  1.0000
  H   H10       1.0  0.4612400150269096  0.8014227529431678  0.9013489373429879  1.0000
  H   H11       1.0  0.9612602842347189  0.9013548816039003  0.8014185774456096  1.0000
  H   H12       1.0  0.5387663872063656  0.19858707111452384  0.09865074747003888  1.0000
  H   H13       1.0  0.04188332722730341  0.3178639028112825  0.1907236245751207  1.0000
  H   H14       1.0  0.45809410281587043  0.8092877812152036  0.6821084561926228  1.0000
  H   H15       1.0  0.9581086836610808  0.6821305545870542  0.809275451276207  1.0000
  H   H16       1.0  0.5419195285514109  0.19072290056302413  0.3178909161218044  1.0000
  H   H17       1.0  0.3880979917302696  0.49784211017680474  0.12457177948083141  1.0000
  H   H18       1.0  0.11189707847081817  0.8754527938296021  0.502113292914288  1.0000
  H   H19       1.0  0.6118879024455595  0.5021569392727299  0.8754269289828615  1.0000
  H   H20       1.0  0.8881362331621077  0.12454411859556558  0.49789450204406904  1.0000
  H   H21       1.0  0.3544140020173714  0.5718224188206518  0.007252340540666982  1.0000
  H   H22       1.0  0.14564284848726317  0.9927905135891276  0.428173416389697  1.0000
  H   H23       1.0  0.6455694358467243  0.4281784695206452  0.9927471222313856  1.0000
  H   H24       1.0  0.8543832821452001  0.007205530759087294  0.5718301847501978  1.0000
  C   C1        1.0  0.975991716838351  0.25551038857104647  0.8976400019368711  1.0000
  C   C2        1.0  0.5241709924926923  0.1023463740840214  0.744483044126774  1.0000
  C   C3        1.0  0.02399426900512219  0.7444822968390807  0.10236126241741061  1.0000
  C   C4        1.0  0.4758309948898472  0.8976625727136633  0.25551717393230433  1.0000
  C   C5        1.0  0.978160235391542  0.13030939539063263  0.8932553104956611  1.0000
  C   C6        1.0  0.52201172941772  0.10673346802510504  0.8696916512721132  1.0000
  C   C7        1.0  0.021828245270491136  0.8696814428425976  0.1067415944966115  1.0000
  C   C8        1.0  0.47798499699652547  0.8932773351325304  0.1303081990844603  1.0000
  C   C9        1.0  0.0008911064480727997  0.0671707036579434  0.0007156758324953003  1.0000
  C   C10       1.0  0.4991701035822445  0.9992852501530148  0.9328278063340605  1.0000
  C   C11       1.0  0.9991130076909516  0.9328209419625323  0.9992851839571631  1.0000
  C   C12       1.0  0.500832261025252  0.0007255118543981004  0.0671715842539911  1.0000
  C   C13       1.0  0.0222197001555315  0.1376844133470101  0.1095420440920307  1.0000
  C   C14       1.0  0.47778558505616087  0.8904615990573812  0.8623079006883146  1.0000
  C   C15       1.0  0.9777793656944456  0.8623099910600726  0.8904557811010819  1.0000
  C   C16       1.0  0.5222222243187532  0.10954821523057483  0.13769189449843822  1.0000
  C   C17       1.0  0.0237590103915224  0.262979914680443  0.1069145930454809  1.0000
  C   C18       1.0  0.47627533500597974  0.8930900179724189  0.7370094059815459  1.0000
  C   C19       1.0  0.9762338658678404  0.7370118049553581  0.8930835812275647  1.0000
  C   C20       1.0  0.5237384801604251  0.10692157244631054  0.2629900032290706  1.0000
  C   C21       1.0  0.7698441551762514  0.47325327112027765  0.20215377351293992  1.0000
  C   C22       1.0  0.7301640865853899  0.7978491096105313  0.526685265204499  1.0000
  C   C23       1.0  0.23014453402943497  0.52674576293235  0.7978469582250228  1.0000
  C   C24       1.0  0.26985515823061956  0.20215424383857072  0.4733098574919126  1.0000
  C   C25       1.0  0.7648361835459883  0.5088537061772482  0.33478076372760773  1.0000
  C   C26       1.0  0.7351855200340227  0.6652204233171516  0.49110886059753517  1.0000
  C   C27       1.0  0.23516638365021691  0.491144323608786  0.6652219361148044  1.0000
  C   C28       1.0  0.26481725984142207  0.3347785088955319  0.508891172350829  1.0000
  C   C29       1.0  0.7500114349519296  0.6281503457123205  0.37181785629996267  1.0000
  C   C30       1.0  0.24997568256640787  0.3718477853269702  0.628180925641253  1.0000
  C   C31       1.0  0.7699161494924242  0.4241404524677533  0.42510795496778553  1.0000
  C   C32       1.0  0.7300325250707189  0.5749081964462163  0.5758409634819301  1.0000
  C   C33       1.0  0.23008259275724197  0.5758594176946444  0.5748917837556036  1.0000
  C   C34       1.0  0.2699607916649427  0.4250926172930674  0.42415656811594  1.0000
  C   C35       1.0  0.749938812131177  0.4545973996349345  0.5454072728137547  1.0000
  C   C36       1.0  0.2500575847278271  0.5453979412372616  0.4545939735817656  1.0000
  N   N1        1.0  0.002353057264073786  0.32292020063091786  0.002773389966954198  1.0000
  N   N2        1.0  0.4977228033922146  0.9972140916398614  0.6770646966730497  1.0000
  N   N3        1.0  0.99762592175135  0.6770725274140472  0.9972246187284669  1.0000
  N   N4        1.0  0.5022920513175749  0.0027956717281227986  0.3229347491189004  1.0000
  O   O1        1.0  0.9288784724972816  0.5050877870675803  0.16330898446185677  1.0000
  O   O2        1.0  0.5710785077674885  0.8366892392596623  0.49487007484343354  1.0000
  O   O3        1.0  0.07110885723647438  0.49489760967905727  0.8366922054702997  1.0000
  O   O4        1.0  0.4289380199240043  0.16331506101096943  0.5051329753724474  1.0000
  O   O5        1.0  0.6209856347553356  0.41857677218781925  0.1438936787900005  1.0000
  O   O6        1.0  0.8790402698073336  0.8560931898644596  0.5813142626977665  1.0000
  O   O7        1.0  0.3789937751096843  0.5814250520319104  0.8561045884936648  1.0000
  O   O8        1.0  0.120988848389139  0.1439027976611768  0.418673336448137  1.0000
  O   O9        1.0  0.3084384166135195  0.556664758763901  0.08756717737956171  1.0000
  O   O10       1.0  0.1915831268228274  0.9124562259051598  0.44331703542992784  1.0000
  O   O11       1.0  0.6915440926282559  0.4433315884461634  0.9124330021749218  1.0000
  O   O12       1.0  0.8084521048422745  0.08754341095690418  0.5566945856443937  1.0000
  F   F1        1.0  0.7500296664691675  0.7137203771144128  0.2862122859298992  1.0000
  F   F2        1.0  0.2499581422477277  0.2862741054505661  0.7137846562734325  1.0000
  F   F3        1.0  0.7977808967894334  0.3087241504792144  0.3961513894805577  1.0000
  F   F4        1.0  0.7022083155342146  0.6039225056625098  0.691255761876306  1.0000
  F   F5        1.0  0.2022388512904101  0.6912819392478153  0.6038483502214973  1.0000
  F   F6        1.0  0.2977862149172594  0.39607739173781176  0.3087427444625064  1.0000
  F   F7        1.0  0.7498588275879146  0.36994375808844615  0.6300655212018853  1.0000
  F   F8        1.0  0.2501263506448339  0.6300516526565045  0.3699312371501976  1.0000
