data_image0
_chemical_formula_structural       Ho2Ag2H22C30N4O24
_chemical_formula_sum              "Ho2 Ag2 H22 C30 N4 O24"
_cell_length_a       7.495979565637011
_cell_length_b       8.189017981681257
_cell_length_c       14.197272741542143
_cell_angle_alpha    98.57372800644723
_cell_angle_beta     100.2635112422463
_cell_angle_gamma    95.04757117422302

_space_group_name_H-M_alt    "P 1"
_space_group_IT_number       1

loop_
  _space_group_symop_operation_xyz
  'x, y, z'

loop_
  _atom_site_type_symbol
  _atom_site_label
  _atom_site_symmetry_multiplicity
  _atom_site_fract_x
  _atom_site_fract_y
  _atom_site_fract_z
  _atom_site_occupancy
  Ho  Ho1       1.0  0.18883998277750888  0.7018411324085962  0.4200157036910995  1.0000
  Ho  Ho2       1.0  0.8111705343730479  0.2981664388489307  0.5799868587847925  1.0000
  Ag  Ag1       1.0  0.8297521205135752  0.600586704420465  0.967853069729735  1.0000
  Ag  Ag2       1.0  0.17024089380563376  0.39941233970068185  0.03214432739836332  1.0000
  H   H1        1.0  0.546851414576892  0.9164173882105544  0.23302487798330423  1.0000
  H   H2        1.0  0.4531470408245823  0.0835815856897639  0.7669751187106543  1.0000
  H   H3        1.0  0.7980675086458647  0.8109440042157419  0.3739163255879135  1.0000
  H   H4        1.0  0.2019336464475145  0.1890549511725794  0.6260832095189457  1.0000
  H   H5        1.0  0.874333292448462  0.8852377445819077  0.4840914051723716  1.0000
  H   H6        1.0  0.12566768817592333  0.1147599672918318  0.5159080028787386  1.0000
  H   H7        1.0  0.3634289141411244  0.38061379724958755  0.48001656798163594  1.0000
  H   H8        1.0  0.6365727310005128  0.6193889152399379  0.5199805301004404  1.0000
  H   H9        1.0  0.21517729030845353  0.44899501412717785  0.5403577332347709  1.0000
  H   H10       1.0  0.7848250193126703  0.5510027050889833  0.4596396826527639  1.0000
  H   H11       1.0  0.024243080999639212  0.9953080294142399  0.6688704472366497  1.0000
  H   H12       1.0  0.9757553660621454  0.004690951125439797  0.33112884490929423  1.0000
  H   H13       1.0  0.8345274915962834  0.9751295019960015  0.9367584936318424  1.0000
  H   H14       1.0  0.16546926085138844  0.024866997450843104  0.0632411274701496  1.0000
  H   H15       1.0  0.9657733142593302  0.5413355816756181  0.7848721324878696  1.0000
  H   H16       1.0  0.03422358763828022  0.45866218120390584  0.21512550202584188  1.0000
  H   H17       1.0  0.4760597336204882  0.30017150431378786  0.2602282248706232  1.0000
  H   H18       1.0  0.5239404080554095  0.699829957318741  0.7397707383192724  1.0000
  H   H19       1.0  0.7205687934918431  0.23799708674941666  0.004948952466257613  1.0000
  H   H20       1.0  0.2794292879525671  0.7619994200398424  0.9950486764721591  1.0000
  H   H21       1.0  0.6703617619644434  0.7147085715686502  0.13664543665514375  1.0000
  H   H22       1.0  0.329631235675393  0.2852904858312329  0.8633505513769322  1.0000
  C   C1        1.0  0.07213094965554487  0.6668981291018597  0.633298081922625  1.0000
  C   C2        1.0  0.9278725645314412  0.3330983141059393  0.3667014420336443  1.0000
  C   C3        1.0  0.005201229729358701  0.7581747784088224  0.7168841255081306  1.0000
  C   C4        1.0  0.9947987374775381  0.2418254397091247  0.2831147106260161  1.0000
  C   C5        1.0  0.9879369518285017  0.9274891993003113  0.7242257584867531  1.0000
  C   C6        1.0  0.012063023718077699  0.07251101217826772  0.27577378219540094  1.0000
  C   C7        1.0  0.9237190618329267  0.008758706284638203  0.8027703561090789  1.0000
  C   C8        1.0  0.0762778734234288  0.991239030037413  0.19723009659667673  1.0000
  C   C9        1.0  0.8829494067274412  0.9169698858988514  0.8732934635909899  1.0000
  C   C10       1.0  0.11704444654025543  0.08302540846351293  0.1267043783983155  1.0000
  C   C11       1.0  0.9569773246916571  0.6743170573909651  0.7887240049546165  1.0000
  C   C12       1.0  0.04302109735106541  0.3256819430668188  0.21127317354729774  1.0000
  C   C13       1.0  0.9001446157236047  0.19133023987593845  0.8100124997527588  1.0000
  C   C14       1.0  0.0998497442717152  0.8086687983088938  0.18998431430777885  1.0000
  C   C15       1.0  0.5004854152164313  0.6376613639944754  0.2835465840468317  1.0000
  C   C16       1.0  0.4995098004067486  0.36233391115283803  0.7164520839709356  1.0000
  C   C17       1.0  0.5613752449272128  0.5210532857179688  0.20708823163557355  1.0000
  C   C18       1.0  0.4386189489387959  0.47894450231291336  0.7929091599172295  1.0000
  C   C19       1.0  0.5366065765181318  0.34988470994958487  0.20472103345041154  1.0000
  C   C20       1.0  0.4633932078800811  0.6501142712931486  0.7952769710799714  1.0000
  C   C21       1.0  0.5969796777654536  0.2447990857682712  0.1331061448996778  1.0000
  C   C22       1.0  0.4030201149724419  0.7551998888350939  0.8668925641787129  1.0000
  C   C23       1.0  0.6734688886776469  0.31432107500059914  0.06319036287411714  1.0000
  C   C24       1.0  0.32652801321996355  0.6856766878789247  0.9368072716395944  1.0000
  C   C25       1.0  0.6463638279287452  0.5817243216832753  0.13755518927195712  1.0000
  C   C26       1.0  0.35363171161337464  0.4182734604112995  0.8624416192132858  1.0000
  C   C27       1.0  0.5961776467883482  0.06342712692662643  0.1375869351690611  1.0000
  C   C28       1.0  0.4038270386057477  0.936568066830276  0.8624118786639059  1.0000
  C   C29       1.0  0.4344468831238189  0.059738991793324196  0.48033869795619927  1.0000
  C   C30       1.0  0.5655675723454507  0.9402758693342222  0.5196803698713525  1.0000
  N   N1        1.0  0.8991464147278736  0.7526314159832169  0.8661573750536746  1.0000
  N   N2        1.0  0.100848958684935  0.24736511595740754  0.13384001092382652  1.0000
  N   N3        1.0  0.6983035398275065  0.48012250129127676  0.06601946533396592  1.0000
  N   N4        1.0  0.3016891088743279  0.5198740690794494  0.9339762685866049  1.0000
  O   O1        1.0  0.1397926415362747  0.7518027489530256  0.5780815129860173  1.0000
  O   O2        1.0  0.8602084885380491  0.24819622635339306  0.4219159084768124  1.0000
  O   O3        1.0  0.05853632972264928  0.5076331378316254  0.6223918923845275  1.0000
  O   O4        1.0  0.9414715954497411  0.49236575467828214  0.37760825012462373  1.0000
  O   O5        1.0  0.8715489047849232  0.2684115887096682  0.8885380905595428  1.0000
  O   O6        1.0  0.12844572141595023  0.7315886199567034  0.11146660058486195  1.0000
  O   O7        1.0  0.9143331162615597  0.2560560787629313  0.7343770839992275  1.0000
  O   O8        1.0  0.08566637757645879  0.7439403689750749  0.2656255982557242  1.0000
  O   O9        1.0  0.3807160055069899  0.5785935402538345  0.3255948229967985  1.0000
  O   O10       1.0  0.6192814448166787  0.4214079332513237  0.674405306328204  1.0000
  O   O11       1.0  0.5749798963972097  0.7884896475194482  0.30248357020948907  1.0000
  O   O12       1.0  0.42502071860980806  0.21150559060387053  0.6975141746340867  1.0000
  O   O13       1.0  0.5222445934513759  0.027013833751119907  0.21142968878073282  1.0000
  O   O14       1.0  0.47775964363066953  0.9729875635968882  0.7885724570425765  1.0000
  O   O15       1.0  0.6624153880295297  0.9656142396405658  0.08265221282783845  1.0000
  O   O16       1.0  0.33758477866543063  0.034387202073851604  0.917348864006094  1.0000
  O   O17       1.0  0.2708231750814534  0.9966509158089994  0.44474558704752104  1.0000
  O   O18       1.0  0.7291928999447421  0.0033664861656959033  0.5552668108918866  1.0000
  O   O19       1.0  0.49956703660541996  0.20975100544671227  0.4878605590635914  1.0000
  O   O20       1.0  0.5004444863251295  0.7902626771538268  0.5121539114592366  1.0000
  O   O21       1.0  0.9093932462939733  0.8273774273839082  0.4253636048035575  1.0000
  O   O22       1.0  0.0906078921200333  0.17262154128314228  0.5746345212072868  1.0000
  O   O23       1.0  0.28350433911210626  0.4693673363778572  0.48899607793686073  1.0000
  O   O24       1.0  0.7164944235289286  0.5306341577484516  0.511000650128544  1.0000
