data_image0
_chemical_formula_structural       Cu4H36C16I4N4
_chemical_formula_sum              "Cu4 H36 C16 I4 N4"
_cell_length_a       7.376344978050506
_cell_length_b       7.797461989715884
_cell_length_c       12.550879358998092
_cell_angle_alpha    89.99890204709871
_cell_angle_beta     90.00346686506914
_cell_angle_gamma    103.12088406562965

_space_group_name_H-M_alt    "P 1"
_space_group_IT_number       1

loop_
  _space_group_symop_operation_xyz
  'x, y, z'

loop_
  _atom_site_type_symbol
  _atom_site_label
  _atom_site_symmetry_multiplicity
  _atom_site_fract_x
  _atom_site_fract_y
  _atom_site_fract_z
  _atom_site_occupancy
  Cu  Cu1       1.0  0.46628337353879357  0.8466533168877818  0.5199376120361663  1.0000
  Cu  Cu2       1.0  0.5337152050494467  0.6533489755188101  0.0199200119909619  1.0000
  Cu  Cu3       1.0  0.5337124130490168  0.1533298669566605  0.4800777440302114  1.0000
  Cu  Cu4       1.0  0.46628901940373885  0.34667509385520395  0.9800770186051864  1.0000
  H   H1        1.0  0.23099623545292047  0.5447286753944879  0.40144902708492214  1.0000
  H   H2        1.0  0.7690075966401225  0.9552798425432699  0.9014459691232588  1.0000
  H   H3        1.0  0.7690232779336841  0.4552683454111276  0.5985527844929663  1.0000
  H   H4        1.0  0.2310059209462239  0.04474249844001581  0.0985526551741742  1.0000
  H   H5        1.0  0.25402215531575223  0.3467102346682154  0.46726187165533156  1.0000
  H   H6        1.0  0.745977638717754  0.1533013283987685  0.9672715785783339  1.0000
  H   H7        1.0  0.7459774891147718  0.6532810683942217  0.5327287849761575  1.0000
  H   H8        1.0  0.2540271355952655  0.8467266728939933  0.0327318260623031  1.0000
  H   H9        1.0  0.4345101157721345  0.3733855525440077  0.6355721162116126  1.0000
  H   H10       1.0  0.5655224156373749  0.12657561404120093  0.1355783348037392  1.0000
  H   H11       1.0  0.5655011417695947  0.6265718935619304  0.3644225246113493  1.0000
  H   H12       1.0  0.43448053841952844  0.8734198760734416  0.8644171024098739  1.0000
  H   H13       1.0  0.5356574916196025  0.5874909288704658  0.6865135416414176  1.0000
  H   H14       1.0  0.46438608155987987  0.9124975845999471  0.1865024128757398  1.0000
  H   H15       1.0  0.4643508971799122  0.4124947137177983  0.313496237354542  1.0000
  H   H16       1.0  0.5356335906481249  0.08753955629642012  0.813491430917459  1.0000
  H   H17       1.0  0.12521488724985366  0.4298639444813475  0.6251705957668605  1.0000
  H   H18       1.0  0.8747895456380164  0.07010779298150989  0.1252091984581796  1.0000
  H   H19       1.0  0.8747924131373638  0.570094429682932  0.3748112968644932  1.0000
  H   H20       1.0  0.12518936574478803  0.9299398104712537  0.8748197018017336  1.0000
  H   H21       1.0  0.09396228535135981  0.6186286915788984  0.5538369152820835  1.0000
  H   H22       1.0  0.9060668299845319  0.8813549692745822  0.0538573905106503  1.0000
  H   H23       1.0  0.9060529284683482  0.38132782660046866  0.44615135156634983  1.0000
  H   H24       1.0  0.0939733473272639  0.11870217885189761  0.946169120600203  1.0000
  H   H25       1.0  0.2855135699006865  0.6266473763907997  0.7727638471207711  1.0000
  H   H26       1.0  0.7144524782649171  0.8732841830722293  0.2727794597976185  1.0000
  H   H27       1.0  0.7144773425273668  0.37333018240009597  0.2272156548213786  1.0000
  H   H28       1.0  0.2855133786781323  0.12674798269418366  0.7272494402962835  1.0000
  H   H29       1.0  0.06798280049697783  0.6756313452547362  0.7429758425247214  1.0000
  H   H30       1.0  0.9320201803074468  0.8242822979635775  0.2429963404264157  1.0000
  H   H31       1.0  0.932025903958703  0.3242883470671885  0.2570092373718893  1.0000
  H   H32       1.0  0.06800428006460632  0.17575011037421004  0.7570245932196328  1.0000
  H   H33       1.0  0.2766760099543931  0.815622610749017  0.6942191480039313  1.0000
  H   H34       1.0  0.7232788912017158  0.684291554680513  0.19419811651785326  1.0000
  H   H35       1.0  0.7232672771403231  0.1843065588568606  0.3057754916709001  1.0000
  H   H36       1.0  0.27669959100605024  0.31570426059082735  0.8058044910374704  1.0000
  C   C1        1.0  0.3247449130885088  0.48472112160970243  0.4494876246994934  1.0000
  C   C2        1.0  0.6752757219544776  0.015256539101763215  0.949527996057988  1.0000
  C   C3        1.0  0.6752895207712939  0.5152462296319911  0.5504735527228064  1.0000
  C   C4        1.0  0.3247554793412277  0.9847363869295124  0.050504092529138206  1.0000
  C   C5        1.0  0.4991917021400525  0.510898843761545  0.6131526633787061  1.0000
  C   C6        1.0  0.5008544397715013  0.9890889521449894  0.11316759377709219  1.0000
  C   C7        1.0  0.500847507626851  0.4890831796508196  0.38683002649207054  1.0000
  C   C8        1.0  0.4991818043518493  0.010930314663688991  0.8868453725970582  1.0000
  C   C9        1.0  0.1868514234924206  0.5704295949071961  0.6090080000815661  1.0000
  C   C10       1.0  0.8131072188081846  0.9295489113310823  0.1089901294003397  1.0000
  C   C11       1.0  0.8131163130193075  0.4295380586875553  0.39101372958739944  1.0000
  C   C12       1.0  0.1868460208905134  0.07050020083801199  0.8909782168334957  1.0000
  C   C13       1.0  0.20686523829076722  0.677831883171507  0.71075286070473  1.0000
  C   C14       1.0  0.7931282298016245  0.8221229972063215  0.2107433614566006  1.0000
  C   C15       1.0  0.7931209003484696  0.32213100313030196  0.2892513406904555  1.0000
  C   C16       1.0  0.20686990162127467  0.17793543930876868  0.7892584493771723  1.0000
  I   I1        1.0  0.24350438805701913  0.9634279908145656  0.3934913684772497  1.0000
  I   I2        1.0  0.7564737779875942  0.536587387758871  0.8934804401196601  1.0000
  I   I3        1.0  0.7564927663397186  0.03657472529840789  0.606521597238185  1.0000
  I   I4        1.0  0.243483893854517  0.4634349660994345  0.1064791420186779  1.0000
  N   N1        1.0  0.36493354640067116  0.5852596719767577  0.5503748019966537  1.0000
  N   N2        1.0  0.6350510698288405  0.9147587640515695  0.0503893110483702  1.0000
  N   N3        1.0  0.6350504546827764  0.41473665366032014  0.4496102770093415  1.0000
  N   N4        1.0  0.3649270106174712  0.08529264389044762  0.9496268410641521  1.0000
