data_image0
_chemical_formula_structural       Cu2H32C12N4O10
_chemical_formula_sum              "Cu2 H32 C12 N4 O10"
_cell_length_a       7.736690482056244
_cell_length_b       8.789966441946495
_cell_length_c       8.837918401962066
_cell_angle_alpha    105.65938498662894
_cell_angle_beta     94.54080704945393
_cell_angle_gamma    110.71881476446129

_space_group_name_H-M_alt    "P 1"
_space_group_IT_number       1

loop_
  _space_group_symop_operation_xyz
  'x, y, z'

loop_
  _atom_site_type_symbol
  _atom_site_label
  _atom_site_symmetry_multiplicity
  _atom_site_fract_x
  _atom_site_fract_y
  _atom_site_fract_z
  _atom_site_occupancy
  Cu  Cu1       1.0  3.2194427040537077e-07  0.9999990991445104  0.999997091897768  1.0000
  Cu  Cu2       1.0  0.9999983762750732  0.4999944265239337  8.951003351903766e-06  1.0000
  H   H1        1.0  0.8076557000682457  0.7807179593815408  0.1168912816573169  1.0000
  H   H2        1.0  0.19234673394748827  0.21927909346204907  0.8831088283819852  1.0000
  H   H3        1.0  0.6589445323710096  0.8466644526864262  0.034573036144521986  1.0000
  H   H4        1.0  0.34106050966608603  0.15332804203837475  0.9654261149814546  1.0000
  H   H5        1.0  0.8884323383421208  0.7131882797941176  0.7792292860704606  1.0000
  H   H6        1.0  0.11156789788163485  0.286814650319542  0.22077325629911118  1.0000
  H   H7        1.0  0.7388042330308552  0.8071476790818015  0.7552196931535349  1.0000
  H   H8        1.0  0.26119300296223713  0.1928537273444704  0.24478458272925963  1.0000
  H   H9        1.0  0.7668754701819084  0.5267055546905511  0.5275316244444141  1.0000
  H   H10       1.0  0.23314563216736423  0.4733101056988149  0.4724819237580604  1.0000
  H   H11       1.0  0.6174553203857799  0.3026286093171251  0.44843075950682726  1.0000
  H   H12       1.0  0.3825539413259664  0.6973837029467946  0.5515654807944443  1.0000
  H   H13       1.0  0.8510988717644352  0.37509433446741997  0.4184284062565311  1.0000
  H   H14       1.0  0.14891390405971097  0.6249161548466237  0.5815721149416789  1.0000
  H   H15       1.0  0.5966612420407815  0.6827823135932366  0.2546027072071695  1.0000
  H   H16       1.0  0.4033411062544375  0.31721857021950944  0.7454028533039362  1.0000
  H   H17       1.0  0.5487823944662367  0.5218560746080884  0.3501130427508842  1.0000
  H   H18       1.0  0.45116524704040745  0.4781017313779617  0.649864411929272  1.0000
  H   H19       1.0  0.39435851869409083  0.48789763067291875  0.174328869196394  1.0000
  H   H20       1.0  0.6056508108063313  0.5121116854412336  0.8256519291680461  1.0000
  H   H21       1.0  0.9595381024241547  0.798965850308669  0.5471626352907393  1.0000
  H   H22       1.0  0.040453874798352316  0.20104069608647995  0.45283466848232473  1.0000
  H   H23       1.0  0.929645652429912  0.9924510295351755  0.6391460128748889  1.0000
  H   H24       1.0  0.07035301040014734  0.007555411330223211  0.36085842423467807  1.0000
  H   H25       1.0  0.2725525712173536  0.043179125013544706  0.6582941778134311  1.0000
  H   H26       1.0  0.727438799626981  0.9568250252450102  0.34170591156674135  1.0000
  H   H27       1.0  0.24356496080738316  0.8917807690149717  0.7614177948575787  1.0000
  H   H28       1.0  0.7564220257854617  0.10821687155025476  0.23858501329723944  1.0000
  H   H29       1.0  0.26783672005333176  0.7921050736206187  0.0077532878437410685  1.0000
  H   H30       1.0  0.732165071632288  0.20789518056068365  0.992237368320808  1.0000
  H   H31       1.0  0.19117443475072093  0.8183548222137419  0.17220225560456728  1.0000
  H   H32       1.0  0.8088311956444443  0.1816448313025704  0.8277918618974667  1.0000
  C   C1        1.0  0.7609528013993838  0.39612178391519864  0.5049232228052389  1.0000
  C   C2        1.0  0.2390560680148114  0.6038883743780662  0.49508153554411644  1.0000
  C   C3        1.0  0.5426011782979501  0.5444699207727768  0.23406765200412144  1.0000
  C   C4        1.0  0.45739981086072135  0.45552686028660383  0.7659300487915742  1.0000
  C   C5        1.0  0.018422087676697205  0.10211453453427313  0.3376572705399283  1.0000
  C   C6        1.0  0.9815699075659127  0.8978872492059582  0.6623422812499697  1.0000
  C   C7        1.0  0.6520000403483479  0.4570729345934553  0.134797987895837  1.0000
  C   C8        1.0  0.34801514048421484  0.5429262737089718  0.8652169264067454  1.0000
  C   C9        1.0  0.8100553803243357  0.014486409059308926  0.2609895997947547  1.0000
  C   C10       1.0  0.18993777808258028  0.9855105447779098  0.7390065838382041  1.0000
  C   C11       1.0  0.8236479383713232  0.3652565400255414  0.6569793296241571  1.0000
  C   C12       1.0  0.1763398258641757  0.6347436904090316  0.3430252788763397  1.0000
  N   N1        1.0  0.7899131051793732  0.8884796568504998  0.1047518571043611  1.0000
  N   N2        1.0  0.21009228625089096  0.11151887124729853  0.895245372933523  1.0000
  N   N3        1.0  0.12201975639429462  0.17282390152632843  0.22211680134191877  1.0000
  N   N4        1.0  0.8779778041959504  0.827178727184837  0.7778866549814224  1.0000
  O   O1        1.0  0.171850844746146  0.8250620518783834  0.061308897163002  1.0000
  O   O2        1.0  0.8281592983488792  0.17494425663081614  0.9386859410289786  1.0000
  O   O3        1.0  0.794229914674176  0.5557193014312745  0.0930294509587881  1.0000
  O   O4        1.0  0.2057796579946257  0.4442790134670391  0.9069804123221559  1.0000
  O   O5        1.0  0.596876446144563  0.296049260174165  0.09936991057882241  1.0000
  O   O6        1.0  0.40312795347415437  0.7039503637238698  0.9006275301205874  1.0000
  O   O7        1.0  0.8988797850450256  0.500212914301358  0.7829839789050652  1.0000
  O   O8        1.0  0.10112158945874947  0.4997843026567142  0.21702404028440012  1.0000
  O   O9        1.0  0.7986250867970384  0.21451026406976595  0.6511157111496075  1.0000
  O   O10       1.0  0.20137577391326297  0.7854863716900484  0.3488785501814959  1.0000
