data_image0
_chemical_formula_structural       Zn2H28C30Br2N2O8
_chemical_formula_sum              "Zn2 H28 C30 Br2 N2 O8"
_cell_length_a       9.594803288275788
_cell_length_b       10.867911099724779
_cell_length_c       16.121639372463882
_cell_angle_alpha    90.37292856835819
_cell_angle_beta     89.26036875501416
_cell_angle_gamma    89.77268890145942

_space_group_name_H-M_alt    "P 1"
_space_group_IT_number       1

loop_
  _space_group_symop_operation_xyz
  'x, y, z'

loop_
  _atom_site_type_symbol
  _atom_site_label
  _atom_site_symmetry_multiplicity
  _atom_site_fract_x
  _atom_site_fract_y
  _atom_site_fract_z
  _atom_site_occupancy
  Zn  Zn1       1.0  0.6482995942601804  0.49982843355299167  0.49848213730799507  1.0000
  Zn  Zn2       1.0  0.3554705287318356  0.5024380811198769  0.500249643731422  1.0000
  H   H1        1.0  0.39471499037698277  0.6893380693387173  0.055613713161946486  1.0000
  H   H2        1.0  0.7022433989302287  0.11041302345888937  0.4487456763689862  1.0000
  H   H3        1.0  0.4776221330052977  0.10960572343994808  0.3685510717921402  1.0000
  H   H4        1.0  0.3095797127147151  0.8921295230088905  0.5724889135490299  1.0000
  H   H5        1.0  0.46353079271795383  0.8896748888432171  0.6312393269478418  1.0000
  H   H6        1.0  0.46579079638490134  0.10453584556572085  0.6356142799470914  1.0000
  H   H7        1.0  0.3094384447943527  0.10791616242430277  0.5791028156551048  1.0000
  H   H8        1.0  0.3197491644510819  0.8928626121890488  0.42084859677126457  1.0000
  H   H9        1.0  0.3156631082675716  0.10781110057111927  0.4220766989982819  1.0000
  H   H10       1.0  0.12731614937843014  0.6958353209133891  0.4998161041406558  1.0000
  H   H11       1.0  0.6290586358021457  0.6773763552230321  0.9463451437465477  1.0000
  H   H12       1.0  0.10622083598554609  0.6272707941232126  0.59860395150298  1.0000
  H   H13       1.0  0.8609833925940649  0.6425610710168997  0.5796274232963936  1.0000
  H   H14       1.0  0.8834159063237764  0.685719574251877  0.4748965826593831  1.0000
  H   H15       1.0  0.12665537948178957  0.5642101837948132  0.3772757960236887  1.0000
  H   H16       1.0  0.8813892011845539  0.5390996873431533  0.36902975439656405  1.0000
  H   H17       1.0  0.1235827577852859  0.3139825372275454  0.5243700333401049  1.0000
  H   H18       1.0  0.128277034574424  0.4090417141160573  0.6139571173862277  1.0000
  H   H19       1.0  0.8801652675155084  0.4295660157380824  0.6160833740356464  1.0000
  H   H20       1.0  0.8774163145973972  0.31319891274870315  0.5385333326076844  1.0000
  H   H21       1.0  0.14314564706853622  0.40329052096662116  0.3881599584370575  1.0000
  H   H22       1.0  0.2573929704774827  0.5123150689261492  0.9555006172643059  1.0000
  H   H23       1.0  0.3719120044258872  0.32208653377463753  0.05390547993661697  1.0000
  H   H24       1.0  0.6067177143226985  0.3100176466041233  0.9451751393578928  1.0000
  H   H25       1.0  0.7438012956686252  0.4872853777163116  0.04514763902895418  1.0000
  H   H26       1.0  0.7101952826505809  0.8957352781464322  0.4501903854881417  1.0000
  H   H27       1.0  0.697735125846947  0.8960007521910359  0.5593283786905656  1.0000
  H   H28       1.0  0.698942211861926  0.11157270837498597  0.5578096666078449  1.0000
  C   C1        1.0  0.4975371730029536  0.7402611555013934  0.4991613777892423  1.0000
  C   C2        1.0  0.5054074387631926  0.499412988272269  0.08537995208475727  1.0000
  C   C3        1.0  0.5598305471372669  0.3942723257863536  0.9705849533546167  1.0000
  C   C4        1.0  0.49609896534050796  0.4999365734408627  0.9150499870769975  1.0000
  C   C5        1.0  0.4288936840662602  0.40100652173193674  0.029182809358772484  1.0000
  C   C6        1.0  0.3654021582414374  0.5067117221531561  0.976012244469423  1.0000
  C   C7        1.0  0.5082163178064505  0.5009043442389256  0.17304235975831256  1.0000
  C   C8        1.0  0.4967673428555628  0.5009230215976217  0.8273107277216523  1.0000
  C   C9        1.0  0.6491373274583979  0.9318520867324483  0.5030849418672927  1.0000
  C   C10       1.0  0.6464609652702507  0.07392089591464672  0.5030510435095008  1.0000
  C   C11       1.0  0.424736006378531  0.9317502848194227  0.4228372603952194  1.0000
  C   C12       1.0  0.5111259576811591  0.5038395931154654  0.33802082925210886  1.0000
  C   C13       1.0  0.4161195488904069  0.9285965195012552  0.575428088897773  1.0000
  C   C14       1.0  0.5005392500009833  0.8810614212602349  0.49865494927309567  1.0000
  C   C15       1.0  0.49562969473149115  0.1217435031747272  0.5026277399931087  1.0000
  C   C16       1.0  0.423553418899445  0.07347869229790403  0.42359680480165435  1.0000
  C   C17       1.0  0.41615005516084846  0.07100151290638482  0.5786994345413843  1.0000
  C   C18       1.0  0.07706861742808263  0.6200107622579482  0.5331490049252281  1.0000
  C   C19       1.0  0.917310679826322  0.6198378788126888  0.5219012744608447  1.0000
  C   C20       1.0  0.0908047233671851  0.4851058513103795  0.4136757119407263  1.0000
  C   C21       1.0  0.0830430836869667  0.3993785475170881  0.5520584526658465  1.0000
  C   C22       1.0  0.9307439856997559  0.47365272165213684  0.41089411226837297  1.0000
  C   C23       1.0  0.4905267636696705  0.26231480044165073  0.5021342674984408  1.0000
  C   C24       1.0  0.9222502040154623  0.4025307990662057  0.5550593632963936  1.0000
  C   C25       1.0  0.5066828608270058  0.5029504559389366  0.6620988534811827  1.0000
  C   C26       1.0  0.5723755333550855  0.59851091502793  0.971381034337959  1.0000
  C   C27       1.0  0.4415006275763887  0.605228415040969  0.029927040243862287  1.0000
  C   C28       1.0  0.5103322543292421  0.5031342265727686  0.24861086184770181  1.0000
  C   C29       1.0  0.5017080418113977  0.5022575343383978  0.7516815388930806  1.0000
  C   C30       1.0  0.6359536256535918  0.4928284069650104  0.024400526123727694  1.0000
  Br  Br1       1.0  0.5098572841794892  0.8661287328245776  0.317736896329876  1.0000
  Br  Br2       1.0  0.8797879057858612  0.31228674338404977  0.364499920189587  1.0000
  N   N1        1.0  0.1367669623671546  0.5027353436625646  0.5004526373043345  1.0000
  N   N2        1.0  0.8691180991058048  0.494747567127888  0.49493200410880417  1.0000
  O   O1        1.0  0.6105358746140228  0.6846536129682975  0.5152661391087745  1.0000
  O   O2        1.0  0.38060458150403054  0.6893721288519714  0.4855209451304815  1.0000
  O   O3        1.0  0.6264717922665141  0.5279254574525467  0.3728143989211714  1.0000
  O   O4        1.0  0.39602462606143257  0.47928421482485817  0.3746087058278319  1.0000
  O   O5        1.0  0.6050812311556655  0.3181824290811975  0.4901494192052524  1.0000
  O   O6        1.0  0.37214956805041066  0.31361236993281955  0.5126977687501364  1.0000
  O   O7        1.0  0.6252114435171023  0.4840841529332849  0.6276118005925182  1.0000
  O   O8        1.0  0.3912742545944994  0.5223101366451176  0.6257220768961387  1.0000
