data_image0
_chemical_formula_structural       Gd4H24C8Cl4O28
_chemical_formula_sum              "Gd4 H24 C8 Cl4 O28"
_cell_length_a       5.845621859773216
_cell_length_b       8.22312699830584
_cell_length_c       15.55590004400808
_cell_angle_alpha    89.99996376224432
_cell_angle_beta     90.00011663483696
_cell_angle_gamma    105.04366521489509

_space_group_name_H-M_alt    "P 1"
_space_group_IT_number       1

loop_
  _space_group_symop_operation_xyz
  'x, y, z'

loop_
  _atom_site_type_symbol
  _atom_site_label
  _atom_site_symmetry_multiplicity
  _atom_site_fract_x
  _atom_site_fract_y
  _atom_site_fract_z
  _atom_site_occupancy
  Gd  Gd1       1.0  0.9812044726659792  0.16874539456160417  0.39185809674101785  1.0000
  Gd  Gd2       1.0  0.5187971861372703  0.33125911009435777  0.891852747891221  1.0000
  Gd  Gd3       1.0  0.018793410431243298  0.8312591505245449  0.6081466108602881  1.0000
  Gd  Gd4       1.0  0.48120539302239973  0.6687442050819355  0.1081416742255783  1.0000
  H   H1        1.0  0.3399725689374122  0.49720020432656753  0.3329380285710641  1.0000
  H   H2        1.0  0.16004503852873608  0.0027989643539712006  0.8329341862354411  1.0000
  H   H3        1.0  0.6600440985128915  0.5027994211167623  0.6670641076666328  1.0000
  H   H4        1.0  0.8399613437373648  0.997200602509679  0.1670634500979915  1.0000
  H   H5        1.0  0.49800152218909244  0.3794365908290231  0.3682951119225208  1.0000
  H   H6        1.0  0.0020081501551345985  0.1205637820363279  0.8682898226133703  1.0000
  H   H7        1.0  0.5020078419888564  0.6205617363599598  0.6317089528413292  1.0000
  H   H8        1.0  0.998003892982112  0.8794421003580056  0.1317078137211425  1.0000
  H   H9        1.0  0.2121756870938399  0.9550631849569273  0.27785204955383586  1.0000
  H   H10       1.0  0.2878334174481979  0.5449376810720211  0.7778521475097122  1.0000
  H   H11       1.0  0.787828678062219  0.0449451670221634  0.7221468724631279  1.0000
  H   H12       1.0  0.7121772862059573  0.45506442371974737  0.2221474173536535  1.0000
  H   H13       1.0  0.3774593332216655  0.13643627061760807  0.26662307346161646  1.0000
  H   H14       1.0  0.12254979458866444  0.3635641200747913  0.7666152214676885  1.0000
  H   H15       1.0  0.6225522634435947  0.8635683525751361  0.7333835626736375  1.0000
  H   H16       1.0  0.8774604625504667  0.6364367255168019  0.2333772721237466  1.0000
  H   H17       1.0  0.6458520086803435  0.8336192274052437  0.3236991494679557  1.0000
  H   H18       1.0  0.8541475592602907  0.6663907837836477  0.8236986135663429  1.0000
  H   H19       1.0  0.3541549636666872  0.16639165273867457  0.6763010582353886  1.0000
  H   H20       1.0  0.1458491279145875  0.3336200377802  0.17630159413307922  1.0000
  H   H21       1.0  0.8307210744070019  0.7925866902045229  0.3912054465054098  1.0000
  H   H22       1.0  0.6692702123088666  0.7074182332915983  0.8912034694691684  1.0000
  H   H23       1.0  0.16928284425297596  0.2074204025737671  0.6087934755115967  1.0000
  H   H24       1.0  0.33071999278479325  0.29258878138004013  0.10879416685679642  1.0000
  C   C1        1.0  0.056810839543537384  0.46417599454297687  0.5381520242414197  1.0000
  C   C2        1.0  0.4431831357280487  0.03580927698185119  0.03815096125901359  1.0000
  C   C3        1.0  0.9431833280001674  0.5358084228573148  0.4618501119902874  1.0000
  C   C4        1.0  0.5567934433608174  0.964173783584364  0.9618492464374881  1.0000
  C   C5        1.0  0.4418083405933189  0.04859292159545699  0.46834271736041444  1.0000
  C   C6        1.0  0.05819151063382581  0.4514023481074005  0.9683437857861465  1.0000
  C   C7        1.0  0.558185077525849  0.9513990314832698  0.5316555618122791  1.0000
  C   C8        1.0  0.9418143533523777  0.548590932515431  0.0316557790768854  1.0000
  Cl  Cl1       1.0  0.7904683505322796  0.21808873268287243  0.2287841981573351  1.0000
  Cl  Cl2       1.0  0.7095388451871187  0.28191458041819567  0.7287822263119067  1.0000
  Cl  Cl3       1.0  0.20952983546413148  0.7819070175250002  0.7712134381736178  1.0000
  Cl  Cl4       1.0  0.2904684300711511  0.7180875048470556  0.2712154100214335  1.0000
  O   O1        1.0  0.08042004667653659  0.31563025975977144  0.5283641326857307  1.0000
  O   O2        1.0  0.4195753592450303  0.18436884516315646  0.028364929147976208  1.0000
  O   O3        1.0  0.919586853890124  0.6843755933440149  0.4716392892329822  1.0000
  O   O4        1.0  0.580399202745845  0.8156230005181014  0.971641064132399  1.0000
  O   O5        1.0  0.11604023061000392  0.5566879225853754  0.6031537343440334  1.0000
  O   O6        1.0  0.38394915392103  0.9433178937181381  0.10314798618284023  1.0000
  O   O7        1.0  0.8839527410457821  0.443302771291492  0.3968567588439242  1.0000
  O   O8        1.0  0.6160294982960366  0.05669031181104599  0.896847721609781  1.0000
  O   O9        1.0  0.574523480161247  0.14727010183311504  0.4167327512293825  1.0000
  O   O10       1.0  0.9254582755709322  0.35271166450348085  0.9167289916313877  1.0000
  O   O11       1.0  0.42545309892934574  0.8527129587330363  0.5832680993100183  1.0000
  O   O12       1.0  0.07452560678168395  0.6472726943173652  0.0832660733244239  1.0000
  O   O13       1.0  0.21795974024834663  0.021153101438990504  0.4736325907755656  1.0000
  O   O14       1.0  0.2820311218425999  0.4788408593186517  0.9736357494543102  1.0000
  O   O15       1.0  0.7820230179846703  0.9788425608989401  0.5263631170207859  1.0000
  O   O16       1.0  0.7179683318651372  0.5211536414513773  0.026366386777688402  1.0000
  O   O17       1.0  0.33597462038031983  0.39154655068601574  0.3640027858119765  1.0000
  O   O18       1.0  0.16403540369662303  0.108450055092419  0.8640027672924049  1.0000
  O   O19       1.0  0.6640369044804686  0.6084530454673853  0.6359980647379473  1.0000
  O   O20       1.0  0.8359722462739188  0.8915482623336075  0.1359967975704492  1.0000
  O   O21       1.0  0.21472257332677466  0.0755793803012068  0.28157297633809725  1.0000
  O   O22       1.0  0.28528492037491304  0.4244209980059567  0.7815722991371317  1.0000
  O   O23       1.0  0.785281345338362  0.9244277124769199  0.7184278742076345  1.0000
  O   O24       1.0  0.7147236225826319  0.5755798378218415  0.2184253371969049  1.0000
  O   O25       1.0  0.7999841097574889  0.8806880656379618  0.3517657216123311  1.0000
  O   O26       1.0  0.7000194115991363  0.6193181923174292  0.851765726876593  1.0000
  O   O27       1.0  0.20002107659831844  0.1193177777029888  0.6482319147195597  1.0000
  O   O28       1.0  0.29998368585936674  0.38069140909905735  0.1482338379825805  1.0000
