data_image0
_chemical_formula_structural       Al2H12C22S2O12
_chemical_formula_sum              "Al2 H12 C22 S2 O12"
_cell_length_a       6.598270028036538
_cell_length_b       12.930042794184422
_cell_length_c       15.373197441402601
_cell_angle_alpha    71.60214790823123
_cell_angle_beta     76.33257995720638
_cell_angle_gamma    70.66063533009658

_space_group_name_H-M_alt    "P 1"
_space_group_IT_number       1

loop_
  _space_group_symop_operation_xyz
  'x, y, z'

loop_
  _atom_site_type_symbol
  _atom_site_label
  _atom_site_symmetry_multiplicity
  _atom_site_fract_x
  _atom_site_fract_y
  _atom_site_fract_z
  _atom_site_occupancy
  Al  Al1       1.0  0.49996686488721326  0.4999610802290633  0.5000251715250241  1.0000
  Al  Al2       1.0  1.8625127744201734e-05  0.4999325110129433  0.50001319935307  1.0000
  H   H1        1.0  0.30198115343105064  0.36292307607417484  0.5748762486688148  1.0000
  H   H2        1.0  0.6980719268734035  0.6369766669091421  0.4251397258395996  1.0000
  H   H3        1.0  0.9416952334114941  0.4694917405629371  0.770856875300623  1.0000
  H   H4        1.0  0.8716417039817446  0.4678575630745456  0.9357525800398032  1.0000
  H   H5        1.0  0.05841448051292991  0.5305831323365738  0.2291137249518726  1.0000
  H   H6        1.0  0.12845350801107008  0.532312234295297  0.06420361310999569  1.0000
  H   H7        1.0  0.7397534927179521  0.46263060208715256  0.2302505120224366  1.0000
  H   H8        1.0  0.8154762788547674  0.46307164415932084  0.0655600823108742  1.0000
  H   H9        1.0  0.2602944984797589  0.5374759031125722  0.7697504591231732  1.0000
  H   H10       1.0  0.18459711846926294  0.5371249380372236  0.9344259407634464  1.0000
  H   H11       1.0  0.5151686547459067  0.8927877584887867  0.4478110640496452  1.0000
  H   H12       1.0  0.48472812586635433  0.10714058525369556  0.55216913942818  1.0000
  C   C1        1.0  0.8742586866169687  0.29986571674536583  0.5151317999305502  1.0000
  C   C2        1.0  0.6519078181085477  0.49992882890437335  0.661041986957194  1.0000
  C   C3        1.0  0.12571374886974257  0.700036157124316  0.48489184792914114  1.0000
  C   C4        1.0  0.34808131670772013  0.5000102936370682  0.33897640122846423  1.0000
  C   C5        1.0  0.6058818513637051  0.5026512135825173  0.7600582561093102  1.0000
  C   C6        1.0  0.3941773427564359  0.4974096741883187  0.23991970931142956  1.0000
  C   C7        1.0  0.7762637763732698  0.4841099594279543  0.8079209873848893  1.0000
  C   C8        1.0  0.7345470404461595  0.48343716748618  0.9009841064086853  1.0000
  C   C9        1.0  0.2237839030612961  0.5160247166375528  0.19205695031163114  1.0000
  C   C10       1.0  0.2655515912439341  0.5167196561152212  0.09899161734465167  1.0000
  C   C11       1.0  0.607152189444193  0.4779867241899539  0.19276907120872971  1.0000
  C   C12       1.0  0.6477392979647265  0.4786375187158001  0.09971258706992354  1.0000
  C   C13       1.0  0.3928972605197532  0.5221292485431732  0.8072183706619638  1.0000
  C   C14       1.0  0.3523433313651409  0.521562505415034  0.9002607947201039  1.0000
  C   C15       1.0  0.5218061070599165  0.50135462881358  0.9501110199733412  1.0000
  C   C16       1.0  0.4783079594455587  0.4988268904109817  0.0498511745260046  1.0000
  C   C17       1.0  0.2205157638447094  0.8823104052219363  0.47031868627190204  1.0000
  C   C18       1.0  0.7793852618056506  0.11761570223203684  0.5296647466263449  1.0000
  C   C19       1.0  0.0750666578985318  0.8179784352487901  0.487503817048676  1.0000
  C   C20       1.0  0.9249143096146285  0.18192229046494654  0.5125001569587653  1.0000
  C   C21       1.0  0.8882873634340742  0.008314392318176525  0.514374540067976  1.0000
  C   C22       1.0  0.1115694440280991  0.9916158542287549  0.48560932548588176  1.0000
  S   S1        1.0  0.8088658405174346  0.8900309809844843  0.5245336027450589  1.0000
  S   S2        1.0  0.19101625349377124  0.10988323896228278  0.4754655031650186  1.0000
  O   O1        1.0  0.6745196643966055  0.3489959995294002  0.5361583706536662  1.0000
  O   O2        1.0  0.8513214241706922  0.4746512735832057  0.6248741190665041  1.0000
  O   O3        1.0  0.9701598394530749  0.6547289875618038  0.5037076652561152  1.0000
  O   O4        1.0  0.5099923397279369  0.4788305656962566  0.37975273263983655  1.0000
  O   O5        1.0  0.3254670094070988  0.6509267923193037  0.4638551207989962  1.0000
  O   O6        1.0  0.14863279636391988  0.5252103379696252  0.3751482295919855  1.0000
  O   O7        1.0  0.029888959411209733  0.34512147309628466  0.4963156534671922  1.0000
  O   O8        1.0  0.4899336833608601  0.5211034803977413  0.620300983079346  1.0000
  O   O9        1.0  0.258857200831436  0.44433773568925256  0.5481691097731767  1.0000
  O   O10       1.0  0.7411159919283893  0.5555532702276623  0.4518766050392669  1.0000
  O   O11       1.0  0.4352373107960545  0.8439329110936317  0.44209541968103117  1.0000
  O   O12       1.0  0.5646378247438548  0.15600376631645227  0.5579124320764348  1.0000
