data_image0
_chemical_formula_structural       Zn6H18C24O24
_chemical_formula_sum              "Zn6 H18 C24 O24"
_cell_length_a       6.85726832118535
_cell_length_b       15.152493994347465
_cell_length_c       15.156346124958192
_cell_angle_alpha    117.79656673309783
_cell_angle_beta     98.65764380585672
_cell_angle_gamma    98.67070031037754

_space_group_name_H-M_alt    "P 1"
_space_group_IT_number       1

loop_
  _space_group_symop_operation_xyz
  'x, y, z'

loop_
  _atom_site_type_symbol
  _atom_site_label
  _atom_site_symmetry_multiplicity
  _atom_site_fract_x
  _atom_site_fract_y
  _atom_site_fract_z
  _atom_site_occupancy
  Zn  Zn1       1.0  0.7036378923642983  0.739926581526383  0.3236417844376547  1.0000
  Zn  Zn2       1.0  0.963515979058087  0.5835611135488247  0.26009651970220904  1.0000
  Zn  Zn3       1.0  0.37986203602390106  0.6763348522521678  0.4163285412244447  1.0000
  Zn  Zn4       1.0  0.2963595016371484  0.2600775606106111  0.6763572287702145  1.0000
  Zn  Zn5       1.0  0.036484055234645006  0.41644225844025573  0.7399082449285429  1.0000
  Zn  Zn6       1.0  0.6201475193099383  0.3236669765182397  0.5836734873630149  1.0000
  H   H1        1.0  0.15822137828286026  0.02529121911491929  0.45756598291286815  1.0000
  H   H2        1.0  0.1329511265328591  0.43237922240982835  0.9748322362277406  1.0000
  H   H3        1.0  0.7005700270084319  0.5424866175265703  0.5676881872143936  1.0000
  H   H4        1.0  0.8417749107996072  0.9747075272079468  0.5424396733406807  1.0000
  H   H5        1.0  0.8670440140952065  0.5676202942147198  0.025169086106757253  1.0000
  H   H6        1.0  0.29943034459476786  0.4575059568569911  0.43229835734297234  1.0000
  H   H7        1.0  0.5129159062976284  0.8548438137007605  0.2635881651396657  1.0000
  H   H8        1.0  0.6576764964217787  0.40861983399722124  0.145293042472403  1.0000
  H   H9        1.0  0.2488545812186586  0.7366028294105573  0.5912815038776527  1.0000
  H   H10       1.0  0.4870692111881211  0.14515339003059316  0.7364100993817286  1.0000
  H   H11       1.0  0.34232083959756204  0.591381223933695  0.8547051853498002  1.0000
  H   H12       1.0  0.7511405426199715  0.26339668697226404  0.4087184976425177  1.0000
  H   H13       1.0  0.3601784724786156  0.7645085046272796  0.25888898381903397  1.0000
  H   H14       1.0  0.595428577334921  0.4944396220716241  0.23563169604716439  1.0000
  H   H15       1.0  0.10100140134175457  0.741184436303861  0.5055411166576603  1.0000
  H   H16       1.0  0.6398070723367936  0.23548947076812243  0.7411129683587558  1.0000
  H   H17       1.0  0.4045613918419093  0.5055614364199599  0.7643667087346769  1.0000
  H   H18       1.0  0.8990006208170481  0.2588112238898716  0.494455555675131  1.0000
  C   C1        1.0  0.14410141077851082  0.8276916927285498  0.3797104569412184  1.0000
  C   C2        1.0  0.3164635134966147  0.5518709670650138  0.17231180263422627  1.0000
  C   C3        1.0  0.7644261897256328  0.6203010882795823  0.4480654391284772  1.0000
  C   C4        1.0  0.8558858113184512  0.1723008842595775  0.6202851235180232  1.0000
  C   C5        1.0  0.6835418441131436  0.4481254640125484  0.8276854486981617  1.0000
  C   C6        1.0  0.23558460794630062  0.37969148693857585  0.5519297071413546  1.0000
  C   C7        1.0  0.33043675811219225  0.9139380372809638  0.4421817816964688  1.0000
  C   C8        1.0  0.4165473422721248  0.5281761863961235  0.08608590510744557  1.0000
  C   C9        1.0  0.8882336136729659  0.557836533282234  0.47178855075907206  1.0000
  C   C10       1.0  0.6695626718009321  0.08606996172596128  0.5578277449074136  1.0000
  C   C11       1.0  0.5834590607327215  0.4718310408695173  0.9139223985090579  1.0000
  C   C12       1.0  0.11175680801767378  0.4421652972359808  0.5282155229006449  1.0000
  C   C13       1.0  0.3092991461192725  0.014423239477018497  0.4759907788153015  1.0000
  C   C14       1.0  0.2948543658956382  0.461615796357428  0.9856234281429008  1.0000
  C   C15       1.0  0.8332365861718927  0.5240313223544247  0.538414657913492  1.0000
  C   C16       1.0  0.6907053720788168  0.9855801330941955  0.5240188987340842  1.0000
  C   C17       1.0  0.7051405976824725  0.5383891189490128  0.014386343821122732  1.0000
  C   C18       1.0  0.16678056342271214  0.4759651078985811  0.46158270652776406  1.0000
  C   C19       1.0  0.5267101908496626  0.8980710480448975  0.4670661367483005  1.0000
  C   C20       1.0  0.6287098314044997  0.5688912886190493  0.10190851042547405  1.0000
  C   C21       1.0  0.05971535570389359  0.5329036444605462  0.43102860614524724  1.0000
  C   C22       1.0  0.47329853657084425  0.10192307103987017  0.5329381726767861  1.0000
  C   C23       1.0  0.3712877152436603  0.43110437111340627  0.8980839093958436  1.0000
  C   C24       1.0  0.9403051369554729  0.46709664015720154  0.5689661602383039  1.0000
  O   O1        1.0  0.9711512476542052  0.8481350751718605  0.37864242775741247  1.0000
  O   O2        1.0  0.12309350938706837  0.5303743478317243  0.15192829709240388  1.0000
  O   O3        1.0  0.5925096352456831  0.6214122097014324  0.46956114881212585  1.0000
  O   O4        1.0  0.028855759730248603  0.15186752507593576  0.6213611138859533  1.0000
  O   O5        1.0  0.876908032751068  0.4696321079128935  0.848075368392031  1.0000
  O   O6        1.0  0.4075047473759951  0.37859039010655937  0.5304428762787551  1.0000
  O   O7        1.0  0.16968164518475962  0.7358761934618838  0.32801481429022766  1.0000
  O   O8        1.0  0.4338000755231873  0.5918712843410886  0.26407338254667667  1.0000
  O   O9        1.0  0.8417291371243463  0.6720064128179501  0.4079664920499511  1.0000
  O   O10       1.0  0.8303224449027622  0.2641294908053452  0.6719873381383151  1.0000
  O   O11       1.0  0.5661956862739217  0.40812360550733473  0.7359244986290034  1.0000
  O   O12       1.0  0.15827694844304568  0.32799464313486476  0.5920243910233437  1.0000
  O   O13       1.0  0.5662057734458726  0.8052258589624441  0.43967338567463077  1.0000
  O   O14       1.0  0.7610458190424294  0.634327323954963  0.19470148398509923  1.0000
  O   O15       1.0  0.12656283632965423  0.560190045567701  0.36555944686573827  1.0000
  O   O16       1.0  0.433795250582534  0.19477365706853075  0.5603270026035644  1.0000
  O   O17       1.0  0.2389519771045272  0.36567758948350354  0.8052992356576779  1.0000
  O   O18       1.0  0.8734492409884993  0.43981409472279137  0.6344352499798871  1.0000
  O   O19       1.0  0.481092129624322  0.7804223654528497  0.23519532410081453  1.0000
  O   O20       1.0  0.7003068474618813  0.45471796947992243  0.21969135439247356  1.0000
  O   O21       1.0  0.24555019068405662  0.7649101726550637  0.5452142331675629  1.0000
  O   O22       1.0  0.5188926025053604  0.21957406721875825  0.764802554799999  1.0000
  O   O23       1.0  0.2996897094506039  0.5452815462106386  0.7803054417814009  1.0000
  O   O24       1.0  0.7544412123475438  0.2350878017841893  0.45478480373243707  1.0000
