data_image0
_chemical_formula_structural       Zn6C60Cl16O24F8
_chemical_formula_sum              "Zn6 C60 Cl16 O24 F8"
_cell_length_a       19.046847782997308
_cell_length_b       19.046013855085338
_cell_length_c       19.23313138004922
_cell_angle_alpha    110.69997350788655
_cell_angle_beta     110.70210789403424
_cell_angle_gamma    104.13824130997973

_space_group_name_H-M_alt    "P 1"
_space_group_IT_number       1

loop_
  _space_group_symop_operation_xyz
  'x, y, z'

loop_
  _atom_site_type_symbol
  _atom_site_label
  _atom_site_symmetry_multiplicity
  _atom_site_fract_x
  _atom_site_fract_y
  _atom_site_fract_z
  _atom_site_occupancy
  Zn  Zn1       1.0  0.9979148510790525  0.43827912417583564  0.9398268309221797  1.0000
  Zn  Zn2       1.0  0.5536287404257224  0.5535734274428136  0.4972902085158993  1.0000
  Zn  Zn3       1.0  0.4464228685422712  0.4463603388369961  0.5027107090505896  1.0000
  Zn  Zn4       1.0  0.0021449121911772  0.5617679674554948  0.06027918193945683  1.0000
  Zn  Zn5       1.0  0.561725313005269  0.002084099953208494  0.060164918497008654  1.0000
  Zn  Zn6       1.0  0.4382468657037322  0.9978574834813683  0.9397037145337493  1.0000
  C   C1        1.0  0.9049012859277923  0.541192237928044  0.9032496855715028  1.0000
  C   C2        1.0  0.1485444388955202  0.443170814260327  0.23186377254018717  1.0000
  C   C3        1.0  0.5537457135759141  0.873844621417696  0.6315272886712864  1.0000
  C   C4        1.0  0.873676405303506  0.5538215272609077  0.6316052473264122  1.0000
  C   C5        1.0  0.12613543844206992  0.44607705382005486  0.36842015403691164  1.0000
  C   C6        1.0  0.4460662198252194  0.12626492230092626  0.36831545177870595  1.0000
  C   C7        1.0  0.7941021253136569  0.5171724630881727  0.6174190443325999  1.0000
  C   C8        1.0  0.20572932430490454  0.4826966817304311  0.3826377383166176  1.0000
  C   C9        1.0  0.4827473522456316  0.20584982730068196  0.38253118047013873  1.0000
  C   C10       1.0  0.5171913700069483  0.794252344003624  0.6173395049298096  1.0000
  C   C11       1.0  0.4432249872541689  0.14863762191906463  0.23176739320557266  1.0000
  C   C12       1.0  0.7799969324615574  0.5259738986972239  0.6877671911542721  1.0000
  C   C13       1.0  0.21985920277182203  0.4738842679276161  0.31230117031923754  1.0000
  C   C14       1.0  0.473986697377363  0.2199773751678364  0.3122030570934129  1.0000
  C   C15       1.0  0.5260869218736985  0.7801382349895647  0.6877010599047182  1.0000
  C   C16       1.0  0.5568145215874908  0.8514608319728297  0.7681368987953833  1.0000
  C   C17       1.0  0.85134971034951  0.5567533316169602  0.768201630990305  1.0000
  C   C18       1.0  0.8391186328803002  0.5431846239816949  0.8323995837642643  1.0000
  C   C19       1.0  0.160845438362756  0.4567660517952632  0.16770804681070933  1.0000
  C   C20       1.0  0.45683149944925827  0.16088318506681532  0.16759464856298228  1.0000
  C   C21       1.0  0.09512926663264663  0.45883972349835733  0.09687661497107308  1.0000
  C   C22       1.0  0.5432919517161068  0.8391657372274679  0.8323300625895129  1.0000
  C   C23       1.0  0.7601090707368883  0.5131555443075513  0.8203734438392588  1.0000
  C   C24       1.0  0.23987937768885106  0.4867182766327857  0.17976721500816953  1.0000
  C   C25       1.0  0.4868600676153036  0.2399026786014531  0.17963155793601973  1.0000
  C   C26       1.0  0.5133902257534687  0.7601338809339565  0.8202970053746841  1.0000
  C   C27       1.0  0.45884461774556246  0.09511205106956319  0.096758714192383  1.0000
  C   C28       1.0  0.6900903977393897  0.4984910647583406  0.7485341157944634  1.0000
  C   C29       1.0  0.3098307657967041  0.5012388204426158  0.2515718072052806  1.0000
  C   C30       1.0  0.5015008733522422  0.30991067356003293  0.25146439292952755  1.0000
  C   C31       1.0  0.4988486290373615  0.6901805118727538  0.7484766559450265  1.0000
  C   C32       1.0  0.541221651714885  0.9048774303048078  0.9031697138931778  1.0000
  C   C33       1.0  0.6991620179337519  0.5046977687981169  0.6818079058856842  1.0000
  C   C34       1.0  0.3006942708687959  0.4950520326717013  0.3182816902618981  1.0000
  C   C35       1.0  0.4952766315695812  0.3008248739221174  0.31817855451830473  1.0000
  C   C36       1.0  0.5049629212042748  0.699308284846815  0.6817354744090593  1.0000
  C   C37       1.0  0.5058618937384124  0.629827904625607  0.6135168654305263  1.0000
  C   C38       1.0  0.4944188931980449  0.3703821845449228  0.3863659111193557  1.0000
  C   C39       1.0  0.37017634795196136  0.4941440660569397  0.38648873384548216  1.0000
  C   C40       1.0  0.6296060345552377  0.5055588828125934  0.6136239219727173  1.0000
  C   C41       1.0  0.8734198299398416  0.4012967331834858  0.9906436102275364  1.0000
  C   C42       1.0  0.12661837588621697  0.5987458564487225  0.009420485084881006  1.0000
  C   C43       1.0  0.5986916585314502  0.12658164568902205  0.009320342912943005  1.0000
  C   C44       1.0  0.4012224777943488  0.8733743289512432  0.9905173449235251  1.0000
  C   C45       1.0  0.8083905243247287  0.3445678597111055  0.9909717033866414  1.0000
  C   C46       1.0  0.1916119054794123  0.6554816437969323  0.00905832742697047  1.0000
  C   C47       1.0  0.6554190596971807  0.191611946791113  0.009008829831564823  1.0000
  C   C48       1.0  0.3444919724395916  0.8083825089048986  0.9908797688997881  1.0000
  C   C49       1.0  0.7581034044125161  0.2961567145159307  0.9968166855706644  1.0000
  C   C50       1.0  0.24186632257567453  0.7038897718182896  0.0031742705486407256  1.0000
  C   C51       1.0  0.7038474255053232  0.24190781389295082  0.0031687244293154503  1.0000
  C   C52       1.0  0.2960932822681102  0.758119810879684  0.9967736830584998  1.0000
  C   C53       1.0  0.9318152396060102  0.5985823259939168  0.7812011598227075  1.0000
  C   C54       1.0  0.06805497939637213  0.4013716878510393  0.2188304539898738  1.0000
  C   C55       1.0  0.40136570382442477  0.06816093818290624  0.21873492654864185  1.0000
  C   C56       1.0  0.5985575712194092  0.9319504575395997  0.7811377301728015  1.0000
  C   C57       1.0  0.9430056124422849  0.5990004325897544  0.7137611300687042  1.0000
  C   C58       1.0  0.056826813838426915  0.4009253709075367  0.28624624073526667  1.0000
  C   C59       1.0  0.400902009473903  0.05695009337627254  0.28615070542019083  1.0000
  C   C60       1.0  0.5989087404208105  0.9431713143083655  0.7136885102065021  1.0000
  Cl  Cl1       1.0  0.015440459252140201  0.6549682098659276  0.8814931002775455  1.0000
  Cl  Cl2       1.0  0.9623199923272381  0.3499024406701992  0.2736995995871395  1.0000
  Cl  Cl3       1.0  0.3498434247617866  0.9624509833708289  0.2736156009095155  1.0000
  Cl  Cl4       1.0  0.6498381117160436  0.03768745680745421  0.7261904139838722  1.0000
  Cl  Cl5       1.0  0.0374933733786236  0.6500159980035748  0.7262553263824643  1.0000
  Cl  Cl6       1.0  0.7181566404936391  0.45467132588635206  0.5135641115090339  1.0000
  Cl  Cl7       1.0  0.28166921753749113  0.545208349644227  0.4865126049001489  1.0000
  Cl  Cl8       1.0  0.545238619317125  0.2817710911067409  0.4864010214742366  1.0000
  Cl  Cl9       1.0  0.9844578224611027  0.34502964601239233  0.118523755470875  1.0000
  Cl  Cl10      1.0  0.4546676900968265  0.7182814795792538  0.5134829481346231  1.0000
  Cl  Cl11      1.0  0.5995581657855669  0.4767115770111019  0.753058684838962  1.0000
  Cl  Cl12      1.0  0.4003649052309869  0.5228736321498033  0.2470578853400767  1.0000
  Cl  Cl13      1.0  0.5232610726052584  0.4004504318621684  0.24694164945808691  1.0000
  Cl  Cl14      1.0  0.4772809448355133  0.5996492631197085  0.7530102797667553  1.0000
  Cl  Cl15      1.0  0.3450010095965155  0.9845562221489957  0.1184345262894766  1.0000
  Cl  Cl16      1.0  0.6549284930242933  0.015561171587613299  0.881433069362629  1.0000
  O   O1        1.0  0.9273362759273243  0.48365727295021804  0.8767894350530059  1.0000
  O   O2        1.0  0.07255620264080422  0.41025986752393345  0.020192488434645373  1.0000
  O   O3        1.0  0.4102607910777749  0.07254091276940498  0.02007726279538959  1.0000
  O   O4        1.0  0.5898129647131682  0.9274657547893951  0.9798530792924609  1.0000
  O   O5        1.0  0.9274899395451612  0.5897971970336827  0.9799267996370703  1.0000
  O   O6        1.0  0.8974778867486677  0.3694693946970489  0.9378535643932866  1.0000
  O   O7        1.0  0.1025683151670407  0.6305664339570427  0.06221928449319585  1.0000
  O   O8        1.0  0.6305077704637583  0.10253510910136748  0.06213145112277365  1.0000
  O   O9        1.0  0.07272159358888791  0.5163968482959973  0.12333762078457508  1.0000
  O   O10       1.0  0.3694020269917928  0.8974408971489752  0.9377330702550567  1.0000
  O   O11       1.0  0.9016432820118611  0.47759046792980797  0.044116613894658596  1.0000
  O   O12       1.0  0.09841034252698931  0.522447912488623  0.9559613013502571  1.0000
  O   O13       1.0  0.5224068156561259  0.09834034342862447  0.955817377936235  1.0000
  O   O14       1.0  0.47752217154156545  0.9015675012603452  0.04396233791919002  1.0000
  O   O15       1.0  0.5163634647965196  0.07266086268124641  0.12322819429370918  1.0000
  O   O16       1.0  0.4565332955283665  0.5555823556982417  0.5858882637829552  1.0000
  O   O17       1.0  0.543811727664995  0.4446148232790109  0.41402607637384403  1.0000
  O   O18       1.0  0.4444141811328207  0.5434732485851727  0.41411709955902154  1.0000
  O   O19       1.0  0.5553692789504936  0.4561616892068656  0.585964748846699  1.0000
  O   O20       1.0  0.4836474696935015  0.9272660240129941  0.8767034913731708  1.0000
  O   O21       1.0  0.5597296140858461  0.6508678487172048  0.5914113720054389  1.0000
  O   O22       1.0  0.44048033106823686  0.3493754732728008  0.40839682808196204  1.0000
  O   O23       1.0  0.3491398158362885  0.44026396048275274  0.4085890559597801  1.0000
  O   O24       1.0  0.6506054291238144  0.5594956961741177  0.5915928699265083  1.0000
  F   F1        1.0  0.7477362675272518  0.49549644291199274  0.87843547397533  1.0000
  F   F2        1.0  0.1132871862098384  0.4537371686968399  0.4347493261176397  1.0000
  F   F3        1.0  0.45370150298650463  0.11343667066599045  0.43465329682269543  1.0000
  F   F4        1.0  0.545984877191863  0.8866897292738969  0.565174105765955  1.0000
  F   F5        1.0  0.8864850364254836  0.546139176203674  0.565249649893275  1.0000
  F   F6        1.0  0.2523350867615549  0.5044037443931587  0.12175243907294234  1.0000
  F   F7        1.0  0.5045473748344949  0.2522939217158682  0.12159086669974799  1.0000
  F   F8        1.0  0.49577877876515714  0.7476756834826546  0.878348110079749  1.0000
