data_image0
_chemical_formula_structural       Zn2H24C8S4N4O12
_chemical_formula_sum              "Zn2 H24 C8 S4 N4 O12"
_cell_length_a       6.513173883002514
_cell_length_b       8.640012179052679
_cell_length_c       9.169009423520206
_cell_angle_alpha    115.78844120015029
_cell_angle_beta     89.99990374923608
_cell_angle_gamma    90.00006799793228

_space_group_name_H-M_alt    "P 1"
_space_group_IT_number       1

loop_
  _space_group_symop_operation_xyz
  'x, y, z'

loop_
  _atom_site_type_symbol
  _atom_site_label
  _atom_site_symmetry_multiplicity
  _atom_site_fract_x
  _atom_site_fract_y
  _atom_site_fract_z
  _atom_site_occupancy
  Zn  Zn1       1.0  0.9999992063797973  0.5000005301869024  0.9999985834141608  1.0000
  Zn  Zn2       1.0  0.49999873233907977  0.49999927188019194  0.49999899831912115  1.0000
  H   H1        1.0  0.4388923624574588  0.9635148129298159  0.33992243541450046  1.0000
  H   H2        1.0  0.9388907867679848  0.036482450674796496  0.16007931191776234  1.0000
  H   H3        1.0  0.5611051022163096  0.036486307995133395  0.6600809775706933  1.0000
  H   H4        1.0  0.0611066779079863  0.9635173816678629  0.8399213928939485  1.0000
  H   H5        1.0  0.6098352915283982  0.9112380462686858  0.1730088687191368  1.0000
  H   H6        1.0  0.1098355338191013  0.08876292413542329  0.3269904240098781  1.0000
  H   H7        1.0  0.39016370849938636  0.08876435534513398  0.8269917960550612  1.0000
  H   H8        1.0  0.8901634662075395  0.9112356212040424  0.6730086639043191  1.0000
  H   H9        1.0  0.2821563999697005  0.8157482296889211  0.05801317570721647  1.0000
  H   H10       1.0  0.7821574581456474  0.18425539127156298  0.44199026736806957  1.0000
  H   H11       1.0  0.7178426000547447  0.184251604232827  0.9419886203804634  1.0000
  H   H12       1.0  0.21784461258075535  0.8157482973464525  0.5580120143013046  1.0000
  H   H13       1.0  0.4388203288494879  0.6351787142894096  0.015600095669583426  1.0000
  H   H14       1.0  0.9388215682059381  0.364821110661552  0.4843961553138525  1.0000
  H   H15       1.0  0.5611786711788227  0.36482111489608837  0.9843984265878799  1.0000
  H   H16       1.0  0.06118203787205089  0.6351800039497348  0.5156028925612686  1.0000
  H   H17       1.0  0.10171106812736497  0.7581728407285199  0.25654676911535995  1.0000
  H   H18       1.0  0.6017126859892982  0.24182427144574348  0.24345204626718692  1.0000
  H   H19       1.0  0.8982879318992757  0.24182570461094596  0.7434523187988372  1.0000
  H   H20       1.0  0.3982878493871098  0.7581742738940561  0.7565470416462359  1.0000
  H   H21       1.0  0.2544291409098491  0.5974945615198167  0.2333198259807432  1.0000
  H   H22       1.0  0.7544294189931123  0.4025051879455717  0.266679885795284  1.0000
  H   H23       1.0  0.7455683237644448  0.4025039869768178  0.7666814444877159  1.0000
  H   H24       1.0  0.2455695810342959  0.5974959282434611  0.7333202533589113  1.0000
  C   C1        1.0  0.510347580871162  0.8573217528199137  0.23592340370597484  1.0000
  C   C2        1.0  0.010348056144806599  0.14267660345134908  0.264074938657643  1.0000
  C   C3        1.0  0.4896529545061625  0.14267550551635108  0.7640740673107086  1.0000
  C   C4        1.0  0.9896509438822179  0.8573232273129038  0.7359246748765498  1.0000
  C   C5        1.0  0.3567236083717091  0.7400835419015691  0.11269435450027729  1.0000
  C   C6        1.0  0.8567264493080203  0.2599175374935995  0.38730577917383596  1.0000
  C   C7        1.0  0.6432738563042547  0.2599162904410902  0.8873063503114405  1.0000
  C   C8        1.0  0.1432725507186206  0.7400810078458662  0.6126933087403612  1.0000
  S   S1        1.0  0.6781672712616994  0.7526731592807608  0.3194845893671569  1.0000
  S   S2        1.0  0.1781711781923363  0.2473227007324184  0.18051362287211248  1.0000
  S   S3        1.0  0.3218194459658222  0.24731767192858461  0.6805102535565337  1.0000
  S   S4        1.0  0.8218447106759609  0.7526694222230502  0.8194861107637544  1.0000
  N   N1        1.0  0.1942159162399335  0.664101668206989  0.1737145083469755  1.0000
  N   N2        1.0  0.6942159493830148  0.33589805506185405  0.3262852644818678  1.0000
  N   N3        1.0  0.8057800130870303  0.33590073498491085  0.826287247705515  1.0000
  N   N4        1.0  0.30578458599081415  0.6641004934354483  0.6737160059850351  1.0000
  O   O1        1.0  0.7401294115171169  0.5861076182710363  0.184629094808713  1.0000
  O   O2        1.0  0.24013018828534163  0.4138882686988339  0.3153690546061582  1.0000
  O   O3        1.0  0.25986805315885414  0.4138922140716233  0.8153716100030051  1.0000
  O   O4        1.0  0.7598688117389542  0.5861154230760165  0.6846354096182592  1.0000
  O   O5        1.0  0.5544148426801171  0.7224053838261639  0.44041033450589834  1.0000
  O   O6        1.0  0.05442368907887379  0.27759041761184733  0.059584729378379095  1.0000
  O   O7        1.0  0.44558262200138904  0.2775957276262915  0.559586530818862  1.0000
  O   O8        1.0  0.9455875937499201  0.7224042651409447  0.9404084165626397  1.0000
  O   O9        1.0  0.8512626087008356  0.8687189244003548  0.391903213634883  1.0000
  O   O10       1.0  0.3512665060844782  0.13127573023150063  0.10809757130605387  1.0000
  O   O11       1.0  0.1487440680752528  0.13128604964345666  0.6080995936521558  1.0000
  O   O12       1.0  0.6487370999771187  0.8687266903283016  0.8919161887866873  1.0000
