data_image0
_chemical_formula_structural       Na4H28C16N32O16
_chemical_formula_sum              "Na4 H28 C16 N32 O16"
_cell_length_a       6.567986160740569
_cell_length_b       10.35166766058241
_cell_length_c       15.140296641788407
_cell_angle_alpha    92.07870430101853
_cell_angle_beta     90.01712477672295
_cell_angle_gamma    108.49586496103059

_space_group_name_H-M_alt    "P 1"
_space_group_IT_number       1

loop_
  _space_group_symop_operation_xyz
  'x, y, z'

loop_
  _atom_site_type_symbol
  _atom_site_label
  _atom_site_symmetry_multiplicity
  _atom_site_fract_x
  _atom_site_fract_y
  _atom_site_fract_z
  _atom_site_occupancy
  Na  Na1       1.0  0.5784254167338575  0.8049628222364619  0.7377200681427142  1.0000
  Na  Na2       1.0  0.7735502781734593  0.1950983995081828  0.7621472525408919  1.0000
  Na  Na3       1.0  0.4215728216111287  0.19503898900413216  0.26228100024880524  1.0000
  Na  Na4       1.0  0.2264489705760298  0.8048993429070987  0.23785303211194997  1.0000
  H   H1        1.0  0.7488662585903824  0.1891482145110572  0.9819345312365402  1.0000
  H   H2        1.0  0.5597287565891023  0.8109118776986362  0.5179365405395588  1.0000
  H   H3        1.0  0.2511355149498513  0.8108454418704267  0.01806629027977639  1.0000
  H   H4        1.0  0.4402705011285447  0.18909197225779198  0.48206458969450244  1.0000
  H   H5        1.0  0.7802078144843491  0.8468254113736007  0.1165769047471059  1.0000
  H   H6        1.0  0.9340283015202147  0.153043316802524  0.3833006728134478  1.0000
  H   H7        1.0  0.21978686176093024  0.15316623210267014  0.8834218737759587  1.0000
  H   H8        1.0  0.06598058888040725  0.846961526702891  0.616702469690573  1.0000
  H   H9        1.0  0.21936660550083797  0.6742233239126848  0.8403524158382397  1.0000
  H   H10       1.0  0.5450683920674706  0.325771079847378  0.6596490644857766  1.0000
  H   H11       1.0  0.7806296063252418  0.32577443571024384  0.1596465481134572  1.0000
  H   H12       1.0  0.4549324069355832  0.6742358539968121  0.3403501777573581  1.0000
  H   H13       1.0  0.2190786596415675  0.8281266418147478  0.8423798027939428  1.0000
  H   H14       1.0  0.3906914189089291  0.17186861323030905  0.6576961954931095  1.0000
  H   H15       1.0  0.7809190543443234  0.1718710747856775  0.1576224625146452  1.0000
  H   H16       1.0  0.6093144386437641  0.8281362560874184  0.3423049660581938  1.0000
  H   H17       1.0  0.815183971321204  0.6260825213962915  0.6645121675012506  1.0000
  H   H18       1.0  0.189062285901052  0.3739110182090499  0.835424952692492  1.0000
  H   H19       1.0  0.18481529862286547  0.37392135437414703  0.3354869819780647  1.0000
  H   H20       1.0  0.8109318790287575  0.626082646772872  0.1645752080772809  1.0000
  H   H21       1.0  0.9825604586542553  0.7124410067623401  0.7387803597895016  1.0000
  H   H22       1.0  0.2700828053889879  0.28757326467937355  0.7611576824723728  1.0000
  H   H23       1.0  0.017439820065185074  0.28756184104635446  0.2612194191191222  1.0000
  H   H24       1.0  0.7299154239878405  0.7124224390200735  0.2388425403379273  1.0000
  H   H25       1.0  0.714593351076502  0.5442925737415721  0.8143526949563056  1.0000
  H   H26       1.0  0.17034840804504364  0.45569175109552856  0.6855744095137271  1.0000
  H   H27       1.0  0.2854191323932084  0.455710325701915  0.18564312323479026  1.0000
  H   H28       1.0  0.829654412584233  0.544313135429853  0.3144254313364243  1.0000
  C   C1        1.0  0.7267742449726879  0.9845673059710263  0.926921323284603  1.0000
  C   C2        1.0  0.7422665811343447  0.015518953150070998  0.5729153952305452  1.0000
  C   C3        1.0  0.2732239762531989  0.0154283805190758  0.0730802200288565  1.0000
  C   C4        1.0  0.25773368535867275  0.9844838688446128  0.4270863644328174  1.0000
  C   C5        1.0  0.761907109250721  0.9122702237639613  0.0644093136778352  1.0000
  C   C6        1.0  0.8500872565530242  0.08767999615059098  0.4354640873490112  1.0000
  C   C7        1.0  0.23808957721156082  0.08772543691129189  0.9355942102913702  1.0000
  C   C8        1.0  0.14991604441706122  0.9123197591682126  0.5645382400990969  1.0000
  C   C9        1.0  0.7508951524532108  0.443895211503218  0.017473172497375303  1.0000
  C   C10       1.0  0.3069845106067248  0.5562139947326301  0.4825044328893143  1.0000
  C   C11       1.0  0.2491035988363706  0.5561015373681497  0.9825251004794567  1.0000
  C   C12       1.0  0.6930086610376733  0.44378986382508145  0.5174960366971959  1.0000
  C   C13       1.0  0.7225807600429589  0.4894498028101281  0.873436092193572  1.0000
  C   C14       1.0  0.2331128035024932  0.5105883636161792  0.6265144160570344  1.0000
  C   C15       1.0  0.2774180034730379  0.5105469718752574  0.1265602000285284  1.0000
  C   C16       1.0  0.7668859510506322  0.48941752505523783  0.3734867759205685  1.0000
  N   N1        1.0  0.7486569557378429  0.08380186313796399  0.9907002780566005  1.0000
  N   N2        1.0  0.6648796202059868  0.9162505456087685  0.5091456776472469  1.0000
  N   N3        1.0  0.25134227018794064  0.9161927867857287  0.0093025549377401  1.0000
  N   N4        1.0  0.33512217697515456  0.08375229359610607  0.49085476161194214  1.0000
  N   N5        1.0  0.7700998421214605  0.03976237113882058  0.07380165825286873  1.0000
  N   N6        1.0  0.7306366549573012  0.9602091245611531  0.4260704396426149  1.0000
  N   N7        1.0  0.22989735810262601  0.9602343174990153  0.926201236386028  1.0000
  N   N8        1.0  0.269369713910848  0.039793723250930696  0.5739293396619801  1.0000
  N   N9        1.0  0.7354334246076205  0.8724784711245591  0.9756596768894001  1.0000
  N   N10       1.0  0.863252759347546  0.12753436310654107  0.5241911700224691  1.0000
  N   N11       1.0  0.26456479661825927  0.12751721536555036  0.0243418664240593  1.0000
  N   N12       1.0  0.13674953936897782  0.8724694782469127  0.4758106206611573  1.0000
  N   N13       1.0  0.7278211405183797  0.7509596731785065  0.93442947428089  1.0000
  N   N14       1.0  0.9770584462769915  0.2490643556150046  0.5654345591809646  1.0000
  N   N15       1.0  0.27217759854477913  0.24903704987885786  0.065570779450681  1.0000
  N   N16       1.0  0.022943345199543382  0.7509415158487656  0.43456795349778343  1.0000
  N   N17       1.0  0.74349100416741  0.6689309557315822  0.9918045073105688  1.0000
  N   N18       1.0  0.07472139981499741  0.3311363818168259  0.5080837863659866  1.0000
  N   N19       1.0  0.25650927781029514  0.3310658103499762  0.008192445262103802  1.0000
  N   N20       1.0  0.9252753143636738  0.6688684702864833  0.49191869509451186  1.0000
  N   N21       1.0  0.7377908927400441  0.5459690619025963  0.9586444374510779  1.0000
  N   N22       1.0  0.19190088113580117  0.454087567567548  0.5412950324162155  1.0000
  N   N23       1.0  0.2622104102394617  0.4540267020312285  0.0413511637961577  1.0000
  N   N24       1.0  0.8080948364939147  0.5459183383115088  0.4587048388602497  1.0000
  N   N25       1.0  0.7443458498551081  0.33491903490848063  0.9654097700649303  1.0000
  N   N26       1.0  0.4093861396147034  0.6651902439204278  0.5345828468011932  1.0000
  N   N27       1.0  0.25565949882317796  0.6650756838559602  0.034587781312751496  1.0000
  N   N28       1.0  0.5906090805551046  0.3348146684147224  0.4654150127992623  1.0000
  N   N29       1.0  0.7273178536208602  0.3646053435898367  0.8773734886503706  1.0000
  N   N30       1.0  0.36264874730724733  0.6354825707010435  0.6226083913815827  1.0000
  N   N31       1.0  0.2726819064440917  0.6353903773198013  0.1226254137557703  1.0000
  N   N32       1.0  0.6373495179369185  0.36452234163580494  0.3773894684168583  1.0000
  O   O1        1.0  0.7055583243633874  0.9885343349789152  0.8456068765848883  1.0000
  O   O2        1.0  0.7169549830242374  0.011587842522985198  0.6542074300677855  1.0000
  O   O3        1.0  0.2944419168595828  0.0114623450559534  0.15439667850357353  1.0000
  O   O4        1.0  0.28304731569228647  0.9884159988304687  0.345794360615841  1.0000
  O   O5        1.0  0.7624039894198446  0.4599711057374521  0.10038707056798302  1.0000
  O   O6        1.0  0.3023438070599624  0.5401289042861065  0.399592684135378  1.0000
  O   O7        1.0  0.23759074469926125  0.5400267485359861  0.8996046305173523  1.0000
  O   O8        1.0  0.6976468332718824  0.4598759822324964  0.6004071559228379  1.0000
  O   O9        1.0  0.22238262151890348  0.7511442803211493  0.8017422255484876  1.0000
  O   O10       1.0  0.4711056428905989  0.24890882811199327  0.6982854845326971  1.0000
  O   O11       1.0  0.7776176466032465  0.24885550080996663  0.19825812094689615  1.0000
  O   O12       1.0  0.5289007219020831  0.7510940110954177  0.3017149550234778  1.0000
  O   O13       1.0  0.845594388378572  0.7043196755897084  0.7073069012274901  1.0000
  O   O14       1.0  0.1412489776653061  0.2957067835475229  0.7926063068137736  1.0000
  O   O15       1.0  0.15440384589093267  0.29568212704621283  0.2926948274156018  1.0000
  O   O16       1.0  0.8587487420251918  0.7042879007940072  0.20739388507525552  1.0000
