data_image0
_chemical_formula_structural       Zr6H49C64N5O32
_chemical_formula_sum              "Zr6 H49 C64 N5 O32"
_cell_length_a       14.843243274940958
_cell_length_b       14.84886513234927
_cell_length_c       14.843619174805681
_cell_angle_alpha    59.87639040202677
_cell_angle_beta     59.94611744813063
_cell_angle_gamma    59.897142317679986

_space_group_name_H-M_alt    "P 1"
_space_group_IT_number       1

loop_
  _space_group_symop_operation_xyz
  'x, y, z'

loop_
  _atom_site_type_symbol
  _atom_site_label
  _atom_site_symmetry_multiplicity
  _atom_site_fract_x
  _atom_site_fract_y
  _atom_site_fract_z
  _atom_site_occupancy
  Zr  Zr1       1.0  0.8829591789423078  0.37612990155997766  0.6220385400057182  1.0000
  Zr  Zr2       1.0  0.11922453130503644  0.6175734501783552  0.38193892821191616  1.0000
  Zr  Zr3       1.0  0.1206324140071118  0.3802366498819439  0.6207609836064876  1.0000
  Zr  Zr4       1.0  0.8828920139604581  0.6147406650525439  0.38293313347643476  1.0000
  Zr  Zr5       1.0  0.8820021351856154  0.614485211181545  0.6222215653763928  1.0000
  Zr  Zr6       1.0  0.12177163040951208  0.37571040723049254  0.3858221825618884  1.0000
  H   H1        1.0  0.9096379288992013  0.4035003709494374  0.7844737513105146  1.0000
  H   H2        1.0  0.9074642974549009  0.7779301792987567  0.40800725823827816  1.0000
  H   H3        1.0  0.28317673592075465  0.40514024106595753  0.40904784453783805  1.0000
  H   H4        1.0  0.9089301696958573  0.4019039907356399  0.409231791046487  1.0000
  H   H5        1.0  0.5687308433427631  0.3748623988218612  0.8931615454510721  1.0000
  H   H6        1.0  0.548795545739935  0.7473281386373855  0.8913378598048212  1.0000
  H   H7        1.0  0.6355267362394912  0.6456970784778379  0.9730956577930172  1.0000
  H   H8        1.0  0.4689221506614985  0.6353691612832006  0.14489496268136282  1.0000
  H   H9        1.0  0.3809913752984075  0.7391830026388175  0.06518058010054521  1.0000
  H   H10       1.0  0.8681446147238249  0.07845974868844519  0.6512387400322625  1.0000
  H   H11       1.0  0.24081838491155594  0.05902427558577021  0.2963913406056449  1.0000
  H   H12       1.0  0.13632933715125262  0.1382290672654065  0.2333646937257612  1.0000
  H   H13       1.0  0.13846233851162296  0.9620678143452251  0.24360759533741574  1.0000
  H   H14       1.0  0.2358320516639054  0.8832250032054815  0.31544381860032183  1.0000
  H   H15       1.0  0.6017228729519389  0.914015238274132  0.6362232422545021  1.0000
  H   H16       1.0  0.5112815692703379  0.8537370435926872  0.36799595884441766  1.0000
  H   H17       1.0  0.5970520019526121  0.9364637930785661  0.2655546225255493  1.0000
  H   H18       1.0  0.4288245126901416  0.10869434150333024  0.2720972278799181  1.0000
  H   H19       1.0  0.3440403813936542  0.025545937721368296  0.3749116510276238  1.0000
  H   H20       1.0  0.14731737477976037  0.351067067644486  0.09071235150449297  1.0000
  H   H21       1.0  0.8572130100836048  0.7631319836079695  0.02744703752981785  1.0000
  H   H22       1.0  0.7646047249024263  0.6863748423466021  0.10826415767204638  1.0000
  H   H23       1.0  0.771004479747269  0.6888074973401571  0.9336539974114971  1.0000
  H   H24       1.0  0.8681634091909277  0.7605655259769504  0.8538237323334101  1.0000
  H   H25       1.0  0.8138268387552046  0.26189081390172225  0.9320380344262132  1.0000
  H   H26       1.0  0.6547360441596837  0.26598763740892656  0.1025163637765445  1.0000
  H   H27       1.0  0.812608551718199  0.924773511475756  0.2657050571218064  1.0000
  H   H28       1.0  0.6544121896889267  0.0957479304672048  0.27122782761644976  1.0000
  H   H29       1.0  0.5826134652471282  0.6503236910425728  0.3671084411720074  1.0000
  H   H30       1.0  0.5293498415122714  0.33531773097207207  0.7660531042757128  1.0000
  H   H31       1.0  0.6144382259769685  0.2518764822850628  0.6794553958252861  1.0000
  H   H32       1.0  0.44536995916780614  0.2603590268948679  0.6705622957615986  1.0000
  H   H33       1.0  0.35909116621501624  0.3424521036773456  0.7589363460069124  1.0000
  H   H34       1.0  0.3234236381662329  0.3500445607465679  0.1321995473153024  1.0000
  H   H35       1.0  0.42234171450170516  0.30618684827047815  0.018040452900507428  1.0000
  H   H36       1.0  0.8372586777338711  0.8378382384605845  0.6822036500417142  1.0000
  H   H37       1.0  0.7948239097572766  0.9365050547791538  0.7395173796120247  1.0000
  H   H38       1.0  0.3577968766247252  0.15234688397691087  0.6710936118029239  1.0000
  H   H39       1.0  0.46872595936822137  0.04930621166891323  0.7177188947220827  1.0000
  H   H40       1.0  0.16409532256882636  0.31879321904960983  0.8579893675140227  1.0000
  H   H41       1.0  0.20581204063297798  0.2585582494637961  0.972193405516272  1.0000
  H   H42       1.0  0.34429619739199063  0.6777993569423655  0.33404891578989276  1.0000
  H   H43       1.0  0.45367269979352204  0.7258047276049168  0.2796756859051542  1.0000
  H   H44       1.0  0.19874264941302036  0.756830980038437  0.9323150135932537  1.0000
  H   H45       1.0  0.1921823950990246  0.7245820773309716  0.06770030937034476  1.0000
  H   H46       1.0  0.2720163464506979  0.8055857377458153  0.9515563113998625  1.0000
  H   H47       1.0  0.26583591855431643  0.9810006819881422  0.7992061673811435  1.0000
  H   H48       1.0  0.1760468390531712  0.05521971158353264  0.7214161098020214  1.0000
  H   H49       1.0  0.21739068439401898  0.9088811990838297  0.7776752285759087  1.0000
  C   C1        1.0  0.6942983293378264  0.5007087043748297  0.8006398229469696  1.0000
  C   C2        1.0  0.9979455807487908  0.8012010672437808  0.5041147772904607  1.0000
  C   C3        1.0  0.300072205392425  0.4997576681821697  0.19378604357908094  1.0000
  C   C4        1.0  0.005775211659958818  0.19163850870889126  0.5022455216010043  1.0000
  C   C5        1.0  0.006305359666946289  0.18893499161969626  0.8022627573741802  1.0000
  C   C6        1.0  0.6946180863602294  0.5009334578677525  0.5076522620835675  1.0000
  C   C7        1.0  0.005194460124691697  0.7960898304503556  0.193142735238041  1.0000
  C   C8        1.0  0.2990327918424712  0.5079998079810223  0.5043279749394215  1.0000
  C   C9        1.0  0.007814264828439792  0.5005746156520132  0.8021707462648209  1.0000
  C   C10       1.0  0.30392703929729237  0.190486721455578  0.5094438948569291  1.0000
  C   C11       1.0  0.008498236647078362  0.49872206847454237  0.19644545047620446  1.0000
  C   C12       1.0  0.6955129392692501  0.7943378380429207  0.5056416477048273  1.0000
  C   C13       1.0  0.5901831937782589  0.5051175621573236  0.8966613609580706  1.0000
  C   C14       1.0  0.3951387645924669  0.5017317036226386  0.09099515579094937  1.0000
  C   C15       1.0  0.5449206857447279  0.5782574024093918  0.9534225978953047  1.0000
  C   C16       1.0  0.43830440713995955  0.42908650347433047  0.030729542258633596  1.0000
  C   C17       1.0  0.4516645883818028  0.5747453965562882  0.04721028615326622  1.0000
  C   C18       1.0  0.5349140019650777  0.432390828702694  0.9363730365169545  1.0000
  C   C19       1.0  0.5589153829732895  0.6687540006255545  0.9602446533970906  1.0000
  C   C20       1.0  0.4536456693753552  0.6636780904094335  0.06814448014365133  1.0000
  C   C21       1.0  0.0021501695692762936  0.09533648034456377  0.4985074452422539  1.0000
  C   C22       1.0  0.9936864551570893  0.9027918259300804  0.5031575430262406  1.0000
  C   C23       1.0  0.07250460211255218  0.051335981940560764  0.4125071611698133  1.0000
  C   C24       1.0  0.9165288920447098  0.9515772558919053  0.588180468541836  1.0000
  C   C25       1.0  0.06805744588163541  0.9577679859469653  0.41718711195238006  1.0000
  C   C26       1.0  0.9248436703789409  0.04430708950568621  0.5843989124816389  1.0000
  C   C27       1.0  0.16264656434263  0.0640166652919447  0.3003023890177374  1.0000
  C   C28       1.0  0.16051329945527454  0.9549185878068444  0.3079621283851354  1.0000
  C   C29       1.0  0.5953065724751169  0.8945426200188109  0.5063229014236796  1.0000
  C   C30       1.0  0.40274702654559746  0.09105445974942944  0.5110440457693741  1.0000
  C   C31       1.0  0.5368504250477742  0.9405985439869652  0.43441979226280847  1.0000
  C   C32       1.0  0.46232011684704594  0.04432744010744459  0.5851937173422641  1.0000
  C   C33       1.0  0.44447140933036894  0.035284903181739845  0.4379111965408597  1.0000
  C   C34       1.0  0.5564871901713034  0.9480454609681959  0.5803522501302963  1.0000
  C   C35       1.0  0.5278947096514913  0.9285228275435956  0.3438534134272544  1.0000
  C   C36       1.0  0.4227262988526306  0.03643406010473886  0.3478295299427927  1.0000
  C   C37       1.0  0.011158898231137544  0.5020876105353764  0.09351072034175432  1.0000
  C   C38       1.0  0.014085242316063767  0.5006816545078651  0.8980451734064232  1.0000
  C   C39       1.0  0.9369424163449482  0.5867190670800966  0.037921047743012165  1.0000
  C   C40       1.0  0.09192266204971136  0.4140917224709925  0.9537870026860702  1.0000
  C   C41       1.0  0.9397569553109617  0.5850075754916942  0.9438551056129824  1.0000
  C   C42       1.0  0.0880711216101915  0.41762474265590294  0.049134634281699605  1.0000
  C   C43       1.0  0.8405019961617627  0.6938444387653886  0.03744467371600979  1.0000
  C   C44       1.0  0.8448905622267091  0.6932636364168516  0.9291123918038195  1.0000
  C   C45       1.0  0.00541802505334486  0.08650341287748381  0.9023135396818703  1.0000
  C   C46       1.0  0.9102265452712642  0.09110299725093522  0.9997022130859036  1.0000
  C   C47       1.0  0.09573993939156364  0.9901088254817338  0.8982749410641234  1.0000
  C   C48       1.0  0.8161437714369484  0.1884122884998617  0.0054056183631700505  1.0000
  C   C49       1.0  0.72608007468002  0.1904482602176714  0.10096012724616088  1.0000
  C   C50       1.0  0.005212234463485159  0.8963335122687042  0.09086756542395594  1.0000
  C   C51       1.0  0.09610411355163943  0.8933036576746431  0.9946579390023516  1.0000
  C   C52       1.0  0.9099188780418148  0.9937952522943049  0.09598020317137208  1.0000
  C   C53       1.0  0.8154986981712469  0.99881874814249  0.19303644692946872  1.0000
  C   C54       1.0  0.7257874768721564  0.0946909312947498  0.19574201215815623  1.0000
  C   C55       1.0  0.5906327648344882  0.5056550971404477  0.5108988983085397  1.0000
  C   C56       1.0  0.3945326469847998  0.5131072810247589  0.5062795397906968  1.0000
  C   C57       1.0  0.5375585871481335  0.4281293958085541  0.5909875905196529  1.0000
  C   C58       1.0  0.44660831040950216  0.5952402262978395  0.42541730278982476  1.0000
  C   C59       1.0  0.44358768468158866  0.43278872467828944  0.5872496765369492  1.0000
  C   C60       1.0  0.5428748926451734  0.5885821751787148  0.4299179587280619  1.0000
  C   C61       1.0  0.541171262102594  0.32480345255707743  0.6921365303501901  1.0000
  C   C62       1.0  0.43444592620590317  0.32975448852877776  0.6877362669390409  1.0000
  C   C63       1.0  0.1942008792624107  0.7894778682727618  0.9872576038066614  1.0000
  C   C64       1.0  0.1930202075593427  0.9840345842900506  0.7936409353813474  1.0000
  N   N1        1.0  0.3889759848188845  0.3568354185512064  0.06141228350317357  1.0000
  N   N2        1.0  0.833200122901822  0.9123576392041173  0.6727129222744422  1.0000
  N   N3        1.0  0.43214440777193647  0.09145958633480682  0.6594740150349239  1.0000
  N   N4        1.0  0.17213105127061115  0.3274789117154527  0.9170411592811334  1.0000
  N   N5        1.0  0.40516348657157397  0.6813590415985685  0.34408543489126947  1.0000
  O   O1        1.0  0.7359904403719567  0.42224417804263226  0.763027480997181  1.0000
  O   O2        1.0  0.07491577192624979  0.7620122668873038  0.4272255732702348  1.0000
  O   O3        1.0  0.26218694608144927  0.5755461434281769  0.23407497574989117  1.0000
  O   O4        1.0  0.9304304138543957  0.23025889368651756  0.5798269210708469  1.0000
  O   O5        1.0  0.08076310365446207  0.22986600655561065  0.7662904691659023  1.0000
  O   O6        1.0  0.7368540760899337  0.5750831781154487  0.4290830765697962  1.0000
  O   O7        1.0  0.9297864260654692  0.7552961917537145  0.23295001334544457  1.0000
  O   O8        1.0  0.2615481488963382  0.4294329717816224  0.5797544034191304  1.0000
  O   O9        1.0  0.9294923078542395  0.5762380787945528  0.7644704736231845  1.0000
  O   O10       1.0  0.2636779739137794  0.22889884949939435  0.4335973672657119  1.0000
  O   O11       1.0  0.08351590988046814  0.4206619265646551  0.23779634452370155  1.0000
  O   O12       1.0  0.7354008894123467  0.7539913665008696  0.5821831817667019  1.0000
  O   O13       1.0  0.2632765779040226  0.23395038160603576  0.5843014117084949  1.0000
  O   O14       1.0  0.9295484510788015  0.5738860726981798  0.23685238064088307  1.0000
  O   O15       1.0  0.7353722655120692  0.7572148462723121  0.4272264472556841  1.0000
  O   O16       1.0  0.08136431300019356  0.4219125251048084  0.7623469043457831  1.0000
  O   O17       1.0  0.930787921769401  0.22862975804774513  0.7613665017499756  1.0000
  O   O18       1.0  0.2594545068902006  0.5815883538638503  0.4253490628182065  1.0000
  O   O19       1.0  0.07942284918662071  0.7599258771654646  0.23465876369193953  1.0000
  O   O20       1.0  0.735315136786511  0.4218223815555433  0.5827633022874893  1.0000
  O   O21       1.0  0.08386771542971161  0.22961231032445542  0.42670745243245284  1.0000
  O   O22       1.0  0.7356061525248235  0.5750880966066633  0.7643474609655456  1.0000
  O   O23       1.0  0.9235921670428483  0.7572155639164247  0.5822745416657896  1.0000
  O   O24       1.0  0.2612780024452234  0.42062717766886937  0.23858846240083403  1.0000
  O   O25       1.0  0.9356513320592299  0.4282125423618266  0.43613615322152544  1.0000
  O   O26       1.0  0.20313750149002638  0.4308543683973837  0.4354428109813925  1.0000
  O   O27       1.0  0.9334834142648061  0.6978637339294804  0.43436774244627707  1.0000
  O   O28       1.0  0.9347635750901301  0.4292286290585566  0.7044413421265717  1.0000
  O   O29       1.0  0.05060183206848733  0.5477210938889383  0.5511695871377427  1.0000
  O   O30       1.0  0.8539750974684281  0.5447004453700828  0.552130616793086  1.0000
  O   O31       1.0  0.051596937342580335  0.5452571061789655  0.35433939366415496  1.0000
  O   O32       1.0  0.05182564340406508  0.34785420231066416  0.5533342219712053  1.0000
