data_image0
_chemical_formula_structural       Cd4H32C32O24
_chemical_formula_sum              "Cd4 H32 C32 O24"
_cell_length_a       6.190203366429473
_cell_length_b       10.334678828948185
_cell_length_c       13.957793423511687
_cell_angle_alpha    100.63175234110955
_cell_angle_beta     90.00113187643956
_cell_angle_gamma    89.99987417245768

_space_group_name_H-M_alt    "P 1"
_space_group_IT_number       1

loop_
  _space_group_symop_operation_xyz
  'x, y, z'

loop_
  _atom_site_type_symbol
  _atom_site_label
  _atom_site_symmetry_multiplicity
  _atom_site_fract_x
  _atom_site_fract_y
  _atom_site_fract_z
  _atom_site_occupancy
  Cd  Cd1       1.0  0.07575241660799747  0.9206658550550484  0.6674154142791265  1.0000
  Cd  Cd2       1.0  0.5757577690837365  0.5793310020240767  0.3325876962284582  1.0000
  Cd  Cd3       1.0  0.9242611627732701  0.079336212936127  0.3325812745162153  1.0000
  Cd  Cd4       1.0  0.424236425186315  0.4206707458594963  0.6674204095510278  1.0000
  H   H1        1.0  0.9294418486688444  0.30815864022893186  0.8845489527613921  1.0000
  H   H2        1.0  0.42945119717112584  0.1918515355063803  0.115446079365455  1.0000
  H   H3        1.0  0.0705604226290006  0.6918501378954219  0.11545520119891252  1.0000
  H   H4        1.0  0.5705510740555795  0.8081446665312556  0.8845482881617386  1.0000
  H   H5        1.0  0.11863361975153448  0.06790523087508399  0.9098626258589846  1.0000
  H   H6        1.0  0.6186255679815814  0.432105134654492  0.09012795530897222  1.0000
  H   H7        1.0  0.8813880367469481  0.932108648930729  0.0901358511582302  1.0000
  H   H8        1.0  0.38135731770816506  0.5678911272615892  0.9098642714524913  1.0000
  H   H9        1.0  0.8041013025580452  0.1528287105111303  0.04171879460096051  1.0000
  H   H10       1.0  0.3040778482799666  0.3471658411739326  0.9582839704152093  1.0000
  H   H11       1.0  0.19590581545790536  0.8471544754857945  0.958281484957439  1.0000
  H   H12       1.0  0.6959050375668523  0.6528254191763737  0.04171036552880744  1.0000
  H   H13       1.0  0.4316882365453338  0.10345021428123859  0.9401276166714609  1.0000
  H   H14       1.0  0.931674776085188  0.3965400427107966  0.059873727255670424  1.0000
  H   H15       1.0  0.5683285738106462  0.8965440192184316  0.05986645287478607  1.0000
  H   H16       1.0  0.06830164835997718  0.6034430631000803  0.9401294064575864  1.0000
  H   H17       1.0  0.5528109620044076  0.9910313779560697  0.7585213012688284  1.0000
  H   H18       1.0  0.05282512476156849  0.5089741754912183  0.24147870717214204  1.0000
  H   H19       1.0  0.4472106944137976  0.0089738230194598  0.24146941251130022  1.0000
  H   H20       1.0  0.9471674539991496  0.4910217864955584  0.7585242231102498  1.0000
  H   H21       1.0  0.6182595423525539  0.2631131505384374  0.7962362244273818  1.0000
  H   H22       1.0  0.11828076795704588  0.23689295332172827  0.2037651751928635  1.0000
  H   H23       1.0  0.38174757524092945  0.7368976362417783  0.2037668004506799  1.0000
  H   H24       1.0  0.8817279651153098  0.7631032287564281  0.7962299059229068  1.0000
  H   H25       1.0  0.5031865304241022  0.8365204123184853  0.5864350404948412  1.0000
  H   H26       1.0  0.0031959516354902  0.6634715939415797  0.41356767558851704  1.0000
  H   H27       1.0  0.49681735681445355  0.16346751523386155  0.4135724062247803  1.0000
  H   H28       1.0  0.9968079351227316  0.3365352355645044  0.5864354667794771  1.0000
  H   H29       1.0  0.337352766016977  0.8154238862598291  0.4968561601184476  1.0000
  H   H30       1.0  0.8373615549241434  0.6845782608598727  0.5031455261502558  1.0000
  H   H31       1.0  0.6626478899149005  0.1845799502866043  0.5031479623213713  1.0000
  H   H32       1.0  0.1626391008506687  0.31543057725233586  0.4968564871070029  1.0000
  C   C1        1.0  0.15240404219966308  0.2274134642637691  0.7735024616060356  1.0000
  C   C2        1.0  0.6524361241004186  0.2725757824614874  0.2264807981988  1.0000
  C   C3        1.0  0.8475917676430098  0.7725813734342992  0.2265053146321208  1.0000
  C   C4        1.0  0.34756453161631373  0.7274292183920823  0.7735170511650794  1.0000
  C   C5        1.0  0.9490665341257697  0.2150393233977255  0.8332926337466802  1.0000
  C   C6        1.0  0.4490530101248921  0.2849610107301999  0.16670960937652518  1.0000
  C   C7        1.0  0.050945429924993804  0.7849665218443534  0.16671035963369008  1.0000
  C   C8        1.0  0.5509282603870672  0.7150311139283049  0.8332891569726115  1.0000
  C   C9        1.0  0.958478834488737  0.09607747978954961  0.8883145463817711  1.0000
  C   C10       1.0  0.45847369316438596  0.4039360063646457  0.1116811375932727  1.0000
  C   C11       1.0  0.04153474489231711  0.903929449772541  0.11168502819149503  1.0000
  C   C12       1.0  0.5415075773782475  0.5960716473218071  0.8883278622373183  1.0000
  C   C13       1.0  0.780830704935518  0.11818471423266887  0.9639745175962204  1.0000
  C   C14       1.0  0.28082493354312277  0.3818264843290394  0.0360234809283853  1.0000
  C   C15       1.0  0.2191861051424482  0.8818136565146235  0.03601301235666204  1.0000
  C   C16       1.0  0.7191353359712879  0.6181725103970878  0.9639770420252631  1.0000
  C   C17       1.0  0.5964317826419075  0.09326980579568561  0.913428659096148  1.0000
  C   C18       1.0  0.09642983317149148  0.4067430793209894  0.0865679210377905  1.0000
  C   C19       1.0  0.40357856564848765  0.9067324221697249  0.0865623211615372  1.0000
  C   C20       1.0  0.9035336672765125  0.5932656185675925  0.9134390870488858  1.0000
  C   C21       1.0  0.6609521352962275  0.05488801931814179  0.8074491535521204  1.0000
  C   C22       1.0  0.16095370637627576  0.44511380857246513  0.1925475207124592  1.0000
  C   C23       1.0  0.339066290820341  0.9451049698872895  0.19255404333888754  1.0000
  C   C24       1.0  0.8390243331387807  0.5548813090059072  0.8074502655420588  1.0000
  C   C25       1.0  0.7338946245203459  0.18362326228560727  0.7733883686963382  1.0000
  C   C26       1.0  0.23391757064670315  0.3163813325952063  0.2266126861015536  1.0000
  C   C27       1.0  0.26611733934659293  0.816384691578811  0.22660992775578137  1.0000
  C   C28       1.0  0.7660943934360418  0.6836108722493465  0.7733832260927187  1.0000
  C   C29       1.0  0.7577809198118217  0.1645531103655458  0.6627973823519682  1.0000
  C   C30       1.0  0.25781161232220734  0.335435829690752  0.3372085923869506  1.0000
  C   C31       1.0  0.24223427539747178  0.8354427917626809  0.3372076887075508  1.0000
  C   C32       1.0  0.7421874278936753  0.6645740727223169  0.6627907156175965  1.0000
  O   O1        1.0  0.238435375549308  0.1275749829272073  0.7216755325060901  1.0000
  O   O2        1.0  0.7384847597730867  0.3724148233288602  0.2783261734406821  1.0000
  O   O3        1.0  0.761573358267043  0.8724185905469782  0.2783420846825067  1.0000
  O   O4        1.0  0.2615078187816238  0.6275784057086042  0.7216684605697594  1.0000
  O   O5        1.0  0.3590819751250649  0.8596951046240732  0.5662102436125807  1.0000
  O   O6        1.0  0.8591010312321498  0.6402874638674375  0.4337943241921352  1.0000
  O   O7        1.0  0.6409267581037027  0.1403106606010525  0.4337956040195223  1.0000
  O   O8        1.0  0.14091093282775796  0.3597144841182072  0.5662066459922102  1.0000
  O   O9        1.0  0.22681330267702293  0.34467245456622925  0.7828890831133037  1.0000
  O   O10       1.0  0.7268232678772718  0.155324158524742  0.21711144311814218  1.0000
  O   O11       1.0  0.7731986615671361  0.6553176616552534  0.2171108124434369  1.0000
  O   O12       1.0  0.2731741571120877  0.8446690105447698  0.7828853316067352  1.0000
  O   O13       1.0  0.8358175298270466  0.060494181807577305  0.6138814994634743  1.0000
  O   O14       1.0  0.3358538806453167  0.43950572237250196  0.3861208074652184  1.0000
  O   O15       1.0  0.16418151082392277  0.9395065817920949  0.38612645731699047  1.0000
  O   O16       1.0  0.6641419284888315  0.560500442758361  0.61387076880564  1.0000
  O   O17       1.0  0.6955311193852723  0.26004325019611224  0.6206369379418318  1.0000
  O   O18       1.0  0.1955646946711482  0.2399531778182364  0.3793562320246195  1.0000
  O   O19       1.0  0.30444853554448775  0.7399694050461675  0.3793699527005074  1.0000
  O   O20       1.0  0.8044359612252732  0.7600419398993877  0.620641554309671  1.0000
  O   O21       1.0  0.8676877124711454  0.9905168588280233  0.8163800919635092  1.0000
  O   O22       1.0  0.36770797476446393  0.509487910529728  0.1836121164647864  1.0000
  O   O23       1.0  0.132316173798479  0.009493323604594702  0.1836092261371718  1.0000
  O   O24       1.0  0.6322781419400271  0.49050728709543995  0.8163828155550945  1.0000
