data_image0
_chemical_formula_structural       Al2H11C20S2N2ClO10
_chemical_formula_sum              "Al2 H11 C20 S2 N2 Cl1 O10"
_cell_length_a       6.642183704767152
_cell_length_b       11.18172717035619
_cell_length_c       12.731339741535459
_cell_angle_alpha    81.18429453058036
_cell_angle_beta     75.31682490800294
_cell_angle_gamma    71.2180424578294

_space_group_name_H-M_alt    "P 1"
_space_group_IT_number       1

loop_
  _space_group_symop_operation_xyz
  'x, y, z'

loop_
  _atom_site_type_symbol
  _atom_site_label
  _atom_site_symmetry_multiplicity
  _atom_site_fract_x
  _atom_site_fract_y
  _atom_site_fract_z
  _atom_site_occupancy
  Al  Al1       1.0  0.4929606747839801  0.5015912144146812  0.5058134088188879  1.0000
  Al  Al2       1.0  0.9927400045089597  0.5014889291778531  0.5071007348900451  1.0000
  H   H1        1.0  0.2980974237977279  0.3446657557999587  0.5557789616914803  1.0000
  H   H2        1.0  0.6985115588244851  0.6536540980139807  0.43713342917877895  1.0000
  H   H3        1.0  0.6644268823168318  0.5824701285563237  0.15041780495740648  1.0000
  H   H4        1.0  0.22801025122423374  0.23916511267416507  0.35347257251320485  1.0000
  H   H5        1.0  0.5755888870946179  0.12424352240655172  0.2399359736490538  1.0000
  H   H6        1.0  0.4479297019832557  0.7696466219625011  0.3626480345669592  1.0000
  H   H7        1.0  0.6858092488077431  0.8874677774855616  0.24436169762906704  1.0000
  H   H8        1.0  0.7349695917287916  0.7835390301681857  0.6090102176003781  1.0000
  H   H9        1.0  0.5440979177142893  0.9259016684781616  0.6224239541161438  1.0000
  H   H10       1.0  0.5666165675876937  0.2197744833316548  0.6388067895638302  1.0000
  H   H11       1.0  0.5574814413855761  0.07516691151403172  0.6971102704308976  1.0000
  C   C1        1.0  0.86269841938163  0.2755789617442019  0.4953339418624481  1.0000
  C   C2        1.0  0.6577059311717476  0.49408005008740474  0.7024916716072341  1.0000
  C   C3        1.0  0.1274844235199808  0.7285350961913298  0.5121206509719727  1.0000
  C   C4        1.0  0.3290069592036105  0.5060117947556864  0.31022538034637387  1.0000
  C   C5        1.0  0.4311029953548342  0.44883422150758895  0.8933025252369263  1.0000
  C   C6        1.0  0.5602777457242  0.542767259716129  0.12180067220813838  1.0000
  C   C7        1.0  0.5918079233140858  0.4940347334419998  0.8214486627564312  1.0000
  C   C8        1.0  0.3951972586946866  0.5012089898106851  0.1914223677758642  1.0000
  C   C9        1.0  0.5704236726285997  0.5261477780227183  0.0126033325680837  1.0000
  C   C10       1.0  0.41637072560327226  0.46897148826304413  0.002297405058527585  1.0000
  C   C11       1.0  0.9334663809511383  0.13543558821027094  0.49515244284911114  1.0000
  C   C12       1.0  0.1393494705269802  0.07051942445297502  0.43016503565386444  1.0000
  C   C13       1.0  0.7928278733447058  0.07016131858195253  0.559279155377496  1.0000
  C   C14       1.0  0.27741972015302013  0.13610453944372844  0.3583628621481196  1.0000
  C   C15       1.0  0.47242542969285495  0.0716128466213632  0.2942647657443374  1.0000
  C   C16       1.0  0.05882541138380759  0.86905080457899  0.5027887095060919  1.0000
  C   C17       1.0  0.8517418048197033  0.9345846463276646  0.5586037283940896  1.0000
  C   C18       1.0  0.20468940224083831  0.9348632412224944  0.43528248696411953  1.0000
  C   C19       1.0  0.4031516949103063  0.8718831010176021  0.3656033948834646  1.0000
  C   C20       1.0  0.5349125506303379  0.9383769072155349  0.29729423887160067  1.0000
  S   S1        1.0  0.7282343101329973  0.5574374185451418  0.8879025934655616  1.0000
  S   S2        1.0  0.2530390540890081  0.44040847454493104  0.125900625533319  1.0000
  N   N1        1.0  0.7021222328316055  0.8759684065308665  0.6223885728007658  1.0000
  N   N2        1.0  0.5939450800373436  0.12776191920971064  0.6262822303124835  1.0000
  Cl  Cl1       1.0  0.2737687382367683  0.3722620176646174  0.8599473683712162  1.0000
  O   O1        1.0  0.6722188126933164  0.3333228655441332  0.47867940512172413  1.0000
  O   O2        1.0  0.8361181205378898  0.5197435998642207  0.6576657853112735  1.0000
  O   O3        1.0  0.9948646863741573  0.6732430476638173  0.4990629811304074  1.0000
  O   O4        1.0  0.45630835583351387  0.5323688627801602  0.35702793341961575  1.0000
  O   O5        1.0  0.3141780446592365  0.6702180415197957  0.53266469259448  1.0000
  O   O6        1.0  0.14768540068014602  0.4847609856777242  0.35611592540511333  1.0000
  O   O7        1.0  0.9898804057315475  0.32970724294489884  0.5149300828662787  1.0000
  O   O8        1.0  0.5330189446891469  0.46847808844852784  0.6535506343107329  1.0000
  O   O9        1.0  0.2557169213452823  0.43676197680866136  0.5515005308818886  1.0000
  O   O10       1.0  0.7323291300449172  0.56390900446565  0.4603472146927671  1.0000
