data_image0
_chemical_formula_structural       Dy4Cu4H128C192N16O32
_chemical_formula_sum              "Dy4 Cu4 H128 C192 N16 O32"
_cell_length_a       15.981940396820491
_cell_length_b       19.60605559151803
_cell_length_c       19.60311767919468
_cell_angle_alpha    80.43248539422032
_cell_angle_beta     65.9543771508391
_cell_angle_gamma    65.94766472346744

_space_group_name_H-M_alt    "P 1"
_space_group_IT_number       1

loop_
  _space_group_symop_operation_xyz
  'x, y, z'

loop_
  _atom_site_type_symbol
  _atom_site_label
  _atom_site_symmetry_multiplicity
  _atom_site_fract_x
  _atom_site_fract_y
  _atom_site_fract_z
  _atom_site_occupancy
  Dy  Dy1       1.0  0.1563358019935708  0.29854572176843414  0.8861391567761101  1.0000
  Dy  Dy2       1.0  0.3410168191815969  0.70152450438912  0.11391798114626547  1.0000
  Dy  Dy3       1.0  0.5450826754834851  0.11387504961267331  0.2984733721874235  1.0000
  Dy  Dy4       1.0  0.9576815804655823  0.8859412816603012  0.7016560148534692  1.0000
  Cu  Cu1       1.0  0.20176128263524618  0.40643950458719763  0.18455111278180414  1.0000
  Cu  Cu2       1.0  0.7927087900350646  0.5935207923915584  0.8155095435425465  1.0000
  Cu  Cu3       1.0  0.3917392761805941  0.8154300868230493  0.40673768419465967  1.0000
  Cu  Cu4       1.0  0.6139912574586572  0.18440123238829642  0.5932558522558297  1.0000
  H   H1        1.0  0.8150209413523514  0.4271692691553853  0.0691981441565659  1.0000
  H   H2        1.0  0.6353120219402015  0.4499348206095988  0.12403475410437179  1.0000
  H   H3        1.0  0.8655475963875859  0.26804087990207404  0.9166309084183127  1.0000
  H   H4        1.0  0.685123134732855  0.29191757648155914  0.96899037170553  1.0000
  H   H5        1.0  0.4813075960082784  0.5026206977839041  0.10235738362824527  1.0000
  H   H6        1.0  0.3077016613086841  0.5136876885184946  0.14899488541679065  1.0000
  H   H7        1.0  0.5704233578790153  0.2655079921987992  0.07544872616186644  1.0000
  H   H8        1.0  0.3936705488301017  0.2856529037748885  0.12305751635729927  1.0000
  H   H9        1.0  0.38493331987635326  0.41853877047663696  0.7608524282804225  1.0000
  H   H10       1.0  0.5229136787617464  0.4561986812539161  0.7453451122138475  1.0000
  H   H11       1.0  0.3239186109284163  0.384946816701536  0.9956307161361195  1.0000
  H   H12       1.0  0.4600495246135881  0.42320760747120545  0.9814159696072408  1.0000
  H   H13       1.0  0.6850883736872931  0.4138557971054483  0.7485063498423158  1.0000
  H   H14       1.0  0.8085987332260772  0.4645124503266162  0.7393056795220049  1.0000
  H   H15       1.0  0.5000816154966617  0.5271801173865497  0.961084038133201  1.0000
  H   H16       1.0  0.6327515940215565  0.5677477216187086  0.9463835406203102  1.0000
  H   H17       1.0  0.26955033737822726  0.23223050858136668  0.6318552870172381  1.0000
  H   H18       1.0  0.2844384913027867  0.2558830395813061  0.4984102351565127  1.0000
  H   H19       1.0  0.022527507241079475  0.44048956293830344  0.6973872757942061  1.0000
  H   H20       1.0  0.03125877754169441  0.46287961116902937  0.5657842709840393  1.0000
  H   H21       1.0  0.3245039697517028  0.3446625185567527  0.3977198479059468  1.0000
  H   H22       1.0  0.33112930910308347  0.37218483634939054  0.26832258580373747  1.0000
  H   H23       1.0  0.008825281395942878  0.4084885796592701  0.4703609461596442  1.0000
  H   H24       1.0  0.028467979639401626  0.4313351637590942  0.33673677175928407  1.0000
  H   H25       1.0  0.23347143652430483  0.0411196235718378  0.9365835064022858  1.0000
  H   H26       1.0  0.3427785496428587  0.9060677175782251  0.913789515805206  1.0000
  H   H27       1.0  0.48702685905276855  0.1015340341023787  0.8313801096729918  1.0000
  H   H28       1.0  0.5980292651798255  0.9672167070982526  0.8075199752734434  1.0000
  H   H29       1.0  0.4631134717227996  0.8078188628725369  0.9515285014382254  1.0000
  H   H30       1.0  0.5880274639378983  0.6800104206815336  0.9325004252144776  1.0000
  H   H31       1.0  0.6465554800134045  0.8645752931044086  0.7357489249350451  1.0000
  H   H32       1.0  0.7634838460350726  0.7336221887582185  0.7238889326350773  1.0000
  H   H33       1.0  0.3114235360101533  0.5730618417116206  0.9307875274688228  1.0000
  H   H34       1.0  0.2094364289609206  0.5501690553812607  0.8758951200849053  1.0000
  H   H35       1.0  0.05020170721768832  0.7321576483646484  0.08324839856551589  1.0000
  H   H36       1.0  0.9460928804941845  0.7081315888956468  0.03089647052981085  1.0000
  H   H37       1.0  0.08636895291719077  0.4974587268657516  0.897578319639102  1.0000
  H   H38       1.0  0.9703895760444827  0.48633506414397226  0.8510609577637994  1.0000
  H   H39       1.0  0.9113444907321055  0.7345680006777686  0.924511730061944  1.0000
  H   H40       1.0  0.802335185806136  0.7143516850808213  0.8769559512545653  1.0000
  H   H41       1.0  0.5644624800017582  0.5814627058167688  0.23910557982350872  1.0000
  H   H42       1.0  0.7245629776629914  0.5437965989922873  0.25463983940601037  1.0000
  H   H43       1.0  0.7046579368788386  0.6148806794663814  0.004302551495364097  1.0000
  H   H44       1.0  0.864816111183764  0.5765617429696519  0.018528374389966143  1.0000
  H   H45       1.0  0.8476754858849916  0.5863203608095163  0.25141628834218466  1.0000
  H   H46       1.0  0.012600780731858689  0.53564328286749  0.2606612690454995  1.0000
  H   H47       1.0  0.9884574816095083  0.4727987067816457  0.038953286858379996  1.0000
  H   H48       1.0  0.14700467029145872  0.43228832998705974  0.05364210121063453  1.0000
  H   H49       1.0  0.1337272093053557  0.7679924027608537  0.36843230938792  1.0000
  H   H50       1.0  0.038750679860278595  0.7443077517683605  0.5018318501143496  1.0000
  H   H51       1.0  0.1602919816581334  0.5598900854781377  0.3026933859350009  1.0000
  H   H52       1.0  0.059681487650451136  0.5374930108065001  0.4342351378529159  1.0000
  H   H53       1.0  0.06697074987564396  0.6553190735688547  0.6023983522505602  1.0000
  H   H54       1.0  0.9718840502512768  0.6276218450857343  0.7317819653672544  1.0000
  H   H55       1.0  0.8874106578629226  0.5918852432315733  0.5297399714761397  1.0000
  H   H56       1.0  0.7965217433756778  0.5688172251971295  0.6633096200318818  1.0000
  H   H57       1.0  0.21062698606190378  0.9590369890930504  0.06343854580153163  1.0000
  H   H58       1.0  0.1621971336241401  0.09410140646953381  0.08616631665528728  1.0000
  H   H59       1.0  0.4198923559585027  0.8985969039522957  0.16819333358331792  1.0000
  H   H60       1.0  0.3727683786426965  0.0329256302227705  0.1920573303802087  1.0000
  H   H61       1.0  0.22242990156387077  0.192304556359403  0.04833244579047861  1.0000
  H   H62       1.0  0.200383438207183  0.3201133554676759  0.06749872949194474  1.0000
  H   H63       1.0  0.24671118548156568  0.13542430915861564  0.2641779583826959  1.0000
  H   H64       1.0  0.22109233564572855  0.2663230025761082  0.27604475111152027  1.0000
  H   H65       1.0  0.7577858375032278  0.9309075465956984  0.42690023126343135  1.0000
  H   H66       1.0  0.9145978682865133  0.8759142301247634  0.44985166410778277  1.0000
  H   H67       1.0  0.8668184727159342  0.0833621248983221  0.2678689903047625  1.0000
  H   H68       1.0  0.023227163728783876  0.03085679697504421  0.29195468753095344  1.0000
  H   H69       1.0  0.016162868828182218  0.8973798839510113  0.5025898516033179  1.0000
  H   H70       1.0  0.17864670362903473  0.8507400246580376  0.5137306456745705  1.0000
  H   H71       1.0  0.1641860302830979  0.9244563690223015  0.2654865121696872  1.0000
  H   H72       1.0  0.3207533893991227  0.876874036392323  0.28569766722652906  1.0000
  H   H73       1.0  0.19669086015590406  0.23909837127792602  0.41843811389534835  1.0000
  H   H74       1.0  0.021015462677972645  0.2547344235433044  0.45610245710152236  1.0000
  H   H75       1.0  0.2910921951677992  0.004432120549694201  0.3845786245499808  1.0000
  H   H76       1.0  0.11664475523490136  0.0187745436559226  0.42280308846490294  1.0000
  H   H77       1.0  0.9008635754029231  0.2514763892938419  0.41357465479043737  1.0000
  H   H78       1.0  0.7268402087963537  0.26032675316088233  0.4641401036435012  1.0000
  H   H79       1.0  0.9730648651869348  0.0389413940586749  0.5269777097146077  1.0000
  H   H80       1.0  0.7999301039332212  0.0533623831401329  0.5675494456100976  1.0000
  H   H81       1.0  0.4977583327361756  0.36835959858755274  0.23211446359565002  1.0000
  H   H82       1.0  0.4595137859993981  0.5017433598224772  0.2556978658238549  1.0000
  H   H83       1.0  0.5366542595132558  0.3026444263792102  0.4403525212703414  1.0000
  H   H84       1.0  0.5058548141613176  0.4341683662605078  0.4626883175700415  1.0000
  H   H85       1.0  0.33072178897361953  0.6023320850653988  0.3448077001314047  1.0000
  H   H86       1.0  0.29643492036979796  0.731645402176831  0.37263580611921293  1.0000
  H   H87       1.0  0.5830347664295491  0.5295277326660256  0.40813115965338637  1.0000
  H   H88       1.0  0.5403672229247009  0.663065107765391  0.43134851538732016  1.0000
  H   H89       1.0  0.7253516931500033  0.06339560537016102  0.041106477940175544  1.0000
  H   H90       1.0  0.7511195481848392  0.08635040112090313  0.9060368574401423  1.0000
  H   H91       1.0  0.41138325296410033  0.16835776380186476  0.1014032857797531  1.0000
  H   H92       1.0  0.43475690684469026  0.19242734516956975  0.9670522415106219  1.0000
  H   H93       1.0  0.7287959149701991  0.0484567439451382  0.8078862265732382  1.0000
  H   H94       1.0  0.7319445967954298  0.06741142390097112  0.6799729868348477  1.0000
  H   H95       1.0  0.4891374459922134  0.26448536626340063  0.8642415618015773  1.0000
  H   H96       1.0  0.5032415427057516  0.27619099909583167  0.7332523732502877  1.0000
  H   H97       1.0  0.11567531523544262  0.06893280419356532  0.5729730535140121  1.0000
  H   H98       1.0  0.24039620269169867  0.12399750499144352  0.5500238543529148  1.0000
  H   H99       1.0  0.21764567437826818  0.9169542622847262  0.732487801350551  1.0000
  H   H100      1.0  0.3456012543692783  0.9694933335802817  0.7083988001943807  1.0000
  H   H101      1.0  0.41615678370630604  0.10232483221261653  0.49734004271002874  1.0000
  H   H102      1.0  0.5433342391681251  0.14884453715541923  0.48604687591716095  1.0000
  H   H103      1.0  0.3540643486149477  0.07577424020231402  0.7344956319822699  1.0000
  H   H104      1.0  0.48344476221305405  0.12320512953218099  0.7140981472934556  1.0000
  H   H105      1.0  0.8544721914363791  0.7605230896719775  0.5816581486269995  1.0000
  H   H106      1.0  0.7318033796707227  0.7449546505892288  0.5442306956758927  1.0000
  H   H107      1.0  0.6808736172272845  0.9953130946602614  0.6150188587658788  1.0000
  H   H108      1.0  0.5587454983579507  0.9810287925051284  0.5770715754100023  1.0000
  H   H109      1.0  0.5658986714441809  0.7483219208431534  0.5867833212389612  1.0000
  H   H110      1.0  0.4516733806424397  0.7392845546110608  0.535917430079536  1.0000
  H   H111      1.0  0.5394813728538213  0.9605973907178864  0.472972760227911  1.0000
  H   H112      1.0  0.42148020687199084  0.9461267780993124  0.432253576320015  1.0000
  H   H113      1.0  0.09867490083633619  0.6316685430311894  0.767820784386771  1.0000
  H   H114      1.0  0.21712701410539398  0.49821357356970714  0.7442591734687338  1.0000
  H   H115      1.0  0.2803613409649941  0.6972007413693008  0.5596158985031323  1.0000
  H   H116      1.0  0.4031623755149243  0.5656011622084804  0.5373617256579165  1.0000
  H   H117      1.0  0.27808929192618614  0.3975302032107706  0.655250808818181  1.0000
  H   H118      1.0  0.4009210096871812  0.2682345270417842  0.6273127279645151  1.0000
  H   H119      1.0  0.5209451972116456  0.4703089686484178  0.5918206377389693  1.0000
  H   H120      1.0  0.6350099682212401  0.3367835856660336  0.5685174919556744  1.0000
  H   H121      1.0  0.8295361579086066  0.9367063119394174  0.9592226791290128  1.0000
  H   H122      1.0  0.7429759688643073  0.9137825811213034  0.09424205049312208  1.0000
  H   H123      1.0  0.681333566521161  0.8315548599601074  0.8985385703857316  1.0000
  H   H124      1.0  0.5940417115405907  0.8076475892818068  0.03284957121982054  1.0000
  H   H125      1.0  0.5849312142911604  0.951531496951013  0.19228663647488287  1.0000
  H   H126      1.0  0.4793686925872933  0.9324105643232415  0.32018152060639676  1.0000
  H   H127      1.0  0.6171834115243441  0.735784224511356  0.13559316532951735  1.0000
  H   H128      1.0  0.5122208068585437  0.7238805387103184  0.2666207190324528  1.0000
  C   C1        1.0  0.9597065566004238  0.32792767818273216  0.9578502583599046  1.0000
  C   C2        1.0  0.8508453415797848  0.3458812685778271  0.9899402064662866  1.0000
  C   C3        1.0  0.7857756654805926  0.3979484916660213  0.04760037270050089  1.0000
  C   C4        1.0  0.6851098168342062  0.4110535627097463  0.0776282150689909  1.0000
  C   C5        1.0  0.8138125813869266  0.3079527455395025  0.9618068733287473  1.0000
  C   C6        1.0  0.7136259195523071  0.320995835443405  0.991646536269826  1.0000
  C   C7        1.0  0.6479430222419964  0.3722497182481633  0.05050021797121221  1.0000
  C   C8        1.0  0.5426842460994266  0.38286295289204736  0.08242302034791037  1.0000
  C   C9        1.0  0.4657148246909771  0.45272172861096055  0.10584354973062908  1.0000
  C   C10       1.0  0.36767958343607193  0.4594798672117763  0.1316269690617702  1.0000
  C   C11       1.0  0.5149547893017968  0.3218346681393456  0.08939507444334541  1.0000
  C   C12       1.0  0.4158167892765478  0.33275944656597295  0.11630554737544682  1.0000
  C   C13       1.0  0.2646116449758582  0.3771042434257907  0.8853170824773214  1.0000
  C   C14       1.0  0.34581596331332093  0.3998930994534576  0.8787945930656774  1.0000
  C   C15       1.0  0.40283711279196427  0.41957938709399667  0.8084823485729444  1.0000
  C   C16       1.0  0.48010821042575486  0.43993479799447505  0.8002093913022816  1.0000
  C   C17       1.0  0.3673023854194356  0.40094760932980483  0.9409919306402654  1.0000
  C   C18       1.0  0.44372780587206523  0.42232792648632506  0.9329442524199933  1.0000
  C   C19       1.0  0.5012485902498869  0.44221920346881655  0.8626079279096996  1.0000
  C   C20       1.0  0.579843577593728  0.4671048805565333  0.8553932178474211  1.0000
  C   C21       1.0  0.6692041287351174  0.4498340508420783  0.7926674586905945  1.0000
  C   C22       1.0  0.738700092363608  0.47772003737792085  0.7873362423211175  1.0000
  C   C23       1.0  0.5681483822732005  0.5100555781100414  0.9115740140925652  1.0000
  C   C24       1.0  0.6418147334605778  0.5349503371200727  0.9023825764074901  1.0000
  C   C25       1.0  0.14337119254604147  0.3225273959117845  0.7495314801879616  1.0000
  C   C26       1.0  0.14580118837152872  0.3350345864124905  0.6716927536287043  1.0000
  C   C27       1.0  0.2189738204839174  0.2828848594319098  0.6159173630293822  1.0000
  C   C28       1.0  0.22671114555876679  0.2960569642046522  0.5420884284033604  1.0000
  C   C29       1.0  0.0779101726239093  0.3999079059641418  0.6535512170048533  1.0000
  C   C30       1.0  0.08314293472809453  0.41196957291179365  0.5802540456151772  1.0000
  C   C31       1.0  0.15810344444662422  0.3608141170160835  0.5237899236873317  1.0000
  C   C32       1.0  0.16530360435675118  0.375412513543928  0.44593884709907167  1.0000
  C   C33       1.0  0.25669781985676826  0.3643920430568954  0.38699437037757883  1.0000
  C   C34       1.0  0.26061584212914823  0.38006240017886483  0.3143830906323259  1.0000
  C   C35       1.0  0.08161441599458645  0.40053986204220143  0.4270540151291513  1.0000
  C   C36       1.0  0.09223906255769528  0.4135025688709676  0.35267117704086803  1.0000
  C   C37       1.0  0.2891173229639892  0.1596974865223615  0.8966948624057165  1.0000
  C   C38       1.0  0.3540782001868268  0.07899860927389571  0.884899680987594  1.0000
  C   C39       1.0  0.3134222455643257  0.023913499710751303  0.9083784094913836  1.0000
  C   C40       1.0  0.3746329846669454  0.9488275644555983  0.8952143201153575  1.0000
  C   C41       1.0  0.4566583346039154  0.0580778296738771  0.8482412175960902  1.0000
  C   C42       1.0  0.5179890219833184  0.9832963427134732  0.8345734127716041  1.0000
  C   C43       1.0  0.47755564042013554  0.9277107902789438  0.8579118016000322  1.0000
  C   C44       1.0  0.5442075723455986  0.8485881884569937  0.8454028326450784  1.0000
  C   C45       1.0  0.5282389532794839  0.7938614500500094  0.8996672451524006  1.0000
  C   C46       1.0  0.5985427026374311  0.7214395797758189  0.8887520360553791  1.0000
  C   C47       1.0  0.6301187871104121  0.8253489222933652  0.7805556989338313  1.0000
  C   C48       1.0  0.695919158236038  0.7516415021267877  0.7735791781684114  1.0000
  C   C49       1.0  0.2454281799331213  0.6722785799455837  0.042135524882908774  1.0000
  C   C50       1.0  0.1866768864755883  0.654364613317938  0.009939609208132085  1.0000
  C   C51       1.0  0.23137124558222424  0.6022688295477466  0.952303688258226  1.0000
  C   C52       1.0  0.17387960092450802  0.5890933741707016  0.9222770196235074  1.0000
  C   C53       1.0  0.08358726534807209  0.692254095823543  0.038064695942850287  1.0000
  C   C54       1.0  0.02633345984811793  0.6791205159083589  0.008234325439701715  1.0000
  C   C55       1.0  0.07079600258410333  0.6278565031900669  0.9493824464584576  1.0000
  C   C56       1.0  0.008025493945175924  0.6172085917414236  0.9175085031396577  1.0000
  C   C57       1.0  0.02432471894024262  0.5473378664520326  0.8941235204264116  1.0000
  C   C58       1.0  0.9587813274051772  0.5405536728571293  0.8684059006893106  1.0000
  C   C59       1.0  0.9261856268697243  0.6782277735457641  0.9105736238010492  1.0000
  C   C60       1.0  0.8648506160797284  0.6672672285745236  0.8837084488372396  1.0000
  C   C61       1.0  0.5270932496594584  0.6229698348477515  0.11467324321717605  1.0000
  C   C62       1.0  0.6246005609482949  0.6001240907204918  0.12117078899599673  1.0000
  C   C63       1.0  0.6310310128912067  0.5804335615030142  0.19148797739172363  1.0000
  C   C64       1.0  0.7203963984381119  0.5600536126149721  0.1997626184333328  1.0000
  C   C65       1.0  0.7093801348181474  0.5989560192898367  0.05896246211687384  1.0000
  C   C66       1.0  0.7991449886352202  0.5775349638582626  0.0670229918181775  1.0000
  C   C67       1.0  0.8062117451994626  0.557735517403991  0.13738237992011196  1.0000
  C   C68       1.0  0.9024707906444721  0.5329387148522146  0.14461439109315677  1.0000
  C   C69       1.0  0.9118698380820405  0.5502836293813688  0.2072984176716304  1.0000
  C   C70       1.0  0.0039249615475753915  0.5224102790887529  0.2126420045631789  1.0000
  C   C71       1.0  0.9899037398384252  0.4899849365355777  0.08844172862773554  1.0000
  C   C72       1.0  0.07927105796460411  0.4651229281350382  0.09762755206277518  1.0000
  C   C73       1.0  0.2154763482946294  0.6776964836093385  0.25063271319636726  1.0000
  C   C74       1.0  0.15252165136883641  0.6652600108998641  0.3284783357405914  1.0000
  C   C75       1.0  0.11781676412941525  0.7173579277147866  0.3842940539847958  1.0000
  C   C76       1.0  0.06485628369485874  0.7041795180969215  0.45811021478127856  1.0000
  C   C77       1.0  0.13129339636544296  0.6004232405418791  0.34656665794611996  1.0000
  C   C78       1.0  0.07524611128736323  0.5883530163115722  0.4198297330928113  1.0000
  C   C79       1.0  0.04260149598599139  0.6394684043789597  0.4763446201434788  1.0000
  C   C80       1.0  0.9865553222272969  0.6247913095320854  0.5541698796616784  1.0000
  C   C81       1.0  0.008118821819209655  0.6356421573861725  0.6131221110067598  1.0000
  C   C82       1.0  0.9551864303077766  0.619875226763277  0.685721871137673  1.0000
  C   C83       1.0  0.9090786840403171  0.5997019258539782  0.5730263901861505  1.0000
  C   C84       1.0  0.858405908120801  0.586624576137119  0.6473852549591044  1.0000
  C   C85       1.0  0.34522813484853293  0.840446973645868  0.10317117851767682  1.0000
  C   C86       1.0  0.3175820618466364  0.9211549208785497  0.1149702124548709  1.0000
  C   C87       1.0  0.24521287257397262  0.9762463196740543  0.09159610946679211  1.0000
  C   C88       1.0  0.2182370965477887  0.0513245595091973  0.10474055041428441  1.0000
  C   C89       1.0  0.36277319545898473  0.9420622779912622  0.15148266297400442  1.0000
  C   C90       1.0  0.33569987916433064  0.016835509220449296  0.16515324419999902  1.0000
  C   C91       1.0  0.2628746825647284  0.0724172928075433  0.14196142492906463  1.0000
  C   C92       1.0  0.23799194354584333  0.1515104386210453  0.15450361676568747  1.0000
  C   C93       1.0  0.2216526975683876  0.20625716920403656  0.100235877472258  1.0000
  C   C94       1.0  0.20863523994315614  0.2786608081395699  0.11120570664571258  1.0000
  C   C95       1.0  0.23587148877579273  0.1746813020739424  0.2193729336032817  1.0000
  C   C96       1.0  0.2211025846155863  0.24835483208811132  0.22637000764166965  1.0000
  C   C97       1.0  0.71257935780487  0.0422629083488673  0.3276124374531193  1.0000
  C   C98       1.0  0.8034927233616999  0.0100812518681224  0.3455972478284721  1.0000
  C   C99       1.0  0.8163515997484581  0.9524146558061162  0.3977076191913582  1.0000
  C   C100      1.0  0.9038561581175417  0.9223011099435328  0.4109137192685497  1.0000
  C   C101      1.0  0.8785210995796009  0.038158164713713895  0.30777234300007444  1.0000
  C   C102      1.0  0.9655922895533139  0.008237877596016598  0.32092811173778574  1.0000
  C   C103      1.0  0.9799123996291357  0.9493447958199184  0.3721742603466255  1.0000
  C   C104      1.0  0.07454783234435097  0.9173651612777789  0.38283536664447837  1.0000
  C   C105      1.0  0.08164745139830394  0.8939173473740284  0.4527039873505742  1.0000
  C   C106      1.0  0.17290880270677914  0.8681403184084218  0.45950122430756574  1.0000
  C   C107      1.0  0.16331102154497068  0.9104490310445711  0.3218282998798755  1.0000
  C   C108      1.0  0.2515120731219584  0.8835540019625938  0.33278907755912707  1.0000
  C   C109      1.0  0.3583413353724083  0.1146063041799721  0.37702042363128624  1.0000
  C   C110      1.0  0.2543411698935786  0.12121219798351043  0.3996602107363926  1.0000
  C   C111      1.0  0.17767160815645167  0.19153319403305602  0.4193965965280313  1.0000
  C   C112      1.0  0.08001761525084565  0.1998640826109579  0.43974437574194514  1.0000
  C   C113      1.0  0.2317376158354777  0.05907348339463431  0.4006196124495601  1.0000
  C   C114      1.0  0.1339138695816331  0.06718869037239732  0.42197587049094654  1.0000
  C   C115      1.0  0.056539341767916126  0.1375146899621313  0.4419650675353282  1.0000
  C   C116      1.0  0.9531011934859067  0.14465627238319462  0.46686232209714273  1.0000
  C   C117      1.0  0.8809155179968188  0.20727466537444883  0.4495694557819334  1.0000
  C   C118      1.0  0.7836122460725296  0.21242067984693597  0.47740870860010903  1.0000
  C   C119      1.0  0.9220300258641246  0.08839162373313772  0.5098155879387676  1.0000
  C   C120      1.0  0.8235330103235583  0.09741193683350963  0.5347030053271241  1.0000
  C   C121      1.0  0.5337128532008679  0.2506090227552136  0.32242010424506856  1.0000
  C   C122      1.0  0.5188060113965637  0.3284331987508439  0.3348901550198633  1.0000
  C   C123      1.0  0.4978216596892652  0.3842348277023789  0.2827367977819718  1.0000
  C   C124      1.0  0.47707288001875287  0.4580279170176171  0.2958776421389828  1.0000
  C   C125      1.0  0.5218846445069476  0.34650680923871147  0.39977159551155955  1.0000
  C   C126      1.0  0.5047509337357707  0.4197587738317808  0.4118047937191065  1.0000
  C   C127      1.0  0.48105897810926745  0.47624843941912326  0.36061769708604163  1.0000
  C   C128      1.0  0.4593860483365758  0.5540483923410522  0.3752901951050304  1.0000
  C   C129      1.0  0.37885631492027744  0.6130139020752383  0.36449756699985864  1.0000
  C   C130      1.0  0.3592075409619682  0.6855712732967093  0.38034714362319727  1.0000
  C   C131      1.0  0.5180688831125125  0.5728510305066196  0.40035969892764456  1.0000
  C   C132      1.0  0.49438625497599314  0.6471881288051974  0.413526745198162  1.0000
  C   C133      1.0  0.5510860263849651  0.10322390716655151  0.15966376286650064  1.0000
  C   C134      1.0  0.5668566067882639  0.11501030274701658  0.07894442422277595  1.0000
  C   C135      1.0  0.6626162970584775  0.09163677425387823  0.02387516116069592  1.0000
  C   C136      1.0  0.6765094519025397  0.10489250021419141  0.9487785461626004  1.0000
  C   C137      1.0  0.4852240227421092  0.15161646489968214  0.05796028413447374  1.0000
  C   C138      1.0  0.498700347004508  0.1653932862406364  0.9831607611950731  1.0000
  C   C139      1.0  0.5947205304133977  0.14219518038790824  0.9276186498835982  1.0000
  C   C140      1.0  0.6072402015234248  0.15472206455592644  0.8484629394008606  1.0000
  C   C141      1.0  0.6778074483626214  0.10035872593290661  0.7938198648296575  1.0000
  C   C142      1.0  0.6800395394519683  0.1112172111614669  0.7213439171664432  1.0000
  C   C143      1.0  0.544757757480973  0.2196075639361297  0.8250898253413863  1.0000
  C   C144      1.0  0.5527195345556706  0.22651056615720935  0.7513569400420153  1.0000
  C   C145      1.0  0.08247862180733272  0.9577274015079384  0.6723639831029685  1.0000
  C   C146      1.0  0.15908185020545323  0.9899817040002434  0.6544508938381169  1.0000
  C   C147      1.0  0.16646355538477312  0.04754616705616851  0.6022429698806491  1.0000
  C   C148      1.0  0.23702663009051156  0.07768038594092991  0.5890428880287784  1.0000
  C   C149      1.0  0.22415934194955175  0.9620583179851535  0.6924675440231097  1.0000
  C   C150      1.0  0.2944456258075976  0.9919931327139153  0.6793042830710333  1.0000
  C   C151      1.0  0.30127779932136906  0.05073829057970872  0.627882639469142  1.0000
  C   C152      1.0  0.3747074337380028  0.08261720852247831  0.6171340983639054  1.0000
  C   C153      1.0  0.428321915650912  0.10587087185034251  0.5472013718845261  1.0000
  C   C154      1.0  0.5007028253601296  0.13157811681317366  0.5403238722009931  1.0000
  C   C155      1.0  0.39558529103715767  0.08962365936839943  0.6781107374214486  1.0000
  C   C156      1.0  0.4679484342897242  0.11643213834845059  0.6670547075168044  1.0000
  C   C157      1.0  0.850430258978065  0.8850330479024252  0.6229304729957689  1.0000
  C   C158      1.0  0.7756950821012013  0.8784901941693589  0.6002176337351485  1.0000
  C   C159      1.0  0.7888969004488474  0.8081494074998902  0.5806554012375783  1.0000
  C   C160      1.0  0.7197777510184837  0.7998346658505754  0.5604565935174577  1.0000
  C   C161      1.0  0.6920178630407322  0.9406665176283013  0.5991560632071612  1.0000
  C   C162      1.0  0.623521459228101  0.9325657830687112  0.5779548565753319  1.0000
  C   C163      1.0  0.6362273344739787  0.8622205423617192  0.5581973592810101  1.0000
  C   C164      1.0  0.5648368748351799  0.8550355541970237  0.5333126600812506  1.0000
  C   C165      1.0  0.5379154311107545  0.7924430545756496  0.550646150277835  1.0000
  C   C166      1.0  0.47377255881691116  0.7872104593264526  0.5226490646776013  1.0000
  C   C167      1.0  0.5206578712411132  0.911190473950782  0.490176009876933  1.0000
  C   C168      1.0  0.4561845855143999  0.9021187583792881  0.4651853251701255  1.0000
  C   C169      1.0  0.10732196780340089  0.7493438731858008  0.677538899249079  1.0000
  C   C170      1.0  0.18270650644782918  0.6715160042195549  0.6650651721175647  1.0000
  C   C171      1.0  0.1652321218277351  0.6157276433459913  0.7172097431007741  1.0000
  C   C172      1.0  0.2312757840287249  0.5418939419333455  0.7040758639731732  1.0000
  C   C173      1.0  0.2687661024696907  0.6533745672754564  0.6002233343040473  1.0000
  C   C174      1.0  0.3367819333723432  0.580080891605057  0.5882201223175159  1.0000
  C   C175      1.0  0.3182530259026918  0.5236245902395353  0.6393737045511827  1.0000
  C   C176      1.0  0.3889591146119359  0.44581643270063864  0.624725691727022  1.0000
  C   C177      1.0  0.3565942678645088  0.38684884047214757  0.6355505768539585  1.0000
  C   C178      1.0  0.4253476234870421  0.31429053175583727  0.6196551248774965  1.0000
  C   C179      1.0  0.4915146739579942  0.42699538557540967  0.5996047911746203  1.0000
  C   C180      1.0  0.5553261637299656  0.35265675770141774  0.5864088651733681  1.0000
  C   C181      1.0  0.8140839591262505  0.8967550237776583  0.8404956576146956  1.0000
  C   C182      1.0  0.7607297139664907  0.8850494842193302  0.9211939139838775  1.0000
  C   C183      1.0  0.7778244961522416  0.9084904342391483  0.9763577132625869  1.0000
  C   C184      1.0  0.7297225591257117  0.8952742451663765  0.051420840308793465  1.0000
  C   C185      1.0  0.6947790863904686  0.8484092917757168  0.9420477060106762  1.0000
  C   C186      1.0  0.6470172236851824  0.8347105458380709  0.016822608031006294  1.0000
  C   C187      1.0  0.6640948774333638  0.8579771910137951  0.07246122893928236  1.0000
  C   C188      1.0  0.6099234070828672  0.8454283780871849  0.1515735110772097  1.0000
  C   C189      1.0  0.571684804905971  0.8996711810158614  0.206289232237424  1.0000
  C   C190      1.0  0.512446006335125  0.8887063692604328  0.27875428357818793  1.0000
  C   C191      1.0  0.5888639831944145  0.7805744264140559  0.17482740666730479  1.0000
  C   C192      1.0  0.5301411255610804  0.7735623262605175  0.24856211956674903  1.0000
  N   N1        1.0  0.34189643010595466  0.40050441863618863  0.1364046668524636  1.0000
  N   N2        1.0  0.7252836738162785  0.5221355212449766  0.8399891549564984  1.0000
  N   N3        1.0  0.18005962428331668  0.40463730486366967  0.29616855310126056  1.0000
  N   N4        1.0  0.6823464397705122  0.6994562296700905  0.8268343904064608  1.0000
  N   N5        1.0  0.878763423393011  0.5995041646444008  0.8636531330920789  1.0000
  N   N6        1.0  0.08755122033499421  0.47795706263906373  0.1600252963120923  1.0000
  N   N7        1.0  0.8809648151766257  0.595352832357392  0.7039026387251752  1.0000
  N   N8        1.0  0.20857211130503123  0.3005768720806117  0.17314992857239989  1.0000
  N   N9        1.0  0.257669841678684  0.863423549028788  0.40056038256028603  1.0000
  N   N10       1.0  0.7527795542809347  0.15971159959717346  0.5218449691673186  1.0000
  N   N11       1.0  0.4152723083171281  0.7037131869683863  0.40490474239997104  1.0000
  N   N12       1.0  0.6183912509190679  0.17318142521947522  0.6992368584461416  1.0000
  N   N13       1.0  0.521807737569091  0.1363974807104142  0.5992408657171352  1.0000
  N   N14       1.0  0.4348150140596092  0.8398433392307111  0.4780734154612603  1.0000
  N   N15       1.0  0.5241078888662473  0.2961285095361462  0.5950582025722253  1.0000
  N   N16       1.0  0.49060438330653977  0.8267681158365932  0.3007642261687096  1.0000
  O   O1        1.0  0.015143511824881347  0.2731834864449498  0.9124319483972839  1.0000
  O   O2        1.0  0.9967400633119327  0.36677645443280943  0.9751799883264667  1.0000
  O   O3        1.0  0.21450422890306006  0.35529219661088257  0.9484410670137462  1.0000
  O   O4        1.0  0.24718077657344406  0.37827522974853883  0.8269465847732106  1.0000
  O   O5        1.0  0.08331948566793579  0.37337742774768407  0.7986581269202089  1.0000
  O   O6        1.0  0.20460829569433528  0.2613027106177057  0.7646378216363132  1.0000
  O   O7        1.0  0.32409186767482384  0.2089976147470267  0.8611511156113422  1.0000
  O   O8        1.0  0.1974815847515998  0.17868794135011973  0.940577021752162  1.0000
  O   O9        1.0  0.20065655970275023  0.7268644973472079  0.08774215590166527  1.0000
  O   O10       1.0  0.33866497501463044  0.6334950664081377  0.02474247945574603  1.0000
  O   O11       1.0  0.5182343331446192  0.6447392204987711  0.05155793069504007  1.0000
  O   O12       1.0  0.45249715192783674  0.621853253580909  0.17307704169905241  1.0000
  O   O13       1.0  0.2553765682533396  0.626789404068255  0.20155569703806  1.0000
  O   O14       1.0  0.23068765653590625  0.7388778823246512  0.23545206567689544  1.0000
  O   O15       1.0  0.3941895274044569  0.7911873694676929  0.13861331872530508  1.0000
  O   O16       1.0  0.3164026494238145  0.8213734153382859  0.059382510614874214  1.0000
  O   O17       1.0  0.7117028880121624  0.0878903760180663  0.27302793025035027  1.0000
  O   O18       1.0  0.6368015393774373  0.024765294423914997  0.36636248998058824  1.0000
  O   O19       1.0  0.43024142222029127  0.051464973880506214  0.3553297927223155  1.0000
  O   O20       1.0  0.37460214634849365  0.17295733249865464  0.37822329193051013  1.0000
  O   O21       1.0  0.5432584905064887  0.20142956145382132  0.373196017122595  1.0000
  O   O22       1.0  0.5333983773773171  0.23552555513409604  0.26130664123193975  1.0000
  O   O23       1.0  0.4668011844754076  0.13876359679280634  0.2089331222229589  1.0000
  O   O24       1.0  0.6237240121863651  0.059367417003123514  0.17869306186284475  1.0000
  O   O25       1.0  0.07244425762493736  0.9123255307028658  0.7271397698089997  1.0000
  O   O26       1.0  0.02826724999060566  0.9749201610203787  0.6334032252078143  1.0000
  O   O27       1.0  0.8375424827335112  0.9481840878246505  0.6445835754382401  1.0000
  O   O28       1.0  0.9261284701503951  0.8266532909407406  0.6218928397697353  1.0000
  O   O29       1.0  0.11836170933128198  0.7985239669403655  0.6267604865353178  1.0000
  O   O30       1.0  0.03086492696203211  0.764381821408854  0.7386824678408317  1.0000
  O   O31       1.0  0.8147380121872416  0.8611748239988871  0.7911725341565301  1.0000
  O   O32       1.0  0.8619446398805266  0.9405577623895099  0.821517760478585  1.0000
