data_image0
_chemical_formula_structural       Zn2H28C25N4O9
_chemical_formula_sum              "Zn2 H28 C25 N4 O9"
_cell_length_a       9.887728313492705
_cell_length_b       11.289029337943102
_cell_length_c       16.079895790235938
_cell_angle_alpha    89.70082380975659
_cell_angle_beta     81.58228828374683
_cell_angle_gamma    82.56423784222008

_space_group_name_H-M_alt    "P 1"
_space_group_IT_number       1

loop_
  _space_group_symop_operation_xyz
  'x, y, z'

loop_
  _atom_site_type_symbol
  _atom_site_label
  _atom_site_symmetry_multiplicity
  _atom_site_fract_x
  _atom_site_fract_y
  _atom_site_fract_z
  _atom_site_occupancy
  Zn  Zn1       1.0  0.6349197105887895  0.4977996601585771  0.48570178292898447  1.0000
  Zn  Zn2       1.0  0.3514093184743317  0.4835068225954657  0.523599917852067  1.0000
  H   H1        1.0  0.4747680018293821  0.6862542445738525  0.9425695128628675  1.0000
  H   H2        1.0  0.6813371924041789  0.579349186875639  0.05405351526129459  1.0000
  H   H3        1.0  0.6502272979748441  0.6342983492553528  0.913603319359332  1.0000
  H   H4        1.0  0.5858150808951166  0.30525807916001924  0.9209698021353604  1.0000
  H   H5        1.0  0.35403287323060084  0.09542988495021378  0.511597515547706  1.0000
  H   H6        1.0  0.5932051228456743  0.882575527461455  0.477581051307105  1.0000
  H   H7        1.0  0.6694308221677973  0.0893399853329271  0.4703706377090029  1.0000
  H   H8        1.0  0.2779151133365687  0.8913074277703995  0.5221422101177353  1.0000
  H   H9        1.0  0.11285506604055939  0.581974882602914  0.4392346508030727  1.0000
  H   H10       1.0  0.844999015360429  0.6271615118097883  0.4852684882767734  1.0000
  H   H11       1.0  0.5340267763257388  0.6856491606201515  0.07995856387569941  1.0000
  H   H12       1.0  0.11205339306289368  0.3825760744588251  0.5564758573982688  1.0000
  H   H13       1.0  0.28456059112959753  0.45401458253179783  0.0939040492467029  1.0000
  H   H14       1.0  0.297547809340017  0.6062041875849359  0.07282834841211637  1.0000
  H   H15       1.0  0.29187183100012964  0.5509889768025502  0.9319703342129344  1.0000
  H   H16       1.0  0.33682315916028926  0.39781431940890855  0.9506087568843781  1.0000
  H   H17       1.0  0.4898243480613543  0.31470534882051737  0.05820690434956082  1.0000
  H   H18       1.0  0.13422100926100458  0.2621246423861621  0.4380264959492806  1.0000
  H   H19       1.0  0.0763209285232094  0.3053391139029883  0.34085576889614794  1.0000
  H   H20       1.0  0.9528557120918035  0.1241619607478057  0.4629987324942847  1.0000
  H   H21       1.0  0.8970247928163815  0.16658029638793434  0.366648559019758  1.0000
  H   H22       1.0  0.1308714128325619  0.08038366273488148  0.2881206796054059  1.0000
  H   H23       1.0  0.052839150775291395  0.9708175716271084  0.350456187430531  1.0000
  H   H24       1.0  0.1878114098250592  0.037897508248946096  0.3849938392595718  1.0000
  H   H25       1.0  0.7765397028165567  0.3448869359258424  0.049681311615699976  1.0000
  H   H26       1.0  0.6813936529293444  0.3494790834859032  0.14599616174621843  1.0000
  H   H27       1.0  0.7783724959281598  0.4782930654375546  0.9239663559636071  1.0000
  H   H28       1.0  0.7860947320893955  0.35946329766616003  0.8648849639531022  1.0000
  C   C1        1.0  0.415970894295178  0.7218173455605238  0.5077795593306718  1.0000
  C   C2        1.0  0.5554049420065325  0.612910685329801  0.9520934627085184  1.0000
  C   C3        1.0  0.5125057123176261  0.4953580362669  0.9205295311344841  1.0000
  C   C4        1.0  0.6087960801695189  0.38684376119268654  0.9500181618941638  1.0000
  C   C5        1.0  0.5695856417913204  0.37549909348886945  0.04769817498889489  1.0000
  C   C6        1.0  0.5205813754150485  0.49372530180725244  0.8296610971478984  1.0000
  C   C7        1.0  0.4850365800838076  0.5007189765305355  0.1754206783840218  1.0000
  C   C8        1.0  0.48468121832036093  0.4975898980965852  0.2511041524184208  1.0000
  C   C9        1.0  0.3863263359883293  0.8538768347981  0.5075234615465689  1.0000
  C   C10       1.0  0.4865313180272041  0.925257296255033  0.4921096578066226  1.0000
  C   C11       1.0  0.5607743128054139  0.1256380647371671  0.48557415348893335  1.0000
  C   C12       1.0  0.4908880089937923  0.49463475580185456  0.3404348533848207  1.0000
  C   C13       1.0  0.4609401409185241  0.05345900950437249  0.49636240423004097  1.0000
  C   C14       1.0  0.07714988271620629  0.5047858403012028  0.4733368080866498  1.0000
  C   C15       1.0  0.9426493102424942  0.46731135875825197  0.46022325348992155  1.0000
  C   C16       1.0  0.5303214296833545  0.2573126746962372  0.4951677819312721  1.0000
  C   C17       1.0  0.515932702525994  0.4910063206464698  0.6644385620109432  1.0000
  C   C18       1.0  0.5724206352309833  0.6012391854669161  0.0457129141917463  1.0000
  C   C19       1.0  0.34803044059150073  0.514749585060109  0.05748672988634949  1.0000
  C   C20       1.0  0.3623703525963577  0.4875686963686476  0.9624627261024656  1.0000
  C   C21       1.0  0.5211232133581377  0.4919163819125669  0.7539849186134262  1.0000
  C   C22       1.0  0.49295874326933387  0.500140583584553  0.0848276589456844  1.0000
  C   C23       1.0  0.04518832215347861  0.2697411288083487  0.4036299108460851  1.0000
  C   C24       1.0  0.9886806586071517  0.1517572526756794  0.39862961767791916  1.0000
  C   C25       1.0  0.09623144899452998  0.05520551835593321  0.35313347059368283  1.0000
  N   N1        1.0  0.14925110745906514  0.45482050519803613  0.526547746005491  1.0000
  N   N2        1.0  0.8316245277738614  0.5419574903804828  0.47050006127289384  1.0000
  N   N3        1.0  0.6880211386156745  0.3242374125359291  0.0846058729785852  1.0000
  N   N4        1.0  0.7559819642591563  0.3926310277198084  0.924404568911278  1.0000
  O   O1        1.0  0.541533673558817  0.674424454062212  0.497223398735521  1.0000
  O   O2        1.0  0.3107312950326957  0.6652371055758832  0.5196021214322641  1.0000
  O   O3        1.0  0.609472170113726  0.4997864542960214  0.3612952386602899  1.0000
  O   O4        1.0  0.3790809766272504  0.4868966693482901  0.3897080730136722  1.0000
  O   O5        1.0  0.6339372399137345  0.3150093644352054  0.4831401181736084  1.0000
  O   O6        1.0  0.4043118394261285  0.30258930198543504  0.5149002290494025  1.0000
  O   O7        1.0  0.6291289130522345  0.49236318064362905  0.6154286635177328  1.0000
  O   O8        1.0  0.3968147374853713  0.48908621189141127  0.6431377408261554  1.0000
  O   O9        1.0  0.931050689700662  0.353124164088669  0.4471646986468373  1.0000
