data_image0
_chemical_formula_structural       Zn2H10C22N2Cl2O8F2
_chemical_formula_sum              "Zn2 H10 C22 N2 Cl2 O8 F2"
_cell_length_a       9.735400545723184
_cell_length_b       11.038284410212938
_cell_length_c       11.079242113834779
_cell_angle_alpha    90.84346907978727
_cell_angle_beta     90.11878899133514
_cell_angle_gamma    91.76941109743825

_space_group_name_H-M_alt    "P 1"
_space_group_IT_number       1

loop_
  _space_group_symop_operation_xyz
  'x, y, z'

loop_
  _atom_site_type_symbol
  _atom_site_label
  _atom_site_symmetry_multiplicity
  _atom_site_fract_x
  _atom_site_fract_y
  _atom_site_fract_z
  _atom_site_occupancy
  Zn  Zn1       1.0  0.3644336131944996  0.4975878852697947  0.5013014859963647  1.0000
  Zn  Zn2       1.0  0.6455650457859718  0.5080063012492959  0.5012502171967981  1.0000
  H   H1        1.0  0.7225872773214875  0.5717550098684043  0.892837138156878  1.0000
  H   H2        1.0  0.8753239058125644  0.6384835044098482  0.635270187323421  1.0000
  H   H3        1.0  0.7200769637623593  0.5696644649991711  0.11699616318144018  1.0000
  H   H4        1.0  0.22885595866914338  0.3416207574157896  0.10798437896695388  1.0000
  H   H5        1.0  0.17597428226321196  0.4974421403975384  0.8844794406253981  1.0000
  H   H6        1.0  0.17366529535132  0.49437040005643956  0.11184766404126381  1.0000
  H   H7        1.0  0.23092132177637134  0.3446194221014522  0.8807893173000779  1.0000
  H   H8        1.0  0.3640843543463673  0.1142390063151595  0.6384153595769958  1.0000
  H   H9        1.0  0.3643120801907926  0.8871335788753072  0.6382616490130175  1.0000
  H   H10       1.0  0.8605243664246983  0.3657966389861898  0.36994177012839913  1.0000
  C   C1        1.0  0.5015381609872874  0.7395245057174052  0.4943114016374963  1.0000
  C   C2        1.0  0.39296760302902817  0.47683355365690266  0.06269107248638758  1.0000
  C   C3        1.0  0.5114579986987381  0.5109207440376978  0.8713054259101796  1.0000
  C   C4        1.0  0.5089744170159137  0.5080078602239553  0.1315422107081616  1.0000
  C   C5        1.0  0.6289863411447315  0.5444241252978372  0.9403488262141266  1.0000
  C   C6        1.0  0.6276829046552734  0.5431593104737759  0.0661957425530844  1.0000
  C   C7        1.0  0.24445577839324534  0.43164953072522394  0.06836642363617779  1.0000
  C   C8        1.0  0.24590281859834567  0.433522206393775  0.9256312166727483  1.0000
  C   C9        1.0  0.574451264583459  0.9397003679395939  0.3985576736251346  1.0000
  C   C10       1.0  0.5744711123866394  0.06730471666445942  0.3989154804826143  1.0000
  C   C11       1.0  0.5001198033543447  0.12991868213238428  0.48721710811252444  1.0000
  C   C12       1.0  0.4984646682826864  0.2658670112607382  0.49515325131477533  1.0000
  C   C13       1.0  0.5003846950308741  0.8752999496846104  0.48677704049281795  1.0000
  C   C14       1.0  0.42354360937108043  0.06429369261572053  0.572217236646992  1.0000
  C   C15       1.0  0.4235959769590991  0.938553409825161  0.5720488368672392  1.0000
  C   C16       1.0  0.922562683761427  0.4258502223733061  0.4285539673741781  1.0000
  C   C17       1.0  0.930869224787024  0.5771811162102554  0.5765485131862107  1.0000
  C   C18       1.0  0.06568235711814911  0.4249498146306154  0.4313999339347204  1.0000
  C   C19       1.0  0.0735968525246093  0.5718436944427269  0.5763588121911951  1.0000
  C   C20       1.0  0.5140402696390254  0.5086799738207546  0.736849988274912  1.0000
  C   C21       1.0  0.5106035697493854  0.503532385284892  0.2658521410766639  1.0000
  C   C22       1.0  0.39425060434013665  0.47840939242320263  0.9366158774365232  1.0000
  N   N1        1.0  0.14176965599217084  0.49708350904514736  0.5043089033340706  1.0000
  N   N2        1.0  0.8587642473589057  0.5033339651204329  0.5017085518313849  1.0000
  Cl  Cl1       1.0  0.6597398917541497  0.8628122417132291  0.2864891096834299  1.0000
  Cl  Cl2       1.0  0.659881026582525  0.1452898886465803  0.2863573693382762  1.0000
  O   O1        1.0  0.38482741302058804  0.6845561183036466  0.4944541869560837  1.0000
  O   O2        1.0  0.38061053745222045  0.31181453152039046  0.5026599688546652  1.0000
  O   O3        1.0  0.6182419272675972  0.6921923372195523  0.5037105456042426  1.0000
  O   O4        1.0  0.6139693104280256  0.32273825445022203  0.4975061964074214  1.0000
  O   O5        1.0  0.397707717806135  0.500988274079056  0.6833433565047926  1.0000
  O   O6        1.0  0.3944385771964249  0.49408416747067474  0.31862400820824627  1.0000
  O   O7        1.0  0.631072044520174  0.5135438433818891  0.6852302485618154  1.0000
  O   O8        1.0  0.6277368689697412  0.5088404983159265  0.3179285426550891  1.0000
  F   F1        1.0  0.1319836500644627  0.3497955056559832  0.3589779924662864  1.0000
  F   F2        1.0  0.14728874165761852  0.6433468085323284  0.6511493000907576  1.0000
