data_image0
_chemical_formula_structural       Ag4H32C32N8O8F12
_chemical_formula_sum              "Ag4 H32 C32 N8 O8 F12"
_cell_length_a       4.716110302000155
_cell_length_b       9.8653032280505
_cell_length_c       22.158710368110402
_cell_angle_alpha    90.00036359491237
_cell_angle_beta     89.99999520742038
_cell_angle_gamma    89.99997089861051

_space_group_name_H-M_alt    "P 1"
_space_group_IT_number       1

loop_
  _space_group_symop_operation_xyz
  'x, y, z'

loop_
  _atom_site_type_symbol
  _atom_site_label
  _atom_site_symmetry_multiplicity
  _atom_site_fract_x
  _atom_site_fract_y
  _atom_site_fract_z
  _atom_site_occupancy
  Ag  Ag1       1.0  0.6811477352615185  0.7733684764428617  0.21934282825812798  1.0000
  Ag  Ag2       1.0  0.8188482681743494  0.22662956032728945  0.7193431705884876  1.0000
  Ag  Ag3       1.0  0.31884942312598236  0.2733691186253822  0.2806570615660462  1.0000
  Ag  Ag4       1.0  0.18114237906743821  0.7266319359642494  0.7806565698895512  1.0000
  H   H1        1.0  0.6845808085637373  0.4629068602395138  0.2482186165924887  1.0000
  H   H2        1.0  0.8154151833343163  0.5370956405833027  0.7482193894281791  1.0000
  H   H3        1.0  0.3154182683865159  0.9629016983371482  0.2517804576538296  1.0000
  H   H4        1.0  0.1845756657363538  0.03709489219316  0.7517802640480937  1.0000
  H   H5        1.0  0.6946887914381108  0.336794832914869  0.1999182438529417  1.0000
  H   H6        1.0  0.8053008585810701  0.6632069830479354  0.6999189237402561  1.0000
  H   H7        1.0  0.30530193823774704  0.8367903583198885  0.3000804722290766  1.0000
  H   H8        1.0  0.19468985619869975  0.16320590341787525  0.8000810878989455  1.0000
  H   H9        1.0  0.29787012825775605  0.5703943825636344  0.19873168686758194  1.0000
  H   H10       1.0  0.2021259474440882  0.4296105786616452  0.6987317051299797  1.0000
  H   H11       1.0  0.7021272462747135  0.07038407395099709  0.3012680777728463  1.0000
  H   H12       1.0  0.7978644836516509  0.9296120834906749  0.8012681605346829  1.0000
  H   H13       1.0  0.24081260213503697  0.42246552509427476  0.1543615666154565  1.0000
  H   H14       1.0  0.25918137090010873  0.5775398206554951  0.6543620040057192  1.0000
  H   H15       1.0  0.7591843974908414  0.9224555045747846  0.3456369414784888  1.0000
  H   H16       1.0  0.740811555493309  0.07754128198933327  0.845638215627247  1.0000
  H   H17       1.0  0.4942142612236252  0.3874197943906168  0.06203484191294709  1.0000
  H   H18       1.0  0.005783989479574799  0.612581201280527  0.5620353832659433  1.0000
  H   H19       1.0  0.5057848961088496  0.8874162126556728  0.43796492052764796  1.0000
  H   H20       1.0  0.9942131403823424  0.11258289669192578  0.9379653871766394  1.0000
  H   H21       1.0  0.8402449539015889  0.4731834216827623  0.9857087512513659  1.0000
  H   H22       1.0  0.6597551839080396  0.5268163646290844  0.4857086116507007  1.0000
  H   H23       1.0  0.15975391236195688  0.973183039309774  0.514291238159899  1.0000
  H   H24       1.0  0.34024223702299133  0.026817279390712705  0.014291029241611899  1.0000
  H   H25       1.0  0.1435056117076812  0.674802441536606  0.0125283105777854  1.0000
  H   H26       1.0  0.3564926587724741  0.3251988658198215  0.5125280296072106  1.0000
  H   H27       1.0  0.8564916516402546  0.1748008176572426  0.4874708480202088  1.0000
  H   H28       1.0  0.643504244682525  0.8251989936397166  0.9874706369406212  1.0000
  H   H29       1.0  0.0722052497221028  0.7849052057964273  0.1136200907908105  1.0000
  H   H30       1.0  0.42779510076493904  0.21509652130659873  0.6136199471640182  1.0000
  H   H31       1.0  0.9278003779494453  0.2849001039349729  0.38637892921050104  1.0000
  H   H32       1.0  0.5721976791499941  0.715098273958084  0.8863784066892322  1.0000
  C   C1        1.0  0.40425869885011406  0.48604504831670414  0.1753935653710172  1.0000
  C   C2        1.0  0.0957352657840858  0.5139585683413159  0.6753938250513087  1.0000
  C   C3        1.0  0.5957403534627375  0.9860367964921013  0.3246060258744876  1.0000
  C   C4        1.0  0.9042534875313492  0.013960705513625294  0.824605762718477  1.0000
  C   C5        1.0  0.6008931814114434  0.5402954245844285  0.12745447895925824  1.0000
  C   C6        1.0  0.899102858730181  0.45970637754965776  0.6274545792508519  1.0000
  C   C7        1.0  0.39910634556149194  0.0402892409960245  0.37254520020425025  1.0000
  C   C8        1.0  0.10088966070862429  0.9597090618795506  0.8725449205994521  1.0000
  C   C9        1.0  0.6269125508771722  0.47500762647320727  0.0717737990413809  1.0000
  C   C10       1.0  0.8730856318997124  0.524993386155039  0.5717740852084958  1.0000
  C   C11       1.0  0.3730886335786606  0.9750029251371971  0.42822530957244004  1.0000
  C   C12       1.0  0.12690735044765938  0.0249961672439483  0.9282259851914746  1.0000
  C   C13       1.0  0.8205042740854721  0.5226844990176787  0.029394593674247505  1.0000
  C   C14       1.0  0.6794981664038601  0.47731692635993983  0.5293947478266787  1.0000
  C   C15       1.0  0.179499512422268  0.0226807726953382  0.47060503547668736  1.0000
  C   C16       1.0  0.32049857506589763  0.9773179069388716  0.9706052533259282  1.0000
  C   C17       1.0  0.9875550118053624  0.6346294437020176  0.0440323358832941  1.0000
  C   C18       1.0  0.5124410616624785  0.36537117557506343  0.5440326263194847  1.0000
  C   C19       1.0  0.0124486554956533  0.13462757760485292  0.4559671599105002  1.0000
  C   C20       1.0  0.4875473174478059  0.8653729217781038  0.9559666056121685  1.0000
  C   C21       1.0  0.9508255471656142  0.6958889860193767  0.100032072064252  1.0000
  C   C22       1.0  0.5491726243224234  0.30411242728705906  0.6000321878778294  1.0000
  C   C23       1.0  0.049175934512632594  0.1958842896842938  0.39996714641632997  1.0000
  C   C24       1.0  0.4508221811947094  0.8041133883584238  0.899966870074323  1.0000
  C   C25       1.0  0.04050969686498719  0.593198502255298  0.3309582794274846  1.0000
  C   C26       1.0  0.4595075299349105  0.4067961699865565  0.8309577771138947  1.0000
  C   C27       1.0  0.9595237000317097  0.09320146123732802  0.1690429038658721  1.0000
  C   C28       1.0  0.5404808050612716  0.9068019442325053  0.6690420237626284  1.0000
  C   C29       1.0  0.21159982786259227  0.5986391890932838  0.3914360832233399  1.0000
  C   C30       1.0  0.2884110135998128  0.40136242258418525  0.8914337633043915  1.0000
  C   C31       1.0  0.7884187205028254  0.09863727738870413  0.1085655668048915  1.0000
  C   C32       1.0  0.7115815679687358  0.9013622296075495  0.6085655708416696  1.0000
  N   N1        1.0  0.7596871158130796  0.6508506412705444  0.1406914157237722  1.0000
  N   N2        1.0  0.7403089190411407  0.3491503348967697  0.6406912048115672  1.0000
  N   N3        1.0  0.2403165342169942  0.15084430846157199  0.3593081261328024  1.0000
  N   N4        1.0  0.2596815977327225  0.8491538067205225  0.8593075297646068  1.0000
  N   N5        1.0  0.5579404654992571  0.4042120823045252  0.22057297241247653  1.0000
  N   N6        1.0  0.9420512966595352  0.5957910401775379  0.7205734584383237  1.0000
  N   N7        1.0  0.4420544331706678  0.9042052544100302  0.2794263864248023  1.0000
  N   N8        1.0  0.05793948990791619  0.09579172811832853  0.7794263617382668  1.0000
  O   O1        1.0  0.021152587666108495  0.7071289327227177  0.3055129172224653  1.0000
  O   O2        1.0  0.4788688900820971  0.29286436508093067  0.8055138961582315  1.0000
  O   O3        1.0  0.9788722063461889  0.20712920684920985  0.1944881383462658  1.0000
  O   O4        1.0  0.5211344089728626  0.792874559423666  0.6944887401802262  1.0000
  O   O5        1.0  0.9424034240291306  0.4801576658988509  0.3159450531888837  1.0000
  O   O6        1.0  0.5576370690406732  0.5198326177243828  0.8159453302382502  1.0000
  O   O7        1.0  0.057646523939595795  0.9801647836518795  0.18405542393710314  1.0000
  O   O8        1.0  0.44235803919096367  0.019840983113773795  0.6840533716433512  1.0000
  F   F1        1.0  0.2709263221021274  0.47406740462635355  0.41493411447460465  1.0000
  F   F2        1.0  0.22908238958198973  0.5259345402209235  0.914929892936911  1.0000
  F   F3        1.0  0.7291045488346269  0.9740618059652989  0.0850708582348148  1.0000
  F   F4        1.0  0.7709063509824076  0.0259343269089598  0.5850674723929714  1.0000
  F   F5        1.0  0.46586865668602684  0.6636467425020457  0.3847209810657973  1.0000
  F   F6        1.0  0.034144307850311896  0.33635578759998447  0.8847166758160299  1.0000
  F   F7        1.0  0.5341561836306568  0.16364194667433202  0.1152840126120438  1.0000
  F   F8        1.0  0.9658419817669781  0.8363556282629788  0.6152820224177803  1.0000
  F   F9        1.0  0.06423045539656161  0.6681650021718255  0.4350741018728996  1.0000
  F   F10       1.0  0.4357697666737863  0.3318392555932022  0.9350756435282933  1.0000
  F   F11       1.0  0.9357858985442105  0.16815939504785862  0.0649268430277772  1.0000
  F   F12       1.0  0.5642144073602323  0.831840506832485  0.5649257496191424  1.0000
