data_image0
_chemical_formula_structural       Sm4P8H48C24N4O44
_chemical_formula_sum              "Sm4 P8 H48 C24 N4 O44"
_cell_length_a       8.973077195
_cell_length_b       10.930291480859982
_cell_length_c       15.2352
_cell_angle_alpha    93.02020795104531
_cell_angle_beta     90.0
_cell_angle_gamma    90.0

_space_group_name_H-M_alt    "P 1"
_space_group_IT_number       1

loop_
  _space_group_symop_operation_xyz
  'x, y, z'

loop_
  _atom_site_type_symbol
  _atom_site_label
  _atom_site_symmetry_multiplicity
  _atom_site_fract_x
  _atom_site_fract_y
  _atom_site_fract_z
  _atom_site_occupancy
  Sm  Sm1       1.0  0.2487507854322004  0.40372018407625626  0.6175213481181033  1.0000
  Sm  Sm2       1.0  0.7487498272882078  0.5962826139717237  0.8824798734862968  1.0000
  Sm  Sm3       1.0  0.7512484127247063  0.5962826139717237  0.38248052986101305  1.0000
  Sm  Sm4       1.0  0.251248256423807  0.40372018407625626  0.11752200449281962  1.0000
  P   P1        1.0  0.1525719628003301  0.636948262050403  0.4552921256872296  1.0000
  P   P2        1.0  0.6525609746523529  0.3630499551914781  0.0447102355101947  1.0000
  P   P3        1.0  0.8474394942503309  0.3630499551914781  0.5447089227607691  1.0000
  P   P4        1.0  0.3474281935005692  0.636948262050403  0.9552908129378042  1.0000
  P   P5        1.0  0.1933127245318431  0.06059856774542989  0.604277497726905  1.0000
  P   P6        1.0  0.6933073086083041  0.9394033141413303  0.8957243456209341  1.0000
  P   P7        1.0  0.8066931602943795  0.9394033141413303  0.3957236892462249  1.0000
  P   P8        1.0  0.3066863173241643  0.0606004000678695  0.1042762542400411  1.0000
  H   H1        1.0  0.1856743192768207  0.9242271035295886  0.699587771492425  1.0000
  H   H2        1.0  0.6856722466879432  0.0757701975510727  0.8004112732001618  1.0000
  H   H3        1.0  0.8143271077698557  0.0757701975510727  0.3004112732001617  1.0000
  H   H4        1.0  0.3143236081343019  0.9242289358520283  0.1995878407549867  1.0000
  H   H5        1.0  0.47452394618566274  0.37269163587230736  0.45279366171917707  1.0000
  H   H6        1.0  0.9745241024865621  0.6273102460144528  0.0472068688792362  1.0000
  H   H7        1.0  0.5254763664161288  0.6273102460144528  0.5472081816286618  1.0000
  H   H8        1.0  0.0254750956703447  0.3726907197110876  0.952794283462602  1.0000
  H   H9        1.0  0.5519388602562856  0.3961801772344486  0.5419974122774109  1.0000
  H   H10       1.0  0.0519353606207318  0.6038180400074324  0.9580016670464533  1.0000
  H   H11       1.0  0.4480647956801604  0.6038171238462127  0.4580016324151758  1.0000
  H   H12       1.0  0.9480616086463982  0.3961801772344486  0.041998725026829206  1.0000
  H   H13       1.0  0.1062701210830284  0.9133770061993828  0.4413529902947886  1.0000
  H   H14       1.0  0.606268048494151  0.0866239595261575  0.058646849297630914  1.0000
  H   H15       1.0  0.8937335348534247  0.0866230433649378  0.5586461582916371  1.0000
  H   H16       1.0  0.393730035217871  0.9133770061993828  0.9413529902947886  1.0000
  H   H17       1.0  0.1296734637085635  0.7983181508835102  0.5680220166548084  1.0000
  H   H18       1.0  0.6296691622299164  0.20168281484203024  0.9319778229376112  1.0000
  H   H19       1.0  0.8703313066727745  0.20168281484203024  0.4319771665629021  1.0000
  H   H20       1.0  0.3703289214821055  0.7983172347222903  0.06802132564881451  1.0000
  H   H21       1.0  0.3220255367478728  0.7649002542174159  0.5447223378559586  1.0000
  H   H22       1.0  0.8220223497141106  0.23509979534690467  0.9552768107304745  1.0000
  H   H23       1.0  0.6779781191885732  0.235098879185685  0.45527677609918993  1.0000
  H   H24       1.0  0.1779757339979042  0.7649002542174159  0.0447223378559585  1.0000
  H   H25       1.0  0.2915042346295138  0.0691500165742838  0.4591218551180846  1.0000
  H   H26       1.0  0.7914999331508596  0.9308518653124763  0.040878675480328794  1.0000
  H   H27       1.0  0.7084994213069393  0.9308518653124763  0.5408780191056124  1.0000
  H   H28       1.0  0.2084970361162704  0.0691500165742838  0.9591211987433752  1.0000
  H   H29       1.0  0.40256535428144957  0.9718739001057984  0.5235395179222593  1.0000
  H   H30       1.0  0.9025599383579105  0.0281252332973025  0.9764602524075983  1.0000
  H   H31       1.0  0.5974405305447732  0.0281261494585223  0.4764602870388758  1.0000
  H   H32       1.0  0.0974359164643275  0.971874816267018  0.023539552553543806  1.0000
  H   H33       1.0  0.2969449545675076  0.9458375143904263  0.3397497234709661  1.0000
  H   H34       1.0  0.796943996423515  0.05416161901267459  0.16025004685889147  1.0000
  H   H35       1.0  0.7030609302587223  0.05416161901267459  0.6602500468588915  1.0000
  H   H36       1.0  0.2030540872884998  0.9458384305516461  0.8397497581022507  1.0000
  H   H37       1.0  0.4151541237242213  0.8347547987699926  0.3883304967671748  1.0000
  H   H38       1.0  0.9151542800251137  0.1652470831167676  0.1116674083323943  1.0000
  H   H39       1.0  0.5848495322122318  0.1652470831167676  0.6116687210818199  1.0000
  H   H40       1.0  0.0848449181317861  0.8347547987699926  0.8883318095165934  1.0000
  H   H41       1.0  0.1043387880939761  0.7799628608378555  0.30786522472090644  1.0000
  H   H42       1.0  0.6043356010602139  0.22003718872646516  0.1921345802402357  1.0000
  H   H43       1.0  0.8956693256220234  0.2200381048876849  0.6921333021220946  1.0000
  H   H44       1.0  0.3956602537620313  0.7799628608378555  0.8078658810956156  1.0000
  H   H45       1.0  0.2786435406343344  0.7443287701802248  0.2555343353392487  1.0000
  H   H46       1.0  0.7786425824903418  0.2556703632228761  0.2444647786158995  1.0000
  H   H47       1.0  0.7213634586367803  0.2556703632228761  0.7444660913653253  1.0000
  H   H48       1.0  0.2213566156665578  0.7443296863414446  0.7555356827199518  1.0000
  C   C1        1.0  0.211751215186105  0.7785281523671088  0.5158456749739884  1.0000
  C   C2        1.0  0.7117480281523427  0.2214700648747723  0.9841540607245849  1.0000
  C   C3        1.0  0.7882524407503411  0.2214700648747723  0.48415406072458483  1.0000
  C   C4        1.0  0.2882500555596721  0.7785290685283286  0.0158457096052729  1.0000
  C   C5        1.0  0.2881720444175926  0.9959194674897843  0.5057352075173895  1.0000
  C   C6        1.0  0.7881677429389384  0.0040805820745362  0.994265253818462  1.0000
  C   C7        1.0  0.7118327259637452  0.0040805820745362  0.4942645974437454  1.0000
  C   C8        1.0  0.2118281118833067  0.9959194674897843  0.005734551142680293  1.0000
  C   C9        1.0  0.2993153788420102  0.8599785494830954  0.37403047329287636  1.0000
  C   C10       1.0  0.7993144206980176  0.1400205839200126  0.12596798428755562  1.0000
  C   C11       1.0  0.7006893915393348  0.1400205839200126  0.6259692970369812  1.0000
  C   C12       1.0  0.2006836630140043  0.8599794656443152  0.8740311642988701  1.0000
  C   C13       1.0  0.2225223250182893  0.7591513425609905  0.3192437894301889  1.0000
  C   C14       1.0  0.7225213668742967  0.2408477908421105  0.1807553245249522  1.0000
  C   C15       1.0  0.7774835598079335  0.24084870700333028  0.6807553591562368  1.0000
  C   C16       1.0  0.2774767168377181  0.7591513425609905  0.8192437894301889  1.0000
  C   C17       1.0  0.528081938561769  0.5579229436841473  0.7134757764583881  1.0000
  C   C18       1.0  0.0280795533711  0.4420761897189536  0.786522681122044  1.0000
  C   C19       1.0  0.4719183740400226  0.44207710588017324  0.28652337212803763  1.0000
  C   C20       1.0  0.9719185303409148  0.557924776006594  0.2134784712198012  1.0000
  C   C21       1.0  0.5235383467577535  0.4331289592429926  0.7578973474743479  1.0000
  C   C22       1.0  0.0235381904568612  0.5668655933540094  0.7420943732025691  1.0000
  C   C23       1.0  0.47646419473380774  0.566867425676449  0.2420957552145566  1.0000
  C   C24       1.0  0.9764554354756143  0.4331280430817728  0.257901251091333  1.0000
  N   N1        1.0  0.218786705757303  0.8868055823314478  0.4594851839455957  1.0000
  N   N2        1.0  0.7187846331684185  0.1131926349104333  0.0405138953782682  1.0000
  N   N3        1.0  0.7812169501791502  0.1131926349104333  0.5405138953782682  1.0000
  N   N4        1.0  0.2812123360987115  0.8868055823314478  0.959485840320305  1.0000
  O   O1        1.0  0.2269410989949705  0.5303904666962822  0.4958504173623552  1.0000
  O   O2        1.0  0.7269401408509779  0.469611415190478  0.0041481441119231  1.0000
  O   O3        1.0  0.7730603280517059  0.4696104990292582  0.504148765855355  1.0000
  O   O4        1.0  0.2730601717508137  0.5303904666962822  0.9958517301117811  1.0000
  O   O5        1.0  0.23684517070512362  0.6443966527702045  0.36158869585830195  1.0000
  O   O6        1.0  0.7368453270060158  0.3556033967941161  0.1384104527281238  1.0000
  O   O7        1.0  0.7631573707864447  0.3556033967941161  0.6384104527281238  1.0000
  O   O8        1.0  0.263152756705999  0.6443975689314243  0.8615887304895865  1.0000
  O   O9        1.0  0.9868988985110362  0.6446357708486659  0.4436655775128955  1.0000
  O   O10       1.0  0.4868976277652521  0.3553642787156619  0.056337509321799914  1.0000
  O   O11       1.0  0.0131025285356401  0.3553633625544421  0.5563368183158063  1.0000
  O   O12       1.0  0.5130993415018779  0.6446348546874461  0.9436616046333485  1.0000
  O   O13       1.0  0.028985597064170997  0.0330047079558113  0.599239741670452  1.0000
  O   O14       1.0  0.5289857533650704  0.96699259312485  0.9007612721462692  1.0000
  O   O15       1.0  0.9710147155376134  0.9669935092860698  0.4007606504028374  1.0000
  O   O16       1.0  0.4710134447918364  0.0330074564394707  0.09923918918958213  1.0000
  O   O17       1.0  0.2545559288482195  0.18817676613461742  0.6126772497300053  1.0000
  O   O18       1.0  0.754554970704227  0.8118196187848241  0.8873270113289851  1.0000
  O   O19       1.0  0.7454454981984568  0.8118196187848241  0.3873270113289848  1.0000
  O   O20       1.0  0.2454431130077879  0.1881795146182768  0.1126760408744332  1.0000
  O   O21       1.0  0.2601470988459482  0.9843804169220292  0.6839504390466902  1.0000
  O   O22       1.0  0.7601427973672941  0.0156132195137531  0.8160491234954748  1.0000
  O   O23       1.0  0.7398565570905049  0.0156132195137531  0.31604912349547487  1.0000
  O   O24       1.0  0.2398508285651744  0.9843831654056884  0.1839498865658271  1.0000
  O   O25       1.0  0.44780958780105345  0.5655151717155107  0.644561180085951  1.0000
  O   O26       1.0  0.9478119729917224  0.4344876263324693  0.855442010642591  1.0000
  O   O27       1.0  0.5521851525762997  0.4344857940100297  0.3554419413800288  1.0000
  O   O28       1.0  0.0521883396100691  0.5655160878767305  0.144562527466654  1.0000
  O   O29       1.0  0.6104004101348863  0.6404086029789013  0.7476888648150181  1.0000
  O   O30       1.0  0.1103991393891022  0.3595996920363973  0.7523132209517911  1.0000
  O   O31       1.0  0.38959655913224367  0.3595987758751775  0.25231515544464145  1.0000
  O   O32       1.0  0.889603402102459  0.6404076868176816  0.24769079930786833  1.0000
  O   O33       1.0  0.4355740973874447  0.3525699869942116  0.7257971013048703  1.0000
  O   O34       1.0  0.9355608803496976  0.6474337272149953  0.7742015294319702  1.0000
  O   O35       1.0  0.5644373596632164  0.6474328110537755  0.2742014948006855  1.0000
  O   O36       1.0  0.0644193722441244  0.3525690708329918  0.2257957539241673  1.0000
  O   O37       1.0  0.6122704486551527  0.4210008170106788  0.8217852806339253  1.0000
  O   O38       1.0  0.11225357568095969  0.5789983163924219  0.6782138333212232  1.0000
  O   O39       1.0  0.3877443517301629  0.5789992325536417  0.1782132115777912  1.0000
  O   O40       1.0  0.8877244480230928  0.4209999008494592  0.3217872151267755  1.0000
  O   O41       1.0  0.4667774397766138  0.3517729267326786  0.5154874877380422  1.0000
  O   O42       1.0  0.9667753671877364  0.6482271228316421  0.9845129735978093  1.0000
  O   O43       1.0  0.5332251017149545  0.6482271228316421  0.4845136299725256  1.0000
  O   O44       1.0  0.0332227165242855  0.3517720105714588  0.015487453106757703  1.0000
