data_image0
_chemical_formula_structural       Zn8H48C56S4Br4O26
_chemical_formula_sum              "Zn8 H48 C56 S4 Br4 O26"
_cell_length_a       17.884760417686206
_cell_length_b       18.601184452473397
_cell_length_c       19.45248065647715
_cell_angle_alpha    118.85010329695751
_cell_angle_beta     116.25453748682463
_cell_angle_gamma    89.93398128047319

_space_group_name_H-M_alt    "P 1"
_space_group_IT_number       1

loop_
  _space_group_symop_operation_xyz
  'x, y, z'

loop_
  _atom_site_type_symbol
  _atom_site_label
  _atom_site_symmetry_multiplicity
  _atom_site_fract_x
  _atom_site_fract_y
  _atom_site_fract_z
  _atom_site_occupancy
  Zn  Zn1       1.0  0.8696440568739304  0.45794294471301084  0.9214219248945096  1.0000
  Zn  Zn2       1.0  0.0364875438904875  0.4486730267186657  0.06823414347426388  1.0000
  Zn  Zn3       1.0  0.031479808527699  0.6192845211571836  0.06496967141033849  1.0000
  Zn  Zn4       1.0  0.04597911832413353  0.4561915919870213  0.9090880687968902  1.0000
  Zn  Zn5       1.0  0.6223753951626564  0.031017111373642988  0.06509802294118568  1.0000
  Zn  Zn6       1.0  0.4579581627691737  0.8718565864459507  0.9152088139681493  1.0000
  Zn  Zn7       1.0  0.46190867341081077  0.0417294994266369  0.9126984564730872  1.0000
  Zn  Zn8       1.0  0.44146942707185133  0.03637807017020118  0.06785194803223499  1.0000
  H   H1        1.0  0.7846767099494159  0.6835031272258332  0.8793734948847313  1.0000
  H   H2        1.0  0.870580337640078  0.7690766183149689  0.9832666142480162  1.0000
  H   H3        1.0  0.7807050483741379  0.8602184878121688  0.9795798636514871  1.0000
  H   H4        1.0  0.6950162588318846  0.7737976227050535  0.8763685086719162  1.0000
  H   H5        1.0  0.802099576361691  0.8929553656296959  0.12921517962710274  1.0000
  H   H6        1.0  0.7311719572815464  0.8316359763870125  0.13361345705995825  1.0000
  H   H7        1.0  0.890911910547004  0.8003971086555169  0.13253996428739603  1.0000
  H   H8        1.0  0.8182542499809601  0.7386353772987847  0.13481417926889347  1.0000
  H   H9        1.0  0.6808099349215695  0.5924268589486842  0.8820371794832409  1.0000
  H   H10       1.0  0.6948996832257421  0.6146534281093492  0.9862709332541397  1.0000
  H   H11       1.0  0.6059968438244069  0.7067525508357305  0.9845550086079553  1.0000
  H   H12       1.0  0.5917517463808865  0.6841633271991369  0.8801693297870653  1.0000
  H   H13       1.0  0.09132909947443578  0.1829032568921533  0.8701580275251428  1.0000
  H   H14       1.0  0.10932663159750416  0.20897323590629902  0.9776311826901671  1.0000
  H   H15       1.0  0.19827615850650904  0.11674383088681124  0.9787668682701918  1.0000
  H   H16       1.0  0.18007839112266305  0.09160750742023531  0.8715365127839119  1.0000
  H   H17       1.0  0.3213226351108105  0.23916081091770994  0.12207866797355389  1.0000
  H   H18       1.0  0.392736410920307  0.3011025263270425  0.11866880110760998  1.0000
  H   H19       1.0  0.2339032843975843  0.33296217389826666  0.12146341940709245  1.0000
  H   H20       1.0  0.3046127340873356  0.3929742568977375  0.11554410775703158  1.0000
  H   H21       1.0  0.1909590910491161  0.2705088472420341  0.8610530277050471  1.0000
  H   H22       1.0  0.2777797294576344  0.3566300231311385  0.9607908940877788  1.0000
  H   H23       1.0  0.36737381329346164  0.2653763945780978  0.9634537628183393  1.0000
  H   H24       1.0  0.28079103935831273  0.17937627331439626  0.8634001076664004  1.0000
  H   H25       1.0  0.8243665479343464  0.19367120555590112  0.9143418841015457  1.0000
  H   H26       1.0  0.7332266873023698  0.22295045209920514  0.8586245285180636  1.0000
  H   H27       1.0  0.6443518375044731  0.12700230810859356  0.854373549680822  1.0000
  H   H28       1.0  0.736112317724917  0.0989932291435237  0.9111695583655359  1.0000
  H   H29       1.0  0.5973737254154443  0.24835683420411653  0.9439718082514685  1.0000
  H   H30       1.0  0.6546156580774395  0.30579010513670823  0.06392159191433679  1.0000
  H   H31       1.0  0.6872781304409443  0.34491264832070084  0.9494076532930789  1.0000
  H   H32       1.0  0.744677853682042  0.4008594359860851  0.06923966958628108  1.0000
  H   H33       1.0  0.9085342856041548  0.2754699989080933  0.08760592338952478  1.0000
  H   H34       1.0  0.8758869418186279  0.36008539305915827  0.15051619399051214  1.0000
  H   H35       1.0  0.7863960933669887  0.26481866990986447  0.14642055458892858  1.0000
  H   H36       1.0  0.8189333024106775  0.18026614802941762  0.08345115679136939  1.0000
  H   H37       1.0  0.08673701501478345  0.7186245844370018  0.9013841214075666  1.0000
  H   H38       1.0  0.12295651736735638  0.6344456091254358  0.8414112904555822  1.0000
  H   H39       1.0  0.21009358635246392  0.7311902969889414  0.8448861321152419  1.0000
  H   H40       1.0  0.1755859556610062  0.8152902470677856  0.9073787715733628  1.0000
  H   H41       1.0  0.33935354068545814  0.6906351199310803  0.9259688567620398  1.0000
  H   H42       1.0  0.39879954617139657  0.7473374763628797  0.04577990462545498  1.0000
  H   H43       1.0  0.25173594353912426  0.5959050062830825  0.9247867571032129  1.0000
  H   H44       1.0  0.31058903962588863  0.6543759123193809  0.044626866356530584  1.0000
  H   H45       1.0  0.1700428510813126  0.8039995746632017  0.07442226242932998  1.0000
  H   H46       1.0  0.26022342670638926  0.7773031090384421  0.13360127469560715  1.0000
  H   H47       1.0  0.3512502200816741  0.870350659171308  0.13686680039732116  1.0000
  H   H48       1.0  0.2612520749014777  0.8990570176488502  0.0802763242486293  1.0000
  C   C1        1.0  0.8580454250488003  0.3641760808969324  0.003470096164789999  1.0000
  C   C2        1.0  0.12065773773408493  0.6202465739771839  0.23531714442541574  1.0000
  C   C3        1.0  0.8547799253591253  0.6359503112986074  0.9998233604169041  1.0000
  C   C4        1.0  0.13528792985393065  0.6308426664131586  0.9839464860346252  1.0000
  C   C5        1.0  0.8694161370493846  0.37299374794425677  0.7467608641561936  1.0000
  C   C6        1.0  0.13624042129816868  0.35486879103243735  0.9844268843355406  1.0000
  C   C7        1.0  0.6381703794554808  0.8570579162077008  0.994966244608484  1.0000
  C   C8        1.0  0.38118032569906274  0.8707543052729817  0.7453161519626331  1.0000
  C   C9        1.0  0.641196830696515  0.13552845903322439  0.994851956918239  1.0000
  C   C10       1.0  0.35351156321988236  0.1333894876389434  0.9879411133766707  1.0000
  C   C11       1.0  0.6129022510935798  0.11732719521732797  0.23527180657675464  1.0000
  C   C12       1.0  0.35144611056141173  0.8580309846088169  0.9893671079177933  1.0000
  C   C13       1.0  0.7274073090545772  0.29451899906708673  0.5896289027152546  1.0000
  C   C14       1.0  0.7532382109730873  0.1959835311793795  0.3927930311819947  1.0000
  C   C15       1.0  0.8168736062293365  0.32303800777471264  0.646787247231053  1.0000
  C   C16       1.0  0.6638351726335684  0.16754483091794725  0.33533394491375645  1.0000
  C   C17       1.0  0.7763285007240556  0.24246488738142344  0.4853031787182473  1.0000
  C   C18       1.0  0.703973971119261  0.24846559694476855  0.49693620724985255  1.0000
  C   C19       1.0  0.20063380785529014  0.7590133817089181  0.3955598989847785  1.0000
  C   C20       1.0  0.29844799105906367  0.7318792629789853  0.5852341655801752  1.0000
  C   C21       1.0  0.17048695900960809  0.671130275369059  0.33514331877811526  1.0000
  C   C22       1.0  0.3295833215019997  0.8197832236521448  0.6455829532603089  1.0000
  C   C23       1.0  0.2513920499362428  0.7095903070241362  0.494026444895347  1.0000
  C   C24       1.0  0.24719516677967587  0.7812472060523347  0.4867622232394665  1.0000
  C   C25       1.0  0.8025699533340004  0.7345584044439587  0.9488687779516451  1.0000
  C   C26       1.0  0.7430538309993083  0.7950094686619803  0.9468387450419083  1.0000
  C   C27       1.0  0.6952798410876967  0.7964928653869376  0.9970719783577591  1.0000
  C   C28       1.0  0.7640205665239891  0.8279033042631454  0.09615305493954199  1.0000
  C   C29       1.0  0.8226285766758822  0.7665747515996345  0.09767593807903548  1.0000
  C   C30       1.0  0.7948476750861743  0.6940498201785913  0.9996482824906392  1.0000
  C   C31       1.0  0.7001252859573839  0.6447286016399045  0.9512783556688686  1.0000
  C   C32       1.0  0.6412517977228943  0.7055444355839594  0.9500738726812936  1.0000
  C   C33       1.0  0.14201627233461517  0.20569965585269748  0.9402563271599431  1.0000
  C   C34       1.0  0.20118335774497348  0.14467345463850717  0.9411928029855826  1.0000
  C   C35       1.0  0.2960063715761691  0.1939266934803852  0.9864258292101975  1.0000
  C   C36       1.0  0.3245487172999121  0.2668871489178315  0.084505866133874  1.0000
  C   C37       1.0  0.26603408233569337  0.3281981211487945  0.08326853942759266  1.0000
  C   C38       1.0  0.19622833687479602  0.2965378477901407  0.9843913905177923  1.0000
  C   C39       1.0  0.2405492120980171  0.29214013339387873  0.9310373722363321  1.0000
  C   C40       1.0  0.2998879483482851  0.23163750469993957  0.9325977960270249  1.0000
  C   C41       1.0  0.7683403929180487  0.21638462079722112  0.9171628182639038  1.0000
  C   C42       1.0  0.7093288422981344  0.1531287792713057  0.914588753535703  1.0000
  C   C43       1.0  0.7012989776012546  0.1989450356283271  0.0009000113733109011  1.0000
  C   C44       1.0  0.6624195736259183  0.2738990153451013  0.0038889991975779017  1.0000
  C   C45       1.0  0.7219688446050797  0.33726847558718737  0.007160762236942701  1.0000
  C   C46       1.0  0.8012019493886343  0.30529990090936815  0.0055673261240869  1.0000
  C   C47       1.0  0.85132063194078  0.2967807528309336  0.0877745753994787  1.0000
  C   C48       1.0  0.792002899922025  0.2337865611139875  0.08509588532758267  1.0000
  C   C49       1.0  0.14489308926758318  0.6982468914132196  0.9028346641077429  1.0000
  C   C50       1.0  0.2036519756760313  0.7621939483815792  0.905674022671647  1.0000
  C   C51       1.0  0.29487774706511516  0.7983133580277336  0.990980983805819  1.0000
  C   C52       1.0  0.3330078200211446  0.7226024600284758  0.9867360129197562  1.0000
  C   C53       1.0  0.2744542675755568  0.6601757563704067  0.9855862822911942  1.0000
  C   C54       1.0  0.19539612565558423  0.6922809290489622  0.9874629895077899  1.0000
  C   C55       1.0  0.22661072437283994  0.7817629209844057  0.07344439202591248  1.0000
  C   C56       1.0  0.28648831073792286  0.8441568470805548  0.07621740233219038  1.0000
  S   S1        1.0  0.8724346792034868  0.2932591847202984  0.5869912695598954  1.0000
  S   S2        1.0  0.6079709207011065  0.19793632735520816  0.3948590851878818  1.0000
  S   S3        1.0  0.19874571104836042  0.6154948142808931  0.38985642582619556  1.0000
  S   S4        1.0  0.30057613548697043  0.8753548322535493  0.5908253558387597  1.0000
  Br  Br1       1.0  0.6428129267661477  0.3114811527682021  0.6240703214106417  1.0000
  Br  Br2       1.0  0.8387472410491695  0.17928858654564542  0.3596089358885307  1.0000
  Br  Br3       1.0  0.18556343854839244  0.8429897131344075  0.3669808449736464  1.0000
  Br  Br4       1.0  0.31280611728279695  0.6480049985846532  0.613979542392421  1.0000
  O   O1        1.0  0.9968146268511546  0.49437234231062616  0.9897189276401331  1.0000
  O   O2        1.0  0.8196309360484193  0.38553036607127905  0.9458591571127  1.0000
  O   O3        1.0  0.10497767894319311  0.5392717076653852  0.19832288158448105  1.0000
  O   O4        1.0  0.9359861230325065  0.672462085856786  0.04957569502379758  1.0000
  O   O5        1.0  0.9394621887590662  0.38601865723872913  0.057278872057977985  1.0000
  O   O6        1.0  0.8200863965367374  0.5557516349553209  0.9493988634493886  1.0000
  O   O7        1.0  0.09796146158578267  0.660408801080237  0.19505239086179665  1.0000
  O   O8        1.0  0.10522617690338622  0.6644685984060814  0.03728796308018189  1.0000
  O   O9        1.0  0.9516809819572886  0.38993624356353235  0.7801759696436716  1.0000
  O   O10       1.0  0.11837041868955105  0.5510417671080103  0.927587984634911  1.0000
  O   O11       1.0  0.8289030500808039  0.394583703000748  0.7903667024234051  1.0000
  O   O12       1.0  0.1058536809953026  0.37070670897320923  0.037105985684959784  1.0000
  O   O13       1.0  0.12018267466219604  0.3826012786068701  0.9322408219440134  1.0000
  O   O14       1.0  0.49553880771248526  0.9967048078905874  0.9917457095435009  1.0000
  O   O15       1.0  0.6763587925384089  0.9365029345872667  0.04173892804328009  1.0000
  O   O16       1.0  0.4050538513009699  0.8306743757395479  0.7856122420851931  1.0000
  O   O17       1.0  0.5613069954123658  0.11169813457210125  0.9344314713616197  1.0000
  O   O18       1.0  0.5565192232829547  0.8240520874931502  0.9461215955003152  1.0000
  O   O19       1.0  0.6747978402493899  0.11025928519990201  0.04940267770051319  1.0000
  O   O20       1.0  0.3973792820381802  0.9517481962258284  0.7823092304990805  1.0000
  O   O21       1.0  0.3848530419001719  0.11320179952132725  0.9357204442258574  1.0000
  O   O22       1.0  0.530510602624645  0.10367482684073077  0.1992635082016818  1.0000
  O   O23       1.0  0.3656173359310699  0.1072687309235647  0.041045719810142586  1.0000
  O   O24       1.0  0.6554876287878031  0.09207719271678624  0.19407887126787662  1.0000
  O   O25       1.0  0.3724581131448233  0.8226596757668644  0.9281332197996405  1.0000
  O   O26       1.0  0.37274292274804577  0.9378169496737739  0.0474270788474342  1.0000
