data_image0
_chemical_formula_structural       Ca4H8C8O16
_chemical_formula_sum              "Ca4 H8 C8 O16"
_cell_length_a       6.790271992716868
_cell_length_b       6.790190925489151
_cell_length_c       9.384718973179245
_cell_angle_alpha    90.00354180078484
_cell_angle_beta     89.99877731679285
_cell_angle_gamma    90.00359737857436

_space_group_name_H-M_alt    "P 1"
_space_group_IT_number       1

loop_
  _space_group_symop_operation_xyz
  'x, y, z'

loop_
  _atom_site_type_symbol
  _atom_site_label
  _atom_site_symmetry_multiplicity
  _atom_site_fract_x
  _atom_site_fract_y
  _atom_site_fract_z
  _atom_site_occupancy
  Ca  Ca1       1.0  0.7880506049618817  0.7880644434353028  1.8864104234199997e-05  1.0000
  Ca  Ca2       1.0  0.7118587653238961  0.28811747431592494  0.7500021193390154  1.0000
  Ca  Ca3       1.0  0.28816167083459737  0.711874692450479  0.2500199214844088  1.0000
  Ca  Ca4       1.0  0.21192140591605121  0.21193107194507385  0.5000084499854793  1.0000
  H   H1        1.0  0.34150034227089776  0.862882011588866  0.8175944483435272  1.0000
  H   H2        1.0  0.6370762849305437  0.8416895996480632  0.5678772937963146  1.0000
  H   H3        1.0  0.3629290238747416  0.1582735123652768  0.0678610623914935  1.0000
  H   H4        1.0  0.841711724702499  0.6371038425673845  0.4321229064390408  1.0000
  H   H5        1.0  0.1582943866938464  0.3629512483383621  0.9321348696976912  1.0000
  H   H6        1.0  0.6585033297403555  0.1371130710323669  0.3175781501167165  1.0000
  H   H7        1.0  0.8628879842580801  0.3415069958519653  0.18241989516051396  1.0000
  H   H8        1.0  0.1370888380677471  0.6585455782822579  0.682416426329901  1.0000
  C   C1        1.0  0.30016879289180315  0.8089958645202627  0.9248445210847366  1.0000
  C   C2        1.0  0.6910667900915471  0.8003274452637258  0.6750512679242034  1.0000
  C   C3        1.0  0.30895443316225624  0.199646436171939  0.1750216898597685  1.0000
  C   C4        1.0  0.8003882662323394  0.6910919595276467  0.32493419685900443  1.0000
  C   C5        1.0  0.19963285747394371  0.3089391068493086  0.8249506169239068  1.0000
  C   C6        1.0  0.6998080817200149  0.19097170281693823  0.4248278405624575  1.0000
  C   C7        1.0  0.8090038646981768  0.30018222573033176  0.07515565779485908  1.0000
  C   C8        1.0  0.19098060775231573  0.6998183358645703  0.5751638499097637  1.0000
  O   O1        1.0  0.43855748572905645  0.779169205070474  0.0141080359706365  1.0000
  O   O2        1.0  0.7208005514197495  0.9386229170060005  0.7644099877698594  1.0000
  O   O3        1.0  0.2792061975804572  0.061401424775176794  0.2643971459838639  1.0000
  O   O4        1.0  0.93868250366571  0.7208618414463147  0.23561840093549338  1.0000
  O   O5        1.0  0.06136487638454471  0.2791791501017756  0.7356228108892395  1.0000
  O   O6        1.0  0.5614082081024067  0.2207715685662706  0.514083146428419  1.0000
  O   O7        1.0  0.7791974403232232  0.43858067162965864  0.9859171564720909  1.0000
  O   O8        1.0  0.2207923203717002  0.5614142859284783  0.4859325456641698  1.0000
  O   O9        1.0  0.12051495707281391  0.7828169007323281  0.9524913069774427  1.0000
  O   O10       1.0  0.7173409792911443  0.620720381842354  0.7027144321818284  1.0000
  O   O11       1.0  0.2826794104987442  0.3792735720233509  0.20269103006793898  1.0000
  O   O12       1.0  0.6207751993585049  0.7173126577964909  0.2972368455368297  1.0000
  O   O13       1.0  0.3792497037678686  0.2826953889227823  0.7972717756507777  1.0000
  O   O14       1.0  0.8794522476352497  0.21715601107644036  0.45250077213381695  1.0000
  O   O15       1.0  0.7828097070901381  0.12054166158697652  0.0475080245693462  1.0000
  O   O16       1.0  0.21718590835910592  0.8794668100426082  0.5474928315139707  1.0000
