data_image0
_chemical_formula_structural       Cd2H40C46N8O10
_chemical_formula_sum              "Cd2 H40 C46 N8 O10"
_cell_length_a       8.623790330557172
_cell_length_b       10.821206042273595
_cell_length_c       12.5194
_cell_angle_alpha    90.60806790926321
_cell_angle_beta     105.23212333838745
_cell_angle_gamma    95.5893125482477

_space_group_name_H-M_alt    "P 1"
_space_group_IT_number       1

loop_
  _space_group_symop_operation_xyz
  'x, y, z'

loop_
  _atom_site_type_symbol
  _atom_site_label
  _atom_site_symmetry_multiplicity
  _atom_site_fract_x
  _atom_site_fract_y
  _atom_site_fract_z
  _atom_site_occupancy
  Cd  Cd1       1.0  0.8601641711342223  0.40121066694644014  0.21175257613517567  1.0000
  Cd  Cd2       1.0  0.13983794760290638  0.5987873169046125  0.7882446736491318  1.0000
  H   H1        1.0  0.06646631681288537  0.2975478293979634  0.033170552763579095  1.0000
  H   H2        1.0  0.9335273893028742  0.7024501544530963  0.9668251745253542  1.0000
  H   H3        1.0  0.6011623628323404  0.17181402405290672  0.060477570384875924  1.0000
  H   H4        1.0  0.3988345722753336  0.8281811722385372  0.9395227095102356  1.0000
  H   H5        1.0  0.667829070216733  0.0314994235803425  0.8930338342544816  1.0000
  H   H6        1.0  0.3321600796316488  0.9685004186437851  0.10696028673908127  1.0000
  H   H7        1.0  0.12196953710220977  0.2871641698548828  0.8673353563053254  1.0000
  H   H8        1.0  0.8780264471472421  0.7128328848096359  0.13266317103210667  1.0000
  H   H9        1.0  0.2683840795088911  0.2150750908096484  0.7422101138208959  1.0000
  H   H10       1.0  0.7316133574884418  0.7849238222279453  0.2577902909988339  1.0000
  H   H11       1.0  0.9910545621885943  0.8539753904860349  0.708523846271099  1.0000
  H   H12       1.0  0.008938318541361  0.1460253809246268  0.2914733547326165  1.0000
  H   H13       1.0  0.8493969549799232  0.9241791500491346  0.8415577280522584  1.0000
  H   H14       1.0  0.15059364761633987  0.075822550548061  0.158438270423602  1.0000
  H   H15       1.0  0.5250846810212195  0.9668120867073428  0.7165590827978788  1.0000
  H   H16       1.0  0.4749160378891233  0.0331933306360028  0.2834371830766713  1.0000
  H   H17       1.0  0.7390266000318917  0.0830414007485274  0.6450493870308164  1.0000
  H   H18       1.0  0.26097279160298825  0.9169630874082841  0.3549474288735651  1.0000
  H   H19       1.0  0.37106263040615767  0.27778496095753985  0.4271681419470141  1.0000
  H   H20       1.0  0.6289389668110914  0.7222269606915575  0.5728363301488599  1.0000
  H   H21       1.0  0.1628972551203418  0.1585443111281037  0.4972505539465217  1.0000
  H   H22       1.0  0.8371059928685227  0.8414620354017758  0.5027485744388399  1.0000
  H   H23       1.0  0.8953308857920277  0.2730479679955167  0.6391963791841562  1.0000
  H   H24       1.0  0.10468508014074729  0.72695466178822  0.360802620488343  1.0000
  H   H25       1.0  0.05414941861856451  0.3745708889509133  0.4887417973468899  1.0000
  H   H26       1.0  0.9458599109368748  0.6254270949001396  0.511253562392163  1.0000
  H   H27       1.0  0.5678890632957518  0.27021952417904066  0.31862753548551126  1.0000
  H   H28       1.0  0.4321094304020008  0.7297961142161995  0.6813748115163207  1.0000
  H   H29       1.0  0.4519600257839186  0.45460358369491877  0.32522537177296573  1.0000
  H   H30       1.0  0.5480449984489724  0.5453981169022768  0.6747820230585333  1.0000
  H   H31       1.0  0.3842625200748201  0.5701432835503013  0.3963880812527236  1.0000
  H   H32       1.0  0.6157340915367087  0.4298584170468942  0.6036145960421067  1.0000
  H   H33       1.0  0.5195098624120718  0.6777440136395896  0.2703198141151546  1.0000
  H   H34       1.0  0.48049396001776756  0.3222576869576059  0.7296841681757087  1.0000
  H   H35       1.0  0.3092749547662378  0.6861819565756733  0.2164405135499834  1.0000
  H   H36       1.0  0.6907262131126612  0.3138178856484544  0.7835613737592481  1.0000
  H   H37       1.0  0.2984941228855789  0.501494053062423  0.0863075840370371  1.0000
  H   H38       1.0  0.7015077449067206  0.4985020724155619  0.913697590888205  1.0000
  H   H39       1.0  0.425940143695982  0.6329079757038372  0.06460047179690057  1.0000
  H   H40       1.0  0.5740650785606434  0.3670862914010726  0.935404494403727  1.0000
  C   C1        1.0  0.9483664325144473  0.2455914350345907  0.018390357615523052  1.0000
  C   C2        1.0  0.05162366819214981  0.7544065488164621  0.98160711345637  1.0000
  C   C3        1.0  0.7086707331544062  0.174598796102174  0.03083196004386217  1.0000
  C   C4        1.0  0.2913225965441057  0.8253964001892697  0.9691660698325819  1.0000
  C   C5        1.0  0.7400765698128281  0.10542178766168323  0.9480223037876314  1.0000
  C   C6        1.0  0.25991726177534946  0.8945771253759035  0.05197345473246169  1.0000
  C   C7        1.0  0.9754369766720784  0.1103204590810236  0.8642551666211276  1.0000
  C   C8        1.0  0.024557231333339768  0.889681241516179  0.1357398868321056  1.0000
  C   C9        1.0  0.093469121180668  0.1911717671635031  0.8357197748171217  1.0000
  C   C10       1.0  0.9065250868247576  0.8088299334336925  0.16427767491708067  1.0000
  C   C11       1.0  0.1763787422125347  0.150487334671908  0.7625835681897116  1.0000
  C   C12       1.0  0.8236140130450023  0.8495125075522196  0.23741519910349496  1.0000
  C   C13       1.0  0.1384599250885543  0.0295760074502098  0.7163857169147435  1.0000
  C   C14       1.0  0.8615352337750862  0.9704238347739109  0.2836118878564875  1.0000
  C   C15       1.0  0.018749406191226108  0.9487449836956545  0.7434785944024681  1.0000
  C   C16       1.0  0.9812446763417811  0.05125578771500731  0.2565156290592868  1.0000
  C   C17       1.0  0.9387518633293225  0.989003848753633  0.8182601762301616  1.0000
  C   C18       1.0  0.06124126834546221  0.010998781030103502  0.18173548971521572  1.0000
  C   C19       1.0  0.3332279608505074  0.057131963370523  0.6115561192663606  1.0000
  C   C20       1.0  0.6667715562567764  0.9428734539728156  0.3884423253898248  1.0000
  C   C21       1.0  0.49453559680456743  0.0369500318022347  0.6548690445508711  1.0000
  C   C22       1.0  0.5054637948303053  0.9630544563545698  0.34512857011382897  1.0000
  C   C23       1.0  0.613590728041558  0.1022291027229798  0.6151317964624069  1.0000
  C   C24       1.0  0.3864085381208966  0.8977744562472909  0.3848681832521165  1.0000
  C   C25       1.0  0.5702151888226155  0.188754023796065  0.5334656900983958  1.0000
  C   C26       1.0  0.42979071371718186  0.8112541811068823  0.4665331369876284  1.0000
  C   C27       1.0  0.4085749958562771  0.21078968250426303  0.49119749535041274  1.0000
  C   C28       1.0  0.5914295794080502  0.7892175932121575  0.508805875567063  1.0000
  C   C29       1.0  0.28961823821231286  0.1439607284409803  0.5303608259884385  1.0000
  C   C30       1.0  0.710385260721374  0.8560474764619742  0.469640761140198  1.0000
  C   C31       1.0  0.8533221247923563  0.28413037581388784  0.5507570134586857  1.0000
  C   C32       1.0  0.1466820740547234  0.7158741123429238  0.44924466624467396  1.0000
  C   C33       1.0  0.9295551044712411  0.3363924725477005  0.4763848534908633  1.0000
  C   C34       1.0  0.0704547269738569  0.6636092280495021  0.5236170212554043  1.0000
  C   C35       1.0  0.6784084506328867  0.2851831441595039  0.38500336248629446  1.0000
  C   C36       1.0  0.3215962501038589  0.7148250607434434  0.6149992409020086  1.0000
  C   C37       1.0  0.19560360527935924  0.4640478356498079  0.2790602324459215  1.0000
  C   C38       1.0  0.804396737213736  0.5359547941339287  0.7209431285780781  1.0000
  C   C39       1.0  0.3678830964401385  0.5263284216179329  0.31390384925510517  1.0000
  C   C40       1.0  0.6321197751314784  0.4736751373523376  0.6860999779987295  1.0000
  C   C41       1.0  0.4036374189135969  0.6224797152070211  0.2328601691877594  1.0000
  C   C42       1.0  0.5963674798468759  0.3775210562036477  0.7671424018506414  1.0000
  C   C43       1.0  0.41064285853839516  0.5612667645690905  0.1232393150139828  1.0000
  C   C44       1.0  0.5893591347263155  0.4387302900954211  0.8767666899027375  1.0000
  C   C45       1.0  0.554135779045822  0.48602681397928654  0.14424795629197007  1.0000
  C   C46       1.0  0.4458670396046998  0.5139674531256233  0.855758172430626  1.0000
  N   N1        1.0  0.8193135440264001  0.3362577404999385  0.3737894348997343  1.0000
  N   N2        1.0  0.18069027840343918  0.6637439600972641  0.6262153461514545  1.0000
  N   N3        1.0  0.6934653175667975  0.2519201245332781  0.4917812301701475  1.0000
  N   N4        1.0  0.3065367286190153  0.7480862219966015  0.5082176807158731  1.0000
  N   N5        1.0  0.8394922666482428  0.2610475238792915  0.07383115580640974  1.0000
  N   N6        1.0  0.160502390325739  0.7389486015986934  0.9261687203211721  1.0000
  N   N7        1.0  0.8925207850397356  0.1516237298057916  0.9402234722944128  1.0000
  N   N8        1.0  0.10747197021780147  0.848376112418336  0.05977209995749179  1.0000
  O   O1        1.0  0.1641782717957767  0.3538175076628037  0.3060231634226369  1.0000
  O   O2        1.0  0.8358230215555407  0.646183263747858  0.6939731637954765  1.0000
  O   O3        1.0  0.08652373823068157  0.5299652577209812  0.2249158242074998  1.0000
  O   O4        1.0  0.9134798332543212  0.4700345845031464  0.7750809067781433  1.0000
  O   O5        1.0  0.5367042405497386  0.3686854214300297  0.1472696056858283  1.0000
  O   O6        1.0  0.46329522363645737  0.6313107040479481  0.8527383292820261  1.0000
  O   O7        1.0  0.6936758113740211  0.550301434254294  0.1643281038321049  1.0000
  O   O8        1.0  0.3063258054734419  0.44969283285060874  0.8356810024324446  1.0000
  O   O9        1.0  0.21565343902854284  0.9811810273045793  0.6444487976074598  1.0000
  O   O10       1.0  0.7843470289369704  0.0188225316656911  0.3555466070444595  1.0000
