data_image0
_chemical_formula_structural       Cu4Si2H32C56O16
_chemical_formula_sum              "Cu4 Si2 H32 C56 O16"
_cell_length_a       12.446875376000694
_cell_length_b       12.44688162800443
_cell_length_c       24.38921841300982
_cell_angle_alpha    90.00009598078188
_cell_angle_beta     90.00003615400678
_cell_angle_gamma    89.99998672888795

_space_group_name_H-M_alt    "P 1"
_space_group_IT_number       1

loop_
  _space_group_symop_operation_xyz
  'x, y, z'

loop_
  _atom_site_type_symbol
  _atom_site_label
  _atom_site_symmetry_multiplicity
  _atom_site_fract_x
  _atom_site_fract_y
  _atom_site_fract_z
  _atom_site_occupancy
  Cu  Cu1       1.0  0.9014661656473206  0.5000006716597413  0.9999991925666194  1.0000
  Cu  Cu2       1.0  0.09853935083622639  0.5000015680945398  0.9999990640419156  1.0000
  Cu  Cu3       1.0  0.5000003923057931  0.9014707339033454  0.5000000870302657  1.0000
  Cu  Cu4       1.0  0.5000004852645147  0.09852263021731034  0.4999997445729676  1.0000
  Si  Si1       1.0  0.9999996629690029  4.3027224449999967e-07  0.7500023038972472  1.0000
  Si  Si2       1.0  1.554588209e-07  2.0180512905000005e-06  0.2499973511562672  1.0000
  H   H1        1.0  0.8264359244525393  0.8704337009644406  0.802610479318325  1.0000
  H   H2        1.0  0.8273872288521175  0.7320666343711152  0.8759850554985036  1.0000
  H   H3        1.0  0.17356211581142836  0.12956869283232214  0.802610878867938  1.0000
  H   H4        1.0  0.17261331291026483  0.2679360008146929  0.8759855727711567  1.0000
  H   H5        1.0  0.12956514005220748  0.8264355937678193  0.3026094964351742  1.0000
  H   H6        1.0  0.2679324422473001  0.8273917611907893  0.3759833339984979  1.0000
  H   H7        1.0  0.8704346886118869  0.17356435170253096  0.3026105666288785  1.0000
  H   H8        1.0  0.73206908449891  0.1726108359069016  0.375983539046409  1.0000
  H   H9        1.0  0.17356245710167428  0.870434387895074  0.1973892582502899  1.0000
  H   H10       1.0  0.17261359498342438  0.732066276717788  0.1240141540257298  1.0000
  H   H11       1.0  0.826436437286581  0.12956922849006963  0.19739027682908272  1.0000
  H   H12       1.0  0.8273876183929186  0.2679362948623166  0.1240152909361925  1.0000
  H   H13       1.0  0.8704364653477086  0.8264361573155701  0.6973906136207617  1.0000
  H   H14       1.0  0.7320683595165033  0.8273921154115842  0.6240163668555851  1.0000
  H   H15       1.0  0.1295638542986737  0.17356508691044337  0.6973898065620362  1.0000
  H   H16       1.0  0.26793026204634873  0.17261210108363662  0.6240160132970303  1.0000
  H   H17       1.0  0.17356254287369668  0.1295693041268464  0.1973901723231108  1.0000
  H   H18       1.0  0.17261364871707485  0.2679363707185445  0.12401477610884368  1.0000
  H   H19       1.0  0.8264363515145589  0.870434312258297  0.1973893627562546  1.0000
  H   H20       1.0  0.8273867612445327  0.7320662008609773  0.1240142588357145  1.0000
  H   H21       1.0  0.8704357375170061  0.17356500107892006  0.6973899251538995  1.0000
  H   H22       1.0  0.7320692387361233  0.17261124389810337  0.624016087591734  1.0000
  H   H23       1.0  0.12956377871513775  0.8264362431478606  0.6973909050460065  1.0000
  H   H24       1.0  0.26793179307053083  0.8273921691834335  0.6240167025781673  1.0000
  H   H25       1.0  0.8264360102239576  0.12956942060895224  0.8026105733570076  1.0000
  H   H26       1.0  0.8273872825853487  0.26793592495644  0.875984857546797  1.0000
  H   H27       1.0  0.17356203003991763  0.8704337766018927  0.8026107848295966  1.0000
  H   H28       1.0  0.17261245576263912  0.732065906815379  0.8759857707223944  1.0000
  H   H29       1.0  0.12956521563717868  0.17356524094853407  0.302610858054976  1.0000
  H   H30       1.0  0.2679301078095762  0.172610086264946  0.3759838747682664  1.0000
  H   H31       1.0  0.8704354164415659  0.8264355079364807  0.30260961502678185  1.0000
  H   H32       1.0  0.7320682052790343  0.8273917074197075  0.3759834082930311  1.0000
  C   C1        1.0  0.9029820562813168  0.8400518105203931  0.8180636183415402  1.0000
  C   C2        1.0  0.9025747597514664  0.7626951533787435  0.8593273102198111  1.0000
  C   C3        1.0  0.09701761003037745  0.15995143752831353  0.8180640193019356  1.0000
  C   C4        1.0  0.09742335104931497  0.23730823041766771  0.8593261372266738  1.0000
  C   C5        1.0  0.15994384939738637  0.9029849095777538  0.318063083691726  1.0000
  C   C6        1.0  0.23730465609792611  0.9025768341399073  0.35932928094040045  1.0000
  C   C7        1.0  0.8400559984869174  0.09701428331992899  0.3180653089147896  1.0000
  C   C8        1.0  0.7626944396937173  0.09742088768666693  0.3593306617099259  1.0000
  C   C9        1.0  0.09701713572179926  0.8400508575194157  0.1819352732762738  1.0000
  C   C10       1.0  0.09742284333520958  0.7626956713648952  0.1406735654993554  1.0000
  C   C11       1.0  0.902982542860826  0.15995270802421402  0.1819359322604086  1.0000
  C   C12       1.0  0.9025751771012976  0.23730856184818094  0.1406734703031063  1.0000
  C   C13       1.0  0.8400585416918246  0.9029870361517002  0.6819362716270803  1.0000
  C   C14       1.0  0.762696931672181  0.9025756292254601  0.6406708940632484  1.0000
  C   C15       1.0  0.15994336556246216  0.09701576405884543  0.681934588962136  1.0000
  C   C16       1.0  0.2373041208477459  0.0974206079182451  0.6406700565474353  1.0000
  C   C17       1.0  0.09701801787294775  0.15995280139685522  0.1819358032491181  1.0000
  C   C18       1.0  0.09742370757518866  0.23730865512797555  0.1406741614564453  1.0000
  C   C19       1.0  0.9029824641244201  0.8400507641473568  0.1819358123049355  1.0000
  C   C20       1.0  0.9025751162761607  0.7626947746715944  0.1406732843630394  1.0000
  C   C21       1.0  0.840057028170804  0.09701568526628533  0.6819346978283889  1.0000
  C   C22       1.0  0.7626962214716638  0.09742054705049703  0.640670140647309  1.0000
  C   C23       1.0  0.15994246884001478  0.9029871149445442  0.6819361627604364  1.0000
  C   C24       1.0  0.23730322421945252  0.9025764935081572  0.6406712199807032  1.0000
  C   C25       1.0  0.9029829384323943  0.15995214756898696  0.8180637382964591  1.0000
  C   C26       1.0  0.9025756239909336  0.23730813714048085  0.8593270861424287  1.0000
  C   C27       1.0  0.09701753129404266  0.8400511004802953  0.818064309364388  1.0000
  C   C28       1.0  0.09742329022477489  0.762693639828349  0.8593267713207453  1.0000
  C   C29       1.0  0.15994394270754947  0.09701436211230433  0.3180652000487925  1.0000
  C   C30       1.0  0.23730555272774717  0.09742094855403853  0.3593305776105709  1.0000
  C   C31       1.0  0.8400575120057282  0.9029848307851938  0.318063192557986  1.0000
  C   C32       1.0  0.7626959533073571  0.9025767732722446  0.3593293650401392  1.0000
  C   C33       1.0  0.999999158255029  0.8804297494095011  0.7968481290842817  1.0000
  C   C34       1.0  2.070464582e-06  0.7240840151344021  0.8803901448717539  1.0000
  C   C35       1.0  0.9999976588844883  0.6426314432272378  0.9253822818944144  1.0000
  C   C36       1.0  0.9999984429260703  0.11957250957603803  0.7968473945613681  1.0000
  C   C37       1.0  2.925763858699999e-06  0.27591955380807326  0.8803899537297823  1.0000
  C   C38       1.0  0.9999984953239572  0.35737204202779094  0.9253821602314289  1.0000
  C   C39       1.0  0.11956352519347749  1.2778499254000003e-06  0.2968475801147576  1.0000
  C   C40       1.0  0.27591515135405587  0.9999988561251176  0.380394374352548  1.0000
  C   C41       1.0  0.35738140835523063  0.9999868694809424  0.4253847590109885  1.0000
  C   C42       1.0  0.8804372154902392  1.1897011518000002e-06  0.2968477019083267  1.0000
  C   C43       1.0  0.7240846582775902  0.9999988042037632  0.38039444609135126  1.0000
  C   C44       1.0  0.6426184572331619  0.9999860330215642  0.42538480466873807  1.0000
  C   C45       1.0  0.9999987890697495  0.8804295762479201  0.2031525971157322  1.0000
  C   C46       1.0  1.5973787057999992e-06  0.7240843705472958  0.11960971780780481  1.0000
  C   C47       1.0  0.9999971298425404  0.642630847209759  0.0746174214285134  1.0000
  C   C48       1.0  0.9999996805697648  0.11957233641425802  0.20315186259307444  1.0000
  C   C49       1.0  2.4526783307e-06  0.2759191058075602  0.11960993668272829  1.0000
  C   C50       1.0  0.9999979662824285  0.3573722494257439  0.0746181198003555  1.0000
  C   C51       1.0  0.8804374681479032  2.5120733939999963e-07  0.7031522350092843  1.0000
  C   C52       1.0  0.7240849228020421  9.353109930999996e-07  0.6196070973222517  1.0000
  C   C53       1.0  0.6426193534459087  0.9999862784931965  0.5746159091007712  1.0000
  C   C54       1.0  0.11956297443690288  3.3935688039999956e-07  0.7031525232328235  1.0000
  C   C55       1.0  0.2759154158784084  1.7906464365e-06  0.6196070255837896  1.0000
  C   C56       1.0  0.3573798943245166  0.9999871149528519  0.5746158634426379  1.0000
  O   O1        1.0  0.9083136188886057  0.6109970529063774  0.9427747749961384  1.0000
  O   O2        1.0  0.09168780935407025  0.3890114259069011  0.9427770097048266  1.0000
  O   O3        1.0  0.38901025132259537  0.9083101167265116  0.4427743761227632  1.0000
  O   O4        1.0  0.6109841277626841  0.09168225572261694  0.4427765234659873  1.0000
  O   O5        1.0  0.0916880363933572  0.6109916737890941  0.0572218711503112  1.0000
  O   O6        1.0  0.9083147007450448  0.3890058575746523  0.0572247773120793  1.0000
  O   O7        1.0  0.6109921385339874  0.9083110826851098  0.5572253937551892  1.0000
  O   O8        1.0  0.3890144341066985  0.09168246969240812  0.5572229598448075  1.0000
  O   O9        1.0  0.09168725867814938  0.3890115760771523  0.05722218649292899  1.0000
  O   O10       1.0  0.9083154784589522  0.6109972030837696  0.0572244619742577  1.0000
  O   O11       1.0  0.6109858057592844  0.09168083714772737  0.5572225853579909  1.0000
  O   O12       1.0  0.3890087156640261  0.9083111084023446  0.5572253582221478  1.0000
  O   O13       1.0  0.9083144480036721  0.3890057073970753  0.9427750903342158  1.0000
  O   O14       1.0  0.09168698024055998  0.6109915236197027  0.9427771043791892  1.0000
  O   O15       1.0  0.3890159697682377  0.09168228143875723  0.44277689795263336  1.0000
  O   O16       1.0  0.6109896571202141  0.9083092875956639  0.4427744116548169  1.0000
