data_image0
_chemical_formula_structural       Cu2Ag2H24C24N6O14
_chemical_formula_sum              "Cu2 Ag2 H24 C24 N6 O14"
_cell_length_a       7.723047838446767
_cell_length_b       8.411384516121325
_cell_length_c       13.452175173619471
_cell_angle_alpha    91.32329631820792
_cell_angle_beta     97.73835573550069
_cell_angle_gamma    117.2437048353927

_space_group_name_H-M_alt    "P 1"
_space_group_IT_number       1

loop_
  _space_group_symop_operation_xyz
  'x, y, z'

loop_
  _atom_site_type_symbol
  _atom_site_label
  _atom_site_symmetry_multiplicity
  _atom_site_fract_x
  _atom_site_fract_y
  _atom_site_fract_z
  _atom_site_occupancy
  Cu  Cu1       1.0  0.39755125480007786  0.9407211852393333  0.667163608171144  1.0000
  Cu  Cu2       1.0  0.602446276213712  0.05927718134530121  0.3328340721282643  1.0000
  Ag  Ag1       1.0  0.4175156745088557  0.4003909095802031  0.18214922663117514  1.0000
  Ag  Ag2       1.0  0.5824898850871705  0.5996155190806293  0.8178469547578403  1.0000
  H   H1        1.0  0.8975604566996082  0.9980462676768344  0.7492284390439892  1.0000
  H   H2        1.0  0.1024297356206674  0.0019453908926579003  0.2507752723105412  1.0000
  H   H3        1.0  0.96588196525326  0.9662980390143406  0.876638733378968  1.0000
  H   H4        1.0  0.034119997147740805  0.03369363822315562  0.1233651448504602  1.0000
  H   H5        1.0  0.03540907652171648  0.18693205923236184  0.8415947533531423  1.0000
  H   H6        1.0  0.9645883398181213  0.8130609541223849  0.1584095350877774  1.0000
  H   H7        1.0  0.8760393432191053  0.3301458567330827  0.9040415583652077  1.0000
  H   H8        1.0  0.12395613488963163  0.6698484813341496  0.09595665137943848  1.0000
  H   H9        1.0  0.7262118677862545  0.37222653190086424  0.9803327157255168  1.0000
  H   H10       1.0  0.2737856028029881  0.6277691518672343  0.019665666508963398  1.0000
  H   H11       1.0  0.7522696360169476  0.17416253981315324  0.9892811377435252  1.0000
  H   H12       1.0  0.24772384961128321  0.825830452553227  0.0107168995112801  1.0000
  H   H13       1.0  0.9510134494341995  0.6711552931437197  0.3953007585950131  1.0000
  H   H14       1.0  0.048984769703984896  0.3288444239582092  0.6046999669144455  1.0000
  H   H15       1.0  0.12534556732963856  0.6957963014491285  0.31392671086055657  1.0000
  H   H16       1.0  0.8746500333925268  0.30420340579495075  0.6860715819486175  1.0000
  H   H17       1.0  0.020851851336630024  0.498271194882115  0.3761260639492718  1.0000
  H   H18       1.0  0.9791476765684803  0.5017285262627951  0.6238755061766595  1.0000
  H   H19       1.0  0.8828025494144993  0.8365528259769663  0.5941573101699404  1.0000
  H   H20       1.0  0.11719766396851128  0.1634482403695827  0.4058450747640308  1.0000
  H   H21       1.0  0.734816492984045  0.6526397242924136  0.4996075756947036  1.0000
  H   H22       1.0  0.26518372039896576  0.3473613420541356  0.5003948092392747  1.0000
  H   H23       1.0  0.8350964263335995  0.8754510146048063  0.4657404168154926  1.0000
  H   H24       1.0  0.16490247828248528  0.12455004769876153  0.5342611235020058  1.0000
  C   C1        1.0  0.013427991102481902  0.053340761892101816  0.8154569144062833  1.0000
  C   C2        1.0  0.9865720392425599  0.9466522524610712  0.1845460893982391  1.0000
  C   C3        1.0  0.20224101490082796  0.06444212669860151  0.7921632846668913  1.0000
  C   C4        1.0  0.7977564556884148  0.9355535570694902  0.207835097567596  1.0000
  C   C5        1.0  0.3742891094314302  0.14166976397211076  0.8689505794359534  1.0000
  C   C6        1.0  0.6257064299840208  0.8583272586835523  0.1310476718409603  1.0000
  C   C7        1.0  0.5658659314452024  0.16624194839587864  0.8553496642812917  1.0000
  C   C8        1.0  0.43413029168382167  0.8337564159176553  0.1446479148689832  1.0000
  C   C9        1.0  0.7398766284299753  0.26816876288934577  0.9365209966460952  1.0000
  C   C10       1.0  0.2601195938168884  0.7318295996523007  0.06347583903683329  1.0000
  C   C11       1.0  0.3568493413480453  0.20806122016249165  0.961904548381419  1.0000
  C   C12       1.0  0.6431540969789109  0.7919384812174571  0.03808617318187399  1.0000
  C   C13       1.0  0.0730658361993903  0.6442041496765116  0.3843128011412134  1.0000
  C   C14       1.0  0.9269363670176388  0.3557982570552483  0.6156875258805812  1.0000
  C   C15       1.0  0.2384471175031281  0.7312948127005402  0.47131738185195365  1.0000
  C   C16       1.0  0.7615544597783809  0.26870892987422934  0.5286806849593972  1.0000
  C   C17       1.0  0.416991580452013  0.7187079325433815  0.4683248015725212  1.0000
  C   C18       1.0  0.5830120497345489  0.2812998385487831  0.5316727357935918  1.0000
  C   C19       1.0  0.5915313010252988  0.8040764439147596  0.5431125866485047  1.0000
  C   C20       1.0  0.4084715859053034  0.19592730447487133  0.4568870682466581  1.0000
  C   C21       1.0  0.7721410497101858  0.7907566733456124  0.5257894392098876  1.0000
  C   C22       1.0  0.22785853950163926  0.2092457323877142  0.47421217244831126  1.0000
  C   C23       1.0  0.42243663045062607  0.6213835371324238  0.38347451866959403  1.0000
  C   C24       1.0  0.5775697442940312  0.3786296200819522  0.6165285083306884  1.0000
  N   N1        1.0  0.3439276478537395  0.2630925056348873  0.039747793509590706  1.0000
  N   N2        1.0  0.6560833342587956  0.7369220000506691  0.9602548648114677  1.0000
  N   N3        1.0  0.42176292657380526  0.5377185725825128  0.3127115251967609  1.0000
  N   N4        1.0  0.5782404548572586  0.4622784530684357  0.6872828721709467  1.0000
  N   N5        1.0  0.8137288431315071  0.38690728098033844  0.1888167598228776  1.0000
  N   N6        1.0  0.1862799643447062  0.6130978287828698  0.811187088346223  1.0000
  O   O1        1.0  0.20213529854588322  0.007279739747026801  0.7039337186269208  1.0000
  O   O2        1.0  0.7978582483890617  0.9927159372077768  0.2960643601601447  1.0000
  O   O3        1.0  0.5978627831695178  0.10436718444805855  0.7766620025769271  1.0000
  O   O4        1.0  0.40213474696210477  0.8956311803646885  0.2233349342551492  1.0000
  O   O5        1.0  0.21268097293358312  0.8134659253275418  0.5435393241436515  1.0000
  O   O6        1.0  0.7873171840157266  0.1865311054140832  0.45646061636620766  1.0000
  O   O7        1.0  0.604312652485845  0.8960978480805863  0.6222945295602712  1.0000
  O   O8        1.0  0.39568357417183353  0.10390052332048333  0.3777060234593534  1.0000
  O   O9        1.0  0.6767492511349928  0.3018832423986667  0.2420862682642664  1.0000
  O   O10       1.0  0.32326161277493526  0.6981259029694656  0.7579200243289463  1.0000
  O   O11       1.0  0.9454291433127721  0.3418298180673247  0.1825354912347379  1.0000
  O   O12       1.0  0.054576987969369384  0.6581726043371463  0.8174688565711604  1.0000
  O   O13       1.0  0.8075899729568691  0.515860215408644  0.1443472873963003  1.0000
  O   O14       1.0  0.19241347860253913  0.484139512549561  0.8556545861770459  1.0000
