data_image0
_chemical_formula_structural       Ag10H4C16N10O18
_chemical_formula_sum              "Ag10 H4 C16 N10 O18"
_cell_length_a       8.591096419841323
_cell_length_b       8.767737772283903
_cell_length_c       10.057642069342128
_cell_angle_alpha    79.12436966383221
_cell_angle_beta     78.50816621068346
_cell_angle_gamma    79.09399128390599

_space_group_name_H-M_alt    "P 1"
_space_group_IT_number       1

loop_
  _space_group_symop_operation_xyz
  'x, y, z'

loop_
  _atom_site_type_symbol
  _atom_site_label
  _atom_site_symmetry_multiplicity
  _atom_site_fract_x
  _atom_site_fract_y
  _atom_site_fract_z
  _atom_site_occupancy
  Ag  Ag1       1.0  0.5021903225272409  0.8429757653875924  0.08518332427380672  1.0000
  Ag  Ag2       1.0  0.4978120181842556  0.15703499988135414  0.9148117667153957  1.0000
  Ag  Ag3       1.0  0.39638055226659225  0.5282921234319247  0.13431418024887884  1.0000
  Ag  Ag4       1.0  0.6036236911711653  0.47170568355726766  0.8656777891654316  1.0000
  Ag  Ag5       1.0  0.4914875913577107  0.5993929170473109  0.3645121406180395  1.0000
  Ag  Ag6       1.0  0.5085208837495829  0.40059189753357327  0.6354793278243706  1.0000
  Ag  Ag7       1.0  0.1165667290887811  0.3787665023153863  0.317376479474497  1.0000
  Ag  Ag8       1.0  0.8834293808751635  0.6212373731472453  0.6826247178628082  1.0000
  Ag  Ag9       1.0  0.11640192577016956  0.7790724656522628  0.06034854277284303  1.0000
  Ag  Ag10      1.0  0.8835999600691266  0.22092312040271625  0.9396610725365663  1.0000
  H   H1        1.0  0.2275339123391333  0.0135954484956429  0.44580280067072675  1.0000
  H   H2        1.0  0.7724537148790062  0.9864086357694508  0.5542076581675347  1.0000
  H   H3        1.0  0.24817617866733602  0.8013353568167504  0.6493741158680495  1.0000
  H   H4        1.0  0.7518095388501322  0.19866638576748846  0.35062907857956566  1.0000
  C   C1        1.0  0.33342154549588093  0.17029671583832598  0.5332927000115008  1.0000
  C   C2        1.0  0.666576965074988  0.8297071061762936  0.46670713228307636  1.0000
  C   C3        1.0  0.2769143225415363  0.029759787183934298  0.5329814797478678  1.0000
  C   C4        1.0  0.7230756102203841  0.9702547486658945  0.4670149469935368  1.0000
  C   C5        1.0  0.28959632419591946  0.9125286600172375  0.6441918555173629  1.0000
  C   C6        1.0  0.7103912277702664  0.0874765759285694  0.3558134521289987  1.0000
  C   C7        1.0  0.355449320255218  0.9406031247494443  0.7536502846803047  1.0000
  C   C8        1.0  0.6445493568402156  0.059407737596053785  0.24635034131298286  1.0000
  C   C9        1.0  0.32658993434408506  0.3003242011794783  0.42527400787309244  1.0000
  C   C10       1.0  0.6734053659920889  0.6996691162816333  0.5747240982511032  1.0000
  C   C11       1.0  0.37070332655444094  0.4187061574450938  0.3435450074584452  1.0000
  C   C12       1.0  0.6292898096699844  0.5812860183145363  0.6564506471975022  1.0000
  C   C13       1.0  0.3647962242474065  0.8270343737746303  0.8730261988049508  1.0000
  C   C14       1.0  0.6352025944822727  0.172968233771023  0.12696583133293163  1.0000
  C   C15       1.0  0.3806326371204919  0.7148765375961547  0.9698084611217584  1.0000
  C   C16       1.0  0.6193719393663955  0.28513535005481583  0.030185095689965594  1.0000
  N   N1        1.0  0.8504312115260361  0.8616262501525825  0.8840325879746801  1.0000
  N   N2        1.0  0.1495731644997349  0.13836925830505462  0.11597068023485244  1.0000
  N   N3        1.0  0.40301915471804517  0.18812758757002263  0.6382135092504414  1.0000
  N   N4        1.0  0.5969805992530083  0.8118679794849941  0.3617825249302343  1.0000
  N   N5        1.0  0.41186098164855167  0.07688629230639783  0.7471770135516567  1.0000
  N   N6        1.0  0.5881470417704194  0.9231173400654741  0.25282234062918013  1.0000
  N   N7        1.0  0.9076980891801228  0.21222711904855632  0.625616064529325  1.0000
  N   N8        1.0  0.09230357449160208  0.7877707896873148  0.374387234042004  1.0000
  N   N9        1.0  0.8410472507725332  0.5293665158419146  0.17717476444741467  1.0000
  N   N10       1.0  0.15895794751556022  0.47063246198770503  0.8228208371622188  1.0000
  O   O1        1.0  0.7880369648044193  0.46455433094934045  0.2971112527430933  1.0000
  O   O2        1.0  0.2119729272020408  0.5354445689634417  0.7028875972496708  1.0000
  O   O3        1.0  0.9729234966107898  0.8141267752884431  0.8013432100635001  1.0000
  O   O4        1.0  0.027081484993317397  0.18586404433863635  0.1986637239193314  1.0000
  O   O5        1.0  0.8670535750082703  0.9079495979192629  0.9932173459402025  1.0000
  O   O6        1.0  0.13294689731795734  0.092048335125682  0.006786136946772096  1.0000
  O   O7        1.0  0.0005334609685476986  0.25457615689288826  0.6912350692928868  1.0000
  O   O8        1.0  0.9994633656575258  0.7454218683987437  0.3087729521867433  1.0000
  O   O9        1.0  0.9396922596916681  0.2238373214014261  0.4959328116641047  1.0000
  O   O10       1.0  0.060316698968677  0.7761592704798091  0.5040705465595324  1.0000
  O   O11       1.0  0.782187170857405  0.15836923838205055  0.6899620287411139  1.0000
  O   O12       1.0  0.2178132083009459  0.8416298511734724  0.3100372993653906  1.0000
  O   O13       1.0  0.7498117713502738  0.5951261467434464  0.09287477466504872  1.0000
  O   O14       1.0  0.2501899639851004  0.4048717426729597  0.907124538260561  1.0000
  O   O15       1.0  0.9938309130612024  0.5266178274158264  0.14161109574033764  1.0000
  O   O16       1.0  0.0061734952080741015  0.47337880374332997  0.8583810428087163  1.0000
  O   O17       1.0  0.71074100058771  0.8641789727521785  0.8605558456848358  1.0000
  O   O18       1.0  0.28926291677532834  0.1358200535358449  0.13944492229758512  1.0000
