data_image0
_chemical_formula_structural       Fe4H24C16O24
_chemical_formula_sum              "Fe4 H24 C16 O24"
_cell_length_a       7.846209354516162
_cell_length_b       9.09738602422698
_cell_length_c       8.815004425050354
_cell_angle_alpha    89.93467272319644
_cell_angle_beta     89.77421042270184
_cell_angle_gamma    89.96448316016452

_space_group_name_H-M_alt    "P 1"
_space_group_IT_number       1

loop_
  _space_group_symop_operation_xyz
  'x, y, z'

loop_
  _atom_site_type_symbol
  _atom_site_label
  _atom_site_symmetry_multiplicity
  _atom_site_fract_x
  _atom_site_fract_y
  _atom_site_fract_z
  _atom_site_occupancy
  Fe  Fe1       1.0  0.10140950447394202  0.0722868842029811  0.8868913640164922  1.0000
  Fe  Fe2       1.0  0.3995024477293542  0.927931891446548  0.3862689806542151  1.0000
  Fe  Fe3       1.0  0.6009121804529941  0.42764080958045275  0.11377437874300969  1.0000
  Fe  Fe4       1.0  0.8975946329149027  0.5729152264029905  0.6117005191526631  1.0000
  H   H1        1.0  0.0012036609169641006  0.339583091350562  0.03225978846194271  1.0000
  H   H2        1.0  0.49883015023105787  0.6597987045448264  0.5348264708323854  1.0000
  H   H3        1.0  0.4996928213411353  0.16043990735887093  0.9650734369717289  1.0000
  H   H4        1.0  0.999853269913132  0.8396024700162814  0.46588158581838013  1.0000
  H   H5        1.0  0.03416856542074951  0.354117830032429  0.8542938641974731  1.0000
  H   H6        1.0  0.46952066147370897  0.6449004391717496  0.3568520628200816  1.0000
  H   H7        1.0  0.5284945781878394  0.1459906818416101  0.14340838693174626  1.0000
  H   H8        1.0  0.9677376137195142  0.8530769226006927  0.6442869071887929  1.0000
  H   H9        1.0  0.8418877098936053  0.9938312209954461  0.2610702766712124  1.0000
  H   H10       1.0  0.658911781916089  0.005499742459299701  0.7578856963737695  1.0000
  H   H11       1.0  0.3443761754816777  0.5073793337216798  0.7412927481589265  1.0000
  H   H12       1.0  0.15516602519498693  0.49176002354793974  0.23697499550833362  1.0000
  H   H13       1.0  0.7636630152962596  0.08727880138394542  0.04102645342629781  1.0000
  H   H14       1.0  0.735765800983046  0.9131383390778895  0.5379055655771482  1.0000
  H   H15       1.0  0.2662907373202118  0.4132102340663124  0.9609698707948766  1.0000
  H   H16       1.0  0.23401910086153782  0.5868387662015807  0.4582224816054322  1.0000
  H   H17       1.0  0.8634777805870189  0.7453974933680387  0.02935726749887381  1.0000
  H   H18       1.0  0.6402702391544679  0.2573076590225299  0.5294763817406507  1.0000
  H   H19       1.0  0.35858833923238365  0.7563941971265251  0.9722756621107255  1.0000
  H   H20       1.0  0.13791422935849343  0.24763579359997578  0.4741133343755522  1.0000
  H   H21       1.0  0.9074089159783016  0.7119163503075967  0.2226848423370812  1.0000
  H   H22       1.0  0.5952564779543581  0.28815201490349557  0.7232600092748671  1.0000
  H   H23       1.0  0.40544974500654973  0.7899026173704584  0.7791741909335459  1.0000
  H   H24       1.0  0.09218274932995033  0.20970591300768154  0.2822912696369357  1.0000
  C   C1        1.0  0.9047240612756655  0.9430833286650965  0.16200131152167785  1.0000
  C   C2        1.0  0.5962110934638362  0.0576923856930165  0.6598653646599077  1.0000
  C   C3        1.0  0.40616388353446103  0.558747073305142  0.8400040438344194  1.0000
  C   C4        1.0  0.09302614831486272  0.44216073373729625  0.33703165703048654  1.0000
  C   C5        1.0  0.09629058346648382  0.9447615401547081  0.19202639356214496  1.0000
  C   C6        1.0  0.4047295888033774  0.05552255962660271  0.6913452075101321  1.0000
  C   C7        1.0  0.5976843856927231  0.5576429897847319  0.8092712954545862  1.0000
  C   C8        1.0  0.9014661374565168  0.4420649220110208  0.3078235999139879  1.0000
  C   C9        1.0  0.6512455215998119  0.7717035531676828  0.18368287681673223  1.0000
  C   C10       1.0  0.8508215163339302  0.22730670807857223  0.6836066307765806  1.0000
  C   C11       1.0  0.15019793993219116  0.7266580413704136  0.8155070821922055  1.0000
  C   C12       1.0  0.3481638504932363  0.27224093327520654  0.31713291234523683  1.0000
  C   C13       1.0  0.8389423088297651  0.78562917158353  0.1450038336130319  1.0000
  C   C14       1.0  0.6633353535330075  0.2149450060446227  0.6444896330635786  1.0000
  C   C15       1.0  0.3373032819213365  0.7153305902243191  0.8565790603766816  1.0000
  C   C16       1.0  0.16076617042116942  0.2855507699965045  0.3573128710824563  1.0000
  O   O1        1.0  0.5812589117849855  0.6457416675012836  0.18440156709591807  1.0000
  O   O2        1.0  0.9224727242087242  0.352427969216727  0.6835435198802886  1.0000
  O   O3        1.0  0.07646037652587981  0.850994601758657  0.8177467024380081  1.0000
  O   O4        1.0  0.4193202247153638  0.1466232981951663  0.31693362303999356  1.0000
  O   O5        1.0  0.08425825825194272  0.3143399082886518  0.9502472306935279  1.0000
  O   O6        1.0  0.4174500847452975  0.6849358730529858  0.4519527643943422  1.0000
  O   O7        1.0  0.580509826399947  0.1860728353820278  0.04824233758280632  1.0000
  O   O8        1.0  0.9172873231084469  0.8140531393825088  0.5483841168660747  1.0000
  O   O9        1.0  0.5715060519143123  0.8884133976921262  0.22171708878555316  1.0000
  O   O10       1.0  0.928372216930619  0.11002315788124412  0.7226974536074097  1.0000
  O   O11       1.0  0.07552728455227961  0.609336804643185  0.7731545964016676  1.0000
  O   O12       1.0  0.42627852019497686  0.38913695787825026  0.2774965903912873  1.0000
  O   O13       1.0  0.19567718223083125  0.001822778792544  0.09568748467100362  1.0000
  O   O14       1.0  0.3054974104209976  0.9977769623504641  0.5961773885399  1.0000
  O   O15       1.0  0.697021322893072  0.5009076682602257  0.9048987650953821  1.0000
  O   O16       1.0  0.8019131835128592  0.4975361943914224  0.4047636183933606  1.0000
  O   O17       1.0  0.14605596870747212  0.889135218709292  0.31843964435043404  1.0000
  O   O18       1.0  0.35487489599849203  0.11071491406165992  0.8181477568834412  1.0000
  O   O19       1.0  0.6472611799539223  0.612753061207968  0.6819205668972759  1.0000
  O   O20       1.0  0.8519258943111654  0.3867077779632595  0.18115922731637826  1.0000
  O   O21       1.0  0.8710682940861079  0.028572643417661005  0.029861617221229216  1.0000
  O   O22       1.0  0.6298928316748161  0.9738026763388207  0.5265674782001  1.0000
  O   O23       1.0  0.3726416603802107  0.4731045699589416  0.9723585017220278  1.0000
  O   O24       1.0  0.12484739811488772  0.5303860097341797  0.46732574299517193  1.0000
