data_image0
_chemical_formula_structural       Zn2H22C42N6O12
_chemical_formula_sum              "Zn2 H22 C42 N6 O12"
_cell_length_a       12.609697044935082
_cell_length_b       13.936629963015863
_cell_length_c       23.766632739408365
_cell_angle_alpha    89.81864181676424
_cell_angle_beta     88.75438134668465
_cell_angle_gamma    85.29485692171102

_space_group_name_H-M_alt    "P 1"
_space_group_IT_number       1

loop_
  _space_group_symop_operation_xyz
  'x, y, z'

loop_
  _atom_site_type_symbol
  _atom_site_label
  _atom_site_symmetry_multiplicity
  _atom_site_fract_x
  _atom_site_fract_y
  _atom_site_fract_z
  _atom_site_occupancy
  Zn  Zn1       1.0  0.6097156484469013  0.5053769712981762  0.4983844970109457  1.0000
  Zn  Zn2       1.0  0.39030056740095637  0.49460188728293997  0.5016141782544492  1.0000
  H   H1        1.0  0.33424801021745054  0.4907966085763817  0.787469578451862  1.0000
  H   H2        1.0  0.5531151580704474  0.7324686371108059  0.9453394191007046  1.0000
  H   H3        1.0  0.4507479263525198  0.26616602903118297  0.9481749449069097  1.0000
  H   H4        1.0  0.5491904400757762  0.7339817226398182  0.05181324343133298  1.0000
  H   H5        1.0  0.6216604880118483  0.9756507874165194  0.4965572038890115  1.0000
  H   H6        1.0  0.3783482747735293  0.024323778010504803  0.5034462450352419  1.0000
  H   H7        1.0  0.9078461371561416  0.4322662736608222  0.5703596089918219  1.0000
  H   H8        1.0  0.005669081455358989  0.3511034764772917  0.6408190290041913  1.0000
  H   H9        1.0  0.07076036625683461  0.46056833945691983  0.6375503299118959  1.0000
  H   H10       1.0  0.12562240010207398  0.35562418757214687  0.6008130298743523  1.0000
  H   H11       1.0  0.09216203108470472  0.5677644035618526  0.4296484227781362  1.0000
  H   H12       1.0  0.6657461753597573  0.5092111296915293  0.21253747786325758  1.0000
  H   H13       1.0  0.9943433480878171  0.648890538985917  0.35917423180381286  1.0000
  H   H14       1.0  0.8743749679792928  0.644325387880826  0.399160361743256  1.0000
  H   H15       1.0  0.929315952292093  0.5393921942945566  0.362442602269553  1.0000
  H   H16       1.0  0.33321073634217413  0.49130704955678783  0.681876804586224  1.0000
  H   H17       1.0  0.6667899878541023  0.5086409296276669  0.3181289269454694  1.0000
  H   H18       1.0  0.6714648456876021  0.5062140727989188  0.6766055840075819  1.0000
  H   H19       1.0  0.32852050643560204  0.49383116116436543  0.32339570943718593  1.0000
  H   H20       1.0  0.6736955575516675  0.5059771740665014  0.7821882065177801  1.0000
  H   H21       1.0  0.32629274045417844  0.4941364158923847  0.21781001617384985  1.0000
  H   H22       1.0  0.44686450697957275  0.2676342117566719  0.05465855646643548  1.0000
  C   C1        1.0  0.5411878291819647  0.3131408432432679  0.4990893921818581  1.0000
  C   C2        1.0  0.40173589269760157  0.4975431494559359  0.2985741099342646  1.0000
  C   C3        1.0  0.5994321395928778  0.5022692045241044  0.7599867121002857  1.0000
  C   C4        1.0  0.4005612923544035  0.49782061228107477  0.24001059643111222  1.0000
  C   C5        1.0  0.5040331649975442  0.4981072862145695  0.7903577448488048  1.0000
  C   C6        1.0  0.49596245540218586  0.501959448054336  0.2096496451261699  1.0000
  C   C7        1.0  0.44865249582099415  0.7908760453528458  0.5012593921775021  1.0000
  C   C8        1.0  0.5513751655530824  0.20910056194995258  0.4987449608202608  1.0000
  C   C9        1.0  0.45314412775984186  0.9786952953535816  0.5013053244647309  1.0000
  C   C10       1.0  0.5468740549512034  0.02128929762908169  0.4986958326798997  1.0000
  C   C11       1.0  0.550870554574729  0.1215468939528748  0.4986744926833777  1.0000
  C   C12       1.0  0.45883571546993124  0.686836522208395  0.5009116712502504  1.0000
  C   C13       1.0  0.4491480707591792  0.8784326557324819  0.5013275028534635  1.0000
  C   C14       1.0  0.9707112717388071  0.5266877177946655  0.4798260138641836  1.0000
  C   C15       1.0  0.029307554484795204  0.4733170287808619  0.5201730066249225  1.0000
  C   C16       1.0  0.5017520436345535  0.4985870495900711  0.6100321774123854  1.0000
  C   C17       1.0  0.49824354624457357  0.501392639618018  0.3899694106096943  1.0000
  C   C18       1.0  0.14090495738481212  0.47069078493654365  0.5137112889374149  1.0000
  C   C19       1.0  0.8591015367461098  0.5293090062193072  0.4862858650664562  1.0000
  C   C20       1.0  0.515401919698718  0.5886259125188288  0.12115570231048878  1.0000
  C   C21       1.0  0.48458283920071205  0.41149272653269964  0.8788446859484367  1.0000
  C   C22       1.0  0.476369962975035  0.41461101426500574  0.12219243242359566  1.0000
  C   C23       1.0  0.4078351133120536  0.4942117233121337  0.762897961972868  1.0000
  C   C24       1.0  0.5235971199647195  0.5855026670315624  0.8778141852743385  1.0000
  C   C25       1.0  0.47884707003208155  0.41544286922712814  0.05975843752861458  1.0000
  C   C26       1.0  0.5211036379026056  0.5846960925285103  0.9402488838927139  1.0000
  C   C27       1.0  0.4988724309517991  0.5004667356537382  0.029999137356099895  1.0000
  C   C28       1.0  0.501046425952211  0.4996659146152568  0.9700142612886463  1.0000
  C   C29       1.0  0.5167631751204453  0.5863018583882751  0.0587232330014658  1.0000
  C   C30       1.0  0.48315627332667793  0.4138294009167184  0.9412779527273681  1.0000
  C   C31       1.0  0.4618066620609511  0.3320202189748258  0.030583273682644588  1.0000
  C   C32       1.0  0.5381358280553457  0.6681195465294891  0.9694157858411071  1.0000
  C   C33       1.0  0.46402694068944333  0.33119454647923163  0.9714732339705703  1.0000
  C   C34       1.0  0.5921623980688865  0.5058298480757273  0.23710142279891494  1.0000
  C   C35       1.0  0.535916361434232  0.6689344346691469  0.028522454836362992  1.0000
  C   C36       1.0  0.051012810679090095  0.3970302183897942  0.6135022438269928  1.0000
  C   C37       1.0  0.9490075395869512  0.6029529761100321  0.3864862499016508  1.0000
  C   C38       1.0  0.40724272517430643  0.4942582636537765  0.7043464319539294  1.0000
  C   C39       1.0  0.5927628469938641  0.5057329067967657  0.2956486442133154  1.0000
  C   C40       1.0  0.5023948610362794  0.4983465537595111  0.673189445166031  1.0000
  C   C41       1.0  0.4976107325986803  0.5016560996700575  0.3268127724895462  1.0000
  C   C42       1.0  0.5982635411143847  0.5025041637273376  0.7014260743492782  1.0000
  N   N1        1.0  0.49564756049478126  0.5018044193762776  0.14885822408924546  1.0000
  N   N2        1.0  0.5043403639843262  0.49830768547189314  0.8511513687393942  1.0000
  N   N3        1.0  0.7679679768748927  0.5271941234891954  0.49454387762222735  1.0000
  N   N4        1.0  0.23203960489214384  0.4727934175463986  0.5054557931534234  1.0000
  N   N5        1.0  0.9879639206174247  0.422198179815453  0.5641609710613763  1.0000
  N   N6        1.0  0.012042865339672906  0.5778282129955628  0.43584119993786874  1.0000
  O   O1        1.0  0.6262207998181494  0.3566659398199903  0.4980300144999673  1.0000
  O   O2        1.0  0.4696331908589144  0.3388052535426879  0.852057287443891  1.0000
  O   O3        1.0  0.45927818022155253  0.3427087361676654  0.14985986475554816  1.0000
  O   O4        1.0  0.540716673172277  0.657401942095781  0.8501369749324892  1.0000
  O   O5        1.0  0.37380092162574396  0.6433171538760475  0.5019803350518046  1.0000
  O   O6        1.0  0.4456959424479763  0.3513002300856626  0.5004710168190697  1.0000
  O   O7        1.0  0.5543286936065428  0.6486800482850299  0.499520344686992  1.0000
  O   O8        1.0  0.5912635746625908  0.5012186277862868  0.584355347372657  1.0000
  O   O9        1.0  0.4087307022246593  0.49878696544060835  0.4156483430111279  1.0000
  O   O10       1.0  0.4117245542130874  0.49618075434329273  0.5870025600689316  1.0000
  O   O11       1.0  0.5882740336779833  0.5037715852898116  0.41299605370192427  1.0000
  O   O12       1.0  0.5303647927204339  0.6612930894461685  0.14795928337438363  1.0000
