data_image0
_chemical_formula_structural       Sr2H36C32N4O22
_chemical_formula_sum              "Sr2 H36 C32 N4 O22"
_cell_length_a       7.853016213395911
_cell_length_b       11.000615323395408
_cell_length_c       14.938809066653588
_cell_angle_alpha    112.51352528261867
_cell_angle_beta     94.68927659308794
_cell_angle_gamma    93.40732201551687

_space_group_name_H-M_alt    "P 1"
_space_group_IT_number       1

loop_
  _space_group_symop_operation_xyz
  'x, y, z'

loop_
  _atom_site_type_symbol
  _atom_site_label
  _atom_site_symmetry_multiplicity
  _atom_site_fract_x
  _atom_site_fract_y
  _atom_site_fract_z
  _atom_site_occupancy
  Sr  Sr1       1.0  0.7630589764334773  0.5776964171089605  0.015536257869897077  1.0000
  Sr  Sr2       1.0  0.23706905302875478  0.4224257894019417  0.9845038929857708  1.0000
  H   H1        1.0  0.004906218223020197  0.29151031512498093  0.18578935539613187  1.0000
  H   H2        1.0  0.49046166421096155  0.11877125257157677  0.8102656658374343  1.0000
  H   H3        1.0  0.9943347847620103  0.7081737259278711  0.8140917773520826  1.0000
  H   H4        1.0  0.509961973898065  0.8813086523482383  0.18979190159937084  1.0000
  H   H5        1.0  0.13047833654724883  0.4449792941944467  0.22157261257654437  1.0000
  H   H6        1.0  0.37540088892776424  0.22110211632394797  0.765855577276902  1.0000
  H   H7        1.0  0.8692453283282688  0.554533608557435  0.7783953980273071  1.0000
  H   H8        1.0  0.6248838762855795  0.7788196611741685  0.23411050762561572  1.0000
  H   H9        1.0  0.7928505886016665  0.2588582468267475  0.2881688389539505  1.0000
  H   H10       1.0  0.7018733555686794  0.9859056306820265  0.7138483127476221  1.0000
  H   H11       1.0  0.20641803485001023  0.7410858431247008  0.7117866665856099  1.0000
  H   H12       1.0  0.29860847066800034  0.014191863919137406  0.2862301836406616  1.0000
  H   H13       1.0  0.662100814385802  0.3461843847653299  0.4435939932822991  1.0000
  H   H14       1.0  0.8314251265800932  0.9039303436321332  0.5586346328355347  1.0000
  H   H15       1.0  0.3372153087430476  0.6538830880374533  0.5563674316708216  1.0000
  H   H16       1.0  0.1689447890180205  0.09610942070500533  0.4414029175623213  1.0000
  H   H17       1.0  0.9182073206634485  0.7320430666060389  0.5111209187882579  1.0000
  H   H18       1.0  0.6139284610283015  0.20269273670675864  0.4788767656339772  1.0000
  H   H19       1.0  0.08170266583797312  0.26780028440794723  0.48882098805051305  1.0000
  H   H20       1.0  0.3864420627437894  0.7973376244578319  0.5211287855785046  1.0000
  H   H21       1.0  0.04349588412507192  0.6475930588189415  0.3534694800188589  1.0000
  H   H22       1.0  0.48453245960106966  0.2875344801745003  0.6355989036254998  1.0000
  H   H23       1.0  0.9564749029649423  0.35214216074469123  0.646497037374516  1.0000
  H   H24       1.0  0.515912123222698  0.7125177944365078  0.36444193196861363  1.0000
  H   H25       1.0  0.7941640196004726  0.8439980051844601  0.971202806518214  1.0000
  H   H26       1.0  0.6420699829766859  0.7363395080680277  0.9073052090925344  1.0000
  H   H27       1.0  0.20580819027597383  0.15607751154649924  0.028775513173407312  1.0000
  H   H28       1.0  0.3578654284630216  0.2637405466250301  0.09272604599144076  1.0000
  H   H29       1.0  0.06744976203392383  0.7260393941617596  0.17417515931146008  1.0000
  H   H30       1.0  0.42795198705788806  0.5737812727441636  0.812445509316845  1.0000
  H   H31       1.0  0.9326503736772196  0.2740471434579349  0.8258627529953487  1.0000
  H   H32       1.0  0.5719441391961624  0.4263132108302444  0.18758755538889466  1.0000
  H   H33       1.0  0.9289982873774034  0.8070134107501519  0.23670418169127336  1.0000
  H   H34       1.0  0.5584800568626136  0.5878992911478919  0.7394747225490266  1.0000
  H   H35       1.0  0.07109948201444638  0.19306748537373866  0.7633494656696912  1.0000
  H   H36       1.0  0.4413467643463349  0.412281139378216  0.26056198407493275  1.0000
  C   C1        1.0  0.8947236865839017  0.43224464257480133  0.13638028365136282  1.0000
  C   C2        1.0  0.6055641920434526  0.3171515800102683  0.8568046713448966  1.0000
  C   C3        1.0  0.1051529953895454  0.5677535766755143  0.8636099265042745  1.0000
  C   C4        1.0  0.3946107047461068  0.6829750547836043  0.14318434065545926  1.0000
  C   C5        1.0  0.998992542031047  0.3991983908531085  0.21433517000497918  1.0000
  C   C6        1.0  0.5047692009578738  0.19343033489943914  0.7784616046029457  1.0000
  C   C7        1.0  0.0006202236295465077  0.6005542012499421  0.7856249052424148  1.0000
  C   C8        1.0  0.49558288301243886  0.8066158308676704  0.22155765278014883  1.0000
  C   C9        1.0  0.92617346041294  0.44768124399576703  0.309767373053731  1.0000
  C   C10       1.0  0.5845792174231759  0.14259363021614044  0.6854600876141035  1.0000
  C   C11       1.0  0.07340314084459007  0.5521071800693775  0.6901804163792633  1.0000
  C   C12       1.0  0.4158226366736101  0.8574777750999658  0.3145721920223536  1.0000
  C   C13       1.0  0.8189498594460716  0.3630732516381486  0.3360262520914433  1.0000
  C   C14       1.0  0.6837640728499466  0.035034337471032004  0.6632233279028128  1.0000
  C   C15       1.0  0.18043417861442632  0.6368310747142445  0.6639018143262305  1.0000
  C   C16       1.0  0.31665723853449634  0.9650374419653788  0.33682047927400305  1.0000
  C   C17       1.0  0.7458456611554638  0.4105121747329434  0.42287406249619863  1.0000
  C   C18       1.0  0.7573688810596977  0.9885276708657927  0.5764462948409419  1.0000
  C   C19       1.0  0.2536070485237047  0.5895011950504812  0.5770722800842665  1.0000
  C   C20       1.0  0.24301841115141803  0.011508330453807504  0.42359213121301315  1.0000
  C   C21       1.0  0.7813400729805196  0.5437426161830744  0.4846264528063173  1.0000
  C   C22       1.0  0.7323110390469267  0.05115480813901741  0.5115554719591486  1.0000
  C   C23       1.0  0.2183256501385741  0.4562524970034262  0.5153487238832781  1.0000
  C   C24       1.0  0.26804217676437486  0.948858838014978  0.4884584113423855  1.0000
  C   C25       1.0  0.8886925652301373  0.6299113681575933  0.46059181877461713  1.0000
  C   C26       1.0  0.6354380838837413  0.15918676470896295  0.5323482078880133  1.0000
  C   C27       1.0  0.11113132747438212  0.3699750763498031  0.5393845167639527  1.0000
  C   C28       1.0  0.36494689094860894  0.8408549847595097  0.4676828966924234  1.0000
  C   C29       1.0  0.959571614338955  0.5813797609704566  0.3730862329879869  1.0000
  C   C30       1.0  0.5625743704186164  0.20451882348192643  0.6192679130125143  1.0000
  C   C31       1.0  0.04021681403006034  0.41840805259694513  0.626888381561713  1.0000
  C   C32       1.0  0.43783851764711557  0.7955419245788846  0.38076762112706325  1.0000
  N   N1        1.0  0.7077337897477276  0.5932660471474307  0.5764672595083484  1.0000
  N   N2        1.0  0.8032946199499876  0.0012608075138942037  0.4187357216044063  1.0000
  N   N3        1.0  0.29196798361968496  0.40676495940495266  0.42351883548955993  1.0000
  N   N4        1.0  0.19700735944020661  0.9987101748940648  0.5812810992022791  1.0000
  O   O1        1.0  0.9592468470653799  0.41124727115924753  0.05707918703115676  1.0000
  O   O2        1.0  0.5313943401666776  0.3758622471126076  0.9319466519157446  1.0000
  O   O3        1.0  0.04080347582462454  0.5888970545456973  0.9429722043074378  1.0000
  O   O4        1.0  0.46870348467462003  0.6242503563198556  0.06800966809674247  1.0000
  O   O5        1.0  0.7535353480781171  0.48228795583097667  0.15408143443204383  1.0000
  O   O6        1.0  0.7534284185337511  0.35742266793021576  0.8450009170373747  1.0000
  O   O7        1.0  0.24632849152227018  0.5177092218734176  0.8458559711639853  1.0000
  O   O8        1.0  0.2467279259494433  0.642762738466857  0.15498594299268123  1.0000
  O   O9        1.0  0.628698740857679  0.5115985742518775  0.6019447133896776  1.0000
  O   O10       1.0  0.8633263996359161  0.8916439096880496  0.39291144105662573  1.0000
  O   O11       1.0  0.371006512574823  0.4884675657697743  0.39808130640567907  1.0000
  O   O12       1.0  0.1369576337025222  0.10832209568626892  0.6071108120373339  1.0000
  O   O13       1.0  0.7259279105725724  0.7142197227411844  0.6264526938057956  1.0000
  O   O14       1.0  0.8005359696480028  0.0689932047026858  0.3684092585581524  1.0000
  O   O15       1.0  0.27385905088864604  0.28581353895727085  0.3735071659754183  1.0000
  O   O16       1.0  0.19973321038381192  0.9309476058218707  0.6315850150274971  1.0000
  O   O17       1.0  0.7027115333857308  0.7833793234734899  0.9748051983241128  1.0000
  O   O18       1.0  0.2972871323455379  0.21670381166700287  0.025201851507716828  1.0000
  O   O19       1.0  0.9511141208707273  0.7565526804322716  0.16979599272281123  1.0000
  O   O20       1.0  0.5453988261941589  0.60897915406688  0.8081960292976974  1.0000
  O   O21       1.0  0.0489445434033797  0.2434787376819969  0.8302582609555884  1.0000
  O   O22       1.0  0.4544801654685315  0.39112788848159147  0.19183319568032436  1.0000
