data_image0
_chemical_formula_structural       Cu4H48C40S4O20
_chemical_formula_sum              "Cu4 H48 C40 S4 O20"
_cell_length_a       7.283016710006311
_cell_length_b       12.035206845205984
_cell_length_c       13.65497134420951
_cell_angle_alpha    103.35230864327653
_cell_angle_beta     89.99994155114814
_cell_angle_gamma    90.00013267173898

_space_group_name_H-M_alt    "P 1"
_space_group_IT_number       1

loop_
  _space_group_symop_operation_xyz
  'x, y, z'

loop_
  _atom_site_type_symbol
  _atom_site_label
  _atom_site_symmetry_multiplicity
  _atom_site_fract_x
  _atom_site_fract_y
  _atom_site_fract_z
  _atom_site_occupancy
  Cu  Cu1       1.0  0.964098826838196  0.8527408678537042  0.4519641005707341  1.0000
  Cu  Cu2       1.0  0.4641036635114304  0.6472571684413142  0.5480351783802249  1.0000
  Cu  Cu3       1.0  0.03590799519781739  0.14725927824935783  0.5480358162690564  1.0000
  Cu  Cu4       1.0  0.5358962932290224  0.3527370030396568  0.4519627708201384  1.0000
  H   H1        1.0  0.37532868372324657  0.5250987801208497  0.23983432312295608  1.0000
  H   H2        1.0  0.875336111534274  0.9748991192351754  0.760166447463625  1.0000
  H   H3        1.0  0.6246589155032041  0.47489709929899243  0.7601639792117041  1.0000
  H   H4        1.0  0.1246652182693353  0.0250976237711313  0.23982983640290456  1.0000
  H   H5        1.0  0.31532343289736525  0.49636271506639673  0.05506595322995621  1.0000
  H   H6        1.0  0.8153138449410022  0.0036339611094789  0.9449362032267317  1.0000
  H   H7        1.0  0.6846792699663594  0.5036365834612583  0.9449323236895849  1.0000
  H   H8        1.0  0.18468061958930795  0.9963713248323386  0.05506111462516825  1.0000
  H   H9        1.0  0.9452606375816258  0.7849624681231758  0.12068053365797478  1.0000
  H   H10       1.0  0.44525417321089117  0.7150389467549019  0.8793216525932122  1.0000
  H   H11       1.0  0.05474481140667819  0.2150428114251284  0.8793182475469122  1.0000
  H   H12       1.0  0.5547457835327875  0.284956935874817  0.12067591806211199  1.0000
  H   H13       1.0  0.848317804426358  0.6902648301691484  0.9675432234609501  1.0000
  H   H14       1.0  0.3483130629074934  0.8097372833234646  0.03246209695063134  1.0000
  H   H15       1.0  0.15168489844068486  0.3097370270796346  0.032456314834455186  1.0000
  H   H16       1.0  0.6516841477342155  0.19026459632684836  0.9675323196040608  1.0000
  H   H17       1.0  0.9849315722623259  0.6647450134027083  0.8561156517644121  1.0000
  H   H18       1.0  0.4849267335452295  0.8352581709626822  0.14388614330270139  1.0000
  H   H19       1.0  0.015069757549838397  0.33525770422063067  0.14388259974263917  1.0000
  H   H20       1.0  0.5150677309765256  0.1647411403620964  0.8561092069086769  1.0000
  H   H21       1.0  0.033872499287255685  0.7848040187598216  0.9576450734990514  1.0000
  H   H22       1.0  0.5338664977674624  0.7151950768097141  0.04235835403869005  1.0000
  H   H23       1.0  0.966132949694682  0.21519868606336698  0.042356104716816396  1.0000
  H   H24       1.0  0.4661279667530778  0.28480422811347245  0.9576384595274304  1.0000
  H   H25       1.0  0.40430764215443565  0.8996445314144311  0.308188605819673  1.0000
  H   H26       1.0  0.9043111599230683  0.6003602455458008  0.691812836387065  1.0000
  H   H27       1.0  0.5956923145907352  0.10035390033403503  0.6918124212436182  1.0000
  H   H28       1.0  0.09569840824015328  0.3996475895258698  0.30818793787039306  1.0000
  H   H29       1.0  0.48992171883164554  0.8504356277747079  0.41417201123823577  1.0000
  H   H30       1.0  0.9899255795794701  0.6495718338051334  0.5858306650684995  1.0000
  H   H31       1.0  0.5100782379136106  0.1495636515461456  0.5858306557459584  1.0000
  H   H32       1.0  0.010085361641848999  0.35043685204072966  0.4141710174322739  1.0000
  H   H33       1.0  0.6229476879166852  0.8238031231498439  0.30015991286659016  1.0000
  H   H34       1.0  0.12295511841384149  0.676202084436099  0.6998439905763049  1.0000
  H   H35       1.0  0.37704952271769787  0.17619871809092297  0.699843283816527  1.0000
  H   H36       1.0  0.8770626880866246  0.323801477570946  0.300156632526388  1.0000
  H   H37       1.0  0.6292926856835095  0.042730397419362  0.23009702893476455  1.0000
  H   H38       1.0  0.1292899741520444  0.4572702814689082  0.7699046062644753  1.0000
  H   H39       1.0  0.3707031518935651  0.9572722913927765  0.7699078076694761  1.0000
  H   H40       1.0  0.8707058634234526  0.5427290106520959  0.23009513401089518  1.0000
  H   H41       1.0  0.8324092456385942  0.9639656067033968  0.25283864493562186  1.0000
  H   H42       1.0  0.3324037625260061  0.5360347850490683  0.7471641323799502  1.0000
  H   H43       1.0  0.1675907111106838  0.0360370821117755  0.7471661916679649  1.0000
  H   H44       1.0  0.6675934481048812  0.4639628023257885  0.2528345230855038  1.0000
  H   H45       1.0  0.8191083266096088  0.1166116165804567  0.3019493831357138  1.0000
  H   H46       1.0  0.3191109742070423  0.3833876398953322  0.6980503751022056  1.0000
  H   H47       1.0  0.1808902570771167  0.883388503910183  0.6980563871243319  1.0000
  H   H48       1.0  0.6808821172515492  0.6166090999041174  0.3019466404430061  1.0000
  C   C1        1.0  0.2534699901803634  0.6861467713819993  0.3894593108884195  1.0000
  C   C2        1.0  0.7534771162744107  0.813845815330467  0.6105426341563174  1.0000
  C   C3        1.0  0.7465231012777096  0.3138508127890347  0.610540076255063  1.0000
  C   C4        1.0  0.24652833269242075  0.1861466450057919  0.3894556935882179  1.0000
  C   C5        1.0  0.19732298669215712  0.6700501820943432  0.28394135172978  1.0000
  C   C6        1.0  0.6973258740468039  0.8299397441231451  0.7160637398918651  1.0000
  C   C7        1.0  0.8026687317027522  0.3299448305513693  0.7160597007475358  1.0000
  C   C8        1.0  0.3026782018627117  0.1700535637844922  0.28393622777378613  1.0000
  C   C9        1.0  0.2820130757495177  0.5814479011016402  0.21188595470499652  1.0000
  C   C10       1.0  0.782023011354333  0.9185464387351561  0.7881156027006994  1.0000
  C   C11       1.0  0.717980015709955  0.4185513846157606  0.7881152489255498  1.0000
  C   C12       1.0  0.2179796915048513  0.0814502946697644  0.21188287619771978  1.0000
  C   C13       1.0  0.25000579081230967  0.5650010856744174  0.11003416729884208  1.0000
  C   C14       1.0  0.7499950182643643  0.935000902447598  0.8899667943707283  1.0000
  C   C15       1.0  0.7499955389947174  0.434999063625405  0.8899650178644477  1.0000
  C   C16       1.0  0.2500035654284645  0.0649992500509953  0.1100316591156343  1.0000
  C   C17       1.0  0.1293196934356473  0.6402127502112762  0.07641485339762259  1.0000
  C   C18       1.0  0.6293182202828902  0.8597856253441519  0.9235898305194324  1.0000
  C   C19       1.0  0.8706788902585813  0.3597891038336839  0.9235854165758041  1.0000
  C   C20       1.0  0.37068722868795584  0.14021024448642552  0.07641066684449528  1.0000
  C   C21       1.0  0.04000240032163301  0.726764361629293  0.1449828843070051  1.0000
  C   C22       1.0  0.5400007454441038  0.7732355873292391  0.855022912875384  1.0000
  C   C23       1.0  0.9600003025480246  0.2732392035674422  0.8550170071207288  1.0000
  C   C24       1.0  0.45999783824488105  0.22676285081981012  0.1449766508333852  1.0000
  C   C25       1.0  0.0698333867167378  0.7434129098725464  0.2503484022712286  1.0000
  C   C26       1.0  0.5698249839725095  0.7565819687069678  0.7496541309792873  1.0000
  C   C27       1.0  0.9301706892043881  0.25658638865611044  0.7496498746480923  1.0000
  C   C28       1.0  0.43016810748556367  0.2434156154640732  0.250345256164195  1.0000
  C   C29       1.0  0.9873055731619117  0.6953593298737676  0.9378192244985968  1.0000
  C   C30       1.0  0.48729801901868086  0.8046404324823795  0.06218405858006541  1.0000
  C   C31       1.0  0.0126971297089682  0.3046442417245673  0.0621792035743951  1.0000
  C   C32       1.0  0.5126964455037778  0.1953597296155749  0.9378121998748482  1.0000
  C   C33       1.0  0.5279198190784555  0.8828918739484166  0.3483744281581735  1.0000
  C   C34       1.0  0.027923008661275596  0.6171140574692731  0.6516274870944088  1.0000
  C   C35       1.0  0.47208151072621257  0.11710911012060883  0.6516293236354969  1.0000
  C   C36       1.0  0.9720865595006315  0.38289292362841826  0.3483731105968886  1.0000
  C   C37       1.0  0.7417130801113742  0.0366274530621169  0.2821018486381348  1.0000
  C   C38       1.0  0.2417091022974063  0.46337082602025964  0.7178999527241527  1.0000
  C   C39       1.0  0.2582855035778806  0.9633735278040875  0.7179026348333437  1.0000
  C   C40       1.0  0.7582853622161493  0.5366259009770148  0.28209998953031595  1.0000
  S   S1        1.0  0.6414976100107593  0.0162782463468147  0.3968373781336822  1.0000
  S   S2        1.0  0.14149801043016907  0.4837258599857961  0.6031664227960859  1.0000
  S   S3        1.0  0.35850234673407044  0.9837227249180174  0.6031693003696788  1.0000
  S   S4        1.0  0.8584992002066584  0.5162759940581553  0.396833847177561  1.0000
  O   O1        1.0  0.16544607427260868  0.7501320248282327  0.4633484698592198  1.0000
  O   O2        1.0  0.66546408882526  0.7498553182088019  0.5366502487982386  1.0000
  O   O3        1.0  0.8345525094235385  0.2498706863915032  0.5366512450030001  1.0000
  O   O4        1.0  0.33453724097512344  0.2501397136487498  0.4633464136133297  1.0000
  O   O5        1.0  0.40030602042470786  0.6350533655906646  0.40669780592732957  1.0000
  O   O6        1.0  0.9003051108776318  0.8649437357199901  0.5932983900726683  1.0000
  O   O7        1.0  0.5996870710254143  0.3649382471641261  0.5932988818982705  1.0000
  O   O8        1.0  0.0997003380903294  0.1350478834454734  0.40669683439622156  1.0000
  O   O9        1.0  0.9789251752263295  0.8273884867829937  0.3094709383994497  1.0000
  O   O10       1.0  0.47891338606666517  0.6726052630229803  0.6905362331282278  1.0000
  O   O11       1.0  0.0210912582122944  0.17261335767269514  0.6905315266032374  1.0000
  O   O12       1.0  0.5210824515031546  0.32739230514609124  0.30946681240165924  1.0000
  O   O13       1.0  0.11091308567306869  0.6220414504626746  0.974473416531957  1.0000
  O   O14       1.0  0.6109049207698617  0.8779603235186288  0.025529784482877498  1.0000
  O   O15       1.0  0.8890909902597527  0.3779646862593894  0.02552480956194361  1.0000
  O   O16       1.0  0.3890950359752239  0.12203726065745715  0.9744696026595108  1.0000
  O   O17       1.0  0.7959887654604999  0.9886916779331896  0.4642501844490282  1.0000
  O   O18       1.0  0.2959931589561862  0.5113137841129286  0.5357536638651652  1.0000
  O   O19       1.0  0.20401256434234233  0.0113092965334474  0.5357557623767448  1.0000
  O   O20       1.0  0.7040067977942215  0.4886880635314484  0.4642480694627835  1.0000
