data_image0
_chemical_formula_structural       Zn4H72C120N4O16
_chemical_formula_sum              "Zn4 H72 C120 N4 O16"
_cell_length_a       15.69183598134467
_cell_length_b       15.801135757846847
_cell_length_c       15.801126602912205
_cell_angle_alpha    118.40833704613354
_cell_angle_beta     92.28659680484517
_cell_angle_gamma    92.28665460483742

_space_group_name_H-M_alt    "P 1"
_space_group_IT_number       1

loop_
  _space_group_symop_operation_xyz
  'x, y, z'

loop_
  _atom_site_type_symbol
  _atom_site_label
  _atom_site_symmetry_multiplicity
  _atom_site_fract_x
  _atom_site_fract_y
  _atom_site_fract_z
  _atom_site_occupancy
  Zn  Zn1       1.0  0.9333035279800582  0.06124374671144752  0.051342995523739894  1.0000
  Zn  Zn2       1.0  0.5666958897848813  0.9486577464765563  0.9387561336976589  1.0000
  Zn  Zn3       1.0  0.0666959278530541  0.9387560845190637  0.9486569576275059  1.0000
  Zn  Zn4       1.0  0.4333042466295325  0.05134280422932853  0.061243554469307106  1.0000
  H   H1        1.0  0.9346444726072107  0.19487671264278117  0.25839376583754614  1.0000
  H   H2        1.0  0.5653543906327625  0.7416058445403594  0.8051230792635025  1.0000
  H   H3        1.0  0.06535498322589463  0.8051231185877302  0.7416061873137066  1.0000
  H   H4        1.0  0.4346450652003425  0.25839398669015173  0.19487687388774333  1.0000
  H   H5        1.0  0.8375218801913957  0.3087943991724701  0.3758945352839049  1.0000
  H   H6        1.0  0.662477842362996  0.6241059625428849  0.6912061350334893  1.0000
  H   H7        1.0  0.16247757564171647  0.6912054320580411  0.6241054178673408  1.0000
  H   H8        1.0  0.3375222512539083  0.375893868719949  0.3087938435041194  1.0000
  H   H9        1.0  0.6606128731601543  0.24520121811250561  0.13299694202687815  1.0000
  H   H10       1.0  0.8393866904860798  0.8670030755295528  0.754800459695552  1.0000
  H   H11       1.0  0.3393866682665063  0.7548000536889677  0.8670030640491221  1.0000
  H   H12       1.0  0.1606133603347715  0.1329960346053696  0.24519917554665935  1.0000
  H   H13       1.0  0.7636034795946856  0.1321993520509537  0.026341202946163402  1.0000
  H   H14       1.0  0.7363962080378099  0.9736594141319943  0.8678022646122515  1.0000
  H   H15       1.0  0.23639606183052553  0.867801921435394  0.9736594367958914  1.0000
  H   H16       1.0  0.26360452336434986  0.026340415478287606  0.13219710564567316  1.0000
  H   H17       1.0  0.6763097554213999  0.38124362207213386  0.5249228834695288  1.0000
  H   H18       1.0  0.823689883282121  0.47507725273319334  0.6187569331576412  1.0000
  H   H19       1.0  0.3236890626279062  0.6187562091260618  0.47507704429535375  1.0000
  H   H20       1.0  0.17631016753873754  0.5249218574017223  0.38124270208457034  1.0000
  H   H21       1.0  0.6773049864446106  0.40988896792463003  0.693744971811121  1.0000
  H   H22       1.0  0.8226943926019884  0.30625562606518036  0.5901113400114184  1.0000
  H   H23       1.0  0.32269446938849466  0.5901108633058815  0.3062549813401247  1.0000
  H   H24       1.0  0.17730570101637258  0.6937442035127788  0.4098880048601429  1.0000
  H   H25       1.0  0.5664532003630783  0.505089102795175  0.8010067017669017  1.0000
  H   H26       1.0  0.9335463316822512  0.19899439184153075  0.4949117258961522  1.0000
  H   H27       1.0  0.43354693604987915  0.4949114495955771  0.19899362006611906  1.0000
  H   H28       1.0  0.06645312415085411  0.8010054393889805  0.5050882272551008  1.0000
  H   H29       1.0  0.45306911674300915  0.5710755381850136  0.7396469501648397  1.0000
  H   H30       1.0  0.046929680359873785  0.26035280418352613  0.4289238759601446  1.0000
  H   H31       1.0  0.5469303390886466  0.4289242947303791  0.2603536366524608  1.0000
  H   H32       1.0  0.9530697326771858  0.739646305919074  0.5710757338957039  1.0000
  H   H33       1.0  0.7337992540731406  0.8410096511288148  0.019893511454057537  1.0000
  H   H34       1.0  0.7662011192754647  0.9801067219032977  0.15898956915494017  1.0000
  H   H35       1.0  0.26620083954376367  0.15899018013401908  0.9801064670835585  1.0000
  H   H36       1.0  0.23379961212669534  0.019893107706991507  0.8410098011029844  1.0000
  H   H37       1.0  0.6587691581312355  0.6940965090066485  0.006577001323570567  1.0000
  H   H38       1.0  0.841230072054607  0.9934225599268633  0.3059027814298362  1.0000
  H   H39       1.0  0.34123029770186963  0.3059033222238627  0.9934229518276821  1.0000
  H   H40       1.0  0.15876934098245235  0.006576550175736901  0.6940968284260052  1.0000
  H   H41       1.0  0.8525157766652213  0.5223155070363463  0.8270762314999516  1.0000
  H   H42       1.0  0.6474842248564342  0.17292346122746247  0.4776846458179378  1.0000
  H   H43       1.0  0.1474843169531397  0.47768432254161325  0.1729231133716028  1.0000
  H   H44       1.0  0.35251523097812754  0.8270763683181744  0.5223146736672462  1.0000
  H   H45       1.0  0.9292184988738936  0.6720712768479443  0.845547326148946  1.0000
  H   H46       1.0  0.57078204380457  0.1544534841919187  0.32792924053243405  1.0000
  H   H47       1.0  0.0707816375376069  0.3279292772276818  0.15445362935012943  1.0000
  H   H48       1.0  0.42921804981379097  0.8455463453860407  0.6720701043391202  1.0000
  H   H49       1.0  0.7466470122810945  0.4440742474049558  0.8648052727896739  1.0000
  H   H50       1.0  0.7533528809261509  0.13519324305294594  0.5559248717605172  1.0000
  H   H51       1.0  0.2533524435534673  0.5559255821406809  0.135194046695517  1.0000
  H   H52       1.0  0.24664848825980806  0.8648065865896585  0.4440745238837778  1.0000
  H   H53       1.0  0.6315331163487486  0.5659217935620975  0.02668391020254998  1.0000
  H   H54       1.0  0.8684669511972842  0.9733148908691336  0.4340773605180814  1.0000
  H   H55       1.0  0.36846633948727  0.43407803429866487  0.9733147756165862  1.0000
  H   H56       1.0  0.1315337374088301  0.026684217613230005  0.5659216664444457  1.0000
  H   H57       1.0  0.5345960769986745  0.4779040159444252  0.07180411290108425  1.0000
  H   H58       1.0  0.9654035370845475  0.9281965260223901  0.5220958003713392  1.0000
  H   H59       1.0  0.4654028266398241  0.522097260879356  0.9281977687867169  1.0000
  H   H60       1.0  0.034597151523016095  0.07180258077509903  0.4779025929251262  1.0000
  H   H61       1.0  0.48610082680565364  0.3267696988206624  0.07475573123424084  1.0000
  H   H62       1.0  0.013899579209898118  0.925244235936859  0.6732302515087198  1.0000
  H   H63       1.0  0.5138987146181008  0.6732315763505597  0.9252455421738758  1.0000
  H   H64       1.0  0.9861010238041104  0.07475343028966824  0.3267680888629911  1.0000
  H   H65       1.0  0.6799832060279412  0.1757317561036587  0.8863476074988411  1.0000
  H   H66       1.0  0.8200171779310563  0.11365195270154521  0.8242678371594465  1.0000
  H   H67       1.0  0.32001565481741767  0.8242687962224483  0.11365266356143883  1.0000
  H   H68       1.0  0.17998478624410552  0.8863471541605891  0.1757306069097524  1.0000
  H   H69       1.0  0.7295861449089924  0.3242845261414118  0.8822273191233593  1.0000
  H   H70       1.0  0.7704135374649326  0.11777257934248554  0.6757149248664689  1.0000
  H   H71       1.0  0.2704133965147618  0.6757167490298104  0.11777395428475772  1.0000
  H   H72       1.0  0.22958715114118172  0.8822265291398851  0.32428410209605113  1.0000
  C   C1        1.0  0.8734179138963043  0.20902672520104207  0.23433312363383146  1.0000
  C   C2        1.0  0.6265808121165506  0.7656676433013135  0.790973673019991  1.0000
  C   C3        1.0  0.1265815419353515  0.7909731077143435  0.765667463183476  1.0000
  C   C4        1.0  0.37341864371655487  0.23433218792919774  0.20902628013125482  1.0000
  C   C5        1.0  0.8196483827940425  0.272134162662944  0.29897124510630146  1.0000
  C   C6        1.0  0.6803502999363145  0.7010287723205483  0.7278662954886741  1.0000
  C   C7        1.0  0.18035107303906275  0.7278656685675674  0.7010287080449443  1.0000
  C   C8        1.0  0.3196491558967907  0.29897105890996306  0.2721336576625717  1.0000
  C   C9        1.0  0.7406694580810509  0.28620662389597845  0.2635241037544134  1.0000
  C   C10       1.0  0.7593305970307681  0.7364757178894196  0.7137950928082687  1.0000
  C   C11       1.0  0.2593294027643082  0.7137939284301353  0.7364761673058736  1.0000
  C   C12       1.0  0.24066949658323006  0.26352411674316306  0.28620615306145675  1.0000
  C   C13       1.0  0.7209583331722341  0.2365578658346905  0.16322315724409717  1.0000
  C   C14       1.0  0.7790411546940772  0.8367780887716236  0.7634428458934933  1.0000
  C   C15       1.0  0.2790417604432136  0.7634419671130177  0.8367774549595808  1.0000
  C   C16       1.0  0.22095893892283408  0.16322174249121701  0.2365571326441156  1.0000
  C   C17       1.0  0.7781297825835409  0.1738827926833865  0.10389002143470091  1.0000
  C   C18       1.0  0.7218695096898315  0.8961101526913356  0.8261167610260644  1.0000
  C   C19       1.0  0.22186963045351862  0.8261163174192065  0.8961095884211403  1.0000
  C   C20       1.0  0.2781311789148262  0.10388895747590254  0.17388289960251768  1.0000
  C   C21       1.0  0.6813329742997282  0.3454602988933645  0.3261962799437015  1.0000
  C   C22       1.0  0.8186652420679151  0.6738086800103036  0.6545492837566868  1.0000
  C   C23       1.0  0.3186679282851799  0.654542416913465  0.6738050971619032  1.0000
  C   C24       1.0  0.18133357597557154  0.32619115792738285  0.34545317867242176  1.0000
  C   C25       1.0  0.6270586699617127  0.3929565092869113  0.37871275905926177  1.0000
  C   C26       1.0  0.8729473688436684  0.6212842792221454  0.6070469945801732  1.0000
  C   C27       1.0  0.37294231821820734  0.6070476454060059  0.6212880373050353  1.0000
  C   C28       1.0  0.12705336255849886  0.37871555038814364  0.3929523756777513  1.0000
  C   C29       1.0  0.564020388235022  0.44630969862997477  0.438966675791626  1.0000
  C   C30       1.0  0.9359791828356876  0.5610360760618535  0.5536956264199303  1.0000
  C   C31       1.0  0.43597987656463016  0.5536930188294067  0.5610353095936631  1.0000
  C   C32       1.0  0.0640196352121691  0.4389637568212165  0.4463049350110068  1.0000
  C   C33       1.0  0.5647087192433915  0.4612230540081655  0.5353389917150722  1.0000
  C   C34       1.0  0.9352913766906494  0.4646616000271423  0.5387782018819535  1.0000
  C   C35       1.0  0.4352908221832763  0.5387782177933077  0.46466101436092094  1.0000
  C   C36       1.0  0.0647080791439123  0.5353382295184943  0.46122111760323736  1.0000
  C   C37       1.0  0.6279554823868096  0.4230608510440207  0.5723906440324882  1.0000
  C   C38       1.0  0.872044848274399  0.42760909880215087  0.5769403086791769  1.0000
  C   C39       1.0  0.37204401624379796  0.5769396996295344  0.4276090187481074  1.0000
  C   C40       1.0  0.12795524534396205  0.5723907307758155  0.4230590361923845  1.0000
  C   C41       1.0  0.6281151240293353  0.4386967071826292  0.6658185730706022  1.0000
  C   C42       1.0  0.8718842679305253  0.334180530722904  0.5613033825645317  1.0000
  C   C43       1.0  0.3718843318052265  0.5613031223630075  0.3341807464145888  1.0000
  C   C44       1.0  0.1281151451065341  0.6658185793796892  0.4386962272913095  1.0000
  C   C45       1.0  0.5647234188044977  0.49281283808267795  0.7269647297453474  1.0000
  C   C46       1.0  0.9352768089325494  0.2730350430081431  0.5071869209772331  1.0000
  C   C47       1.0  0.4352767604059622  0.507188433751118  0.27303530171702317  1.0000
  C   C48       1.0  0.06472324189121538  0.7269640637570236  0.4928114469328618  1.0000
  C   C49       1.0  0.5022144563329503  0.5298225847122566  0.6931380327194745  1.0000
  C   C50       1.0  0.9977848957111345  0.3068619130282925  0.47017678915438665  1.0000
  C   C51       1.0  0.497785637283961  0.4701772465505771  0.3068619458181416  1.0000
  C   C52       1.0  0.0022145601219705096  0.6931379182022188  0.5298231639968664  1.0000
  C   C53       1.0  0.5002053063431829  0.5155437682191321  0.597019446783456  1.0000
  C   C54       1.0  0.9997943910046274  0.40298038058305263  0.4844553071238166  1.0000
  C   C55       1.0  0.49979423508348475  0.4844575035823412  0.4029805592925442  1.0000
  C   C56       1.0  0.00020574540978660468  0.597020170122825  0.515544381043142  1.0000
  C   C57       1.0  0.8898437488247806  0.8550047680354571  0.9548576331189976  1.0000
  C   C58       1.0  0.6101573852601662  0.04514292335348811  0.1449953388614134  1.0000
  C   C59       1.0  0.11015634479212368  0.1449950632273769  0.0451423454186113  1.0000
  C   C60       1.0  0.3898439839257932  0.9548569062891165  0.8550040567828816  1.0000
  C   C61       1.0  0.8380193779437092  0.76568082414952  0.9365631893862556  1.0000
  C   C62       1.0  0.6619813235871419  0.06343702083614032  0.2343179198883973  1.0000
  C   C63       1.0  0.1619813106594918  0.23431828770259247  0.06343710490838111  1.0000
  C   C64       1.0  0.3380187700297625  0.9365628104266935  0.7656820586492188  1.0000
  C   C65       1.0  0.7602691140986408  0.7710393603781825  0.9794169971290427  1.0000
  C   C66       1.0  0.7397310682400543  0.020583553120118808  0.22896062281478888  1.0000
  C   C67       1.0  0.23973034173446447  0.22896047085232857  0.02058295602220989  1.0000
  C   C68       1.0  0.2602696631606491  0.9794162781750375  0.7710393811091905  1.0000
  C   C69       1.0  0.7181573148644985  0.6881239770364473  0.9710998543920508  1.0000
  C   C70       1.0  0.7818428318384318  0.028900542040574406  0.3118759225884986  1.0000
  C   C71       1.0  0.28184277875241287  0.31187585422639336  0.028900124145565118  1.0000
  C   C72       1.0  0.21815726177847242  0.9710992892222595  0.6881240559491104  1.0000
  C   C73       1.0  0.75208733529481  0.5973274629055612  0.9186622103086322  1.0000
  C   C74       1.0  0.7479124233363379  0.08133727420328545  0.40267184107823784  1.0000
  C   C75       1.0  0.24791335330984046  0.4026716472616771  0.08133745031994984  1.0000
  C   C76       1.0  0.2520869897007145  0.9186618358993076  0.5973277687776033  1.0000
  C   C77       1.0  0.8266263321420695  0.5924034628979132  0.8698748817305599  1.0000
  C   C78       1.0  0.6733740012672981  0.1301261655133246  0.40759589745326247  1.0000
  C   C79       1.0  0.1733737186758759  0.40759565060675135  0.13012602084376823  1.0000
  C   C80       1.0  0.32662609235251944  0.8698736623797674  0.5924028137522369  1.0000
  C   C81       1.0  0.8696916229638347  0.6753445888829931  0.8797673603737124  1.0000
  C   C82       1.0  0.630308951197179  0.12023476755978632  0.32465569870407046  1.0000
  C   C83       1.0  0.13030910843395554  0.32465524578191923  0.12023391088238357  1.0000
  C   C84       1.0  0.3696911852172348  0.8797657831460911  0.6753439894628883  1.0000
  C   C85       1.0  0.7178872321179098  0.5093615169842354  0.9163187275285196  1.0000
  C   C86       1.0  0.7821138126293334  0.0836802418915852  0.49063825677185946  1.0000
  C   C87       1.0  0.28211413706804933  0.4906383126583692  0.08368066811577529  1.0000
  C   C88       1.0  0.21788628098757806  0.9163195893712557  0.5093617217657566  1.0000
  C   C89       1.0  0.6603810901076483  0.5013252181713954  0.9741326727296026  1.0000
  C   C90       1.0  0.8396175840340874  0.025867135194303607  0.498674553180642  1.0000
  C   C91       1.0  0.3396177707377105  0.49867533415471854  0.025867598330677286  1.0000
  C   C92       1.0  0.16038246678822785  0.9741319732557375  0.5013244483955079  1.0000
  C   C93       1.0  0.6341042239693238  0.4121870256104928  0.9747627956593519  1.0000
  C   C94       1.0  0.8658954829781961  0.025235552976091903  0.5878114881000442  1.0000
  C   C95       1.0  0.3658952746598345  0.5878135267479438  0.02523750078729855  1.0000
  C   C96       1.0  0.1341045250495227  0.9747628326611636  0.4121865365146463  1.0000
  C   C97       1.0  0.5661270363163949  0.41129115780217534  0.03022415640165831  1.0000
  C   C98       1.0  0.9338727841194725  0.9697756437587587  0.5887079755672672  1.0000
  C   C99       1.0  0.4338718245260507  0.5887093978936806  0.9697773819907382  1.0000
  C   C100      1.0  0.0661278616905889  0.030222743595686608  0.4112907080998554  1.0000
  C   C101      1.0  0.5389746092358861  0.3275364632398949  0.03241330924250724  1.0000
  C   C102      1.0  0.9610252671357883  0.967586998228285  0.6724633389183978  1.0000
  C   C103      1.0  0.46102493218495505  0.6724648153010834  0.9675892314977189  1.0000
  C   C104      1.0  0.03897469809442809  0.03241066796591951  0.32753497606694987  1.0000
  C   C105      1.0  0.5794949681161866  0.24190784782927474  0.9800104842680069  1.0000
  C   C106      1.0  0.9205037328930814  0.019991271850408106  0.7580942613332128  1.0000
  C   C107      1.0  0.42050457330465457  0.7580934307117038  0.019992056472219175  1.0000
  C   C108      1.0  0.07949568014252147  0.9800078399370665  0.2419059821886904  1.0000
  C   C109      1.0  0.648099998610327  0.24227138696109315  0.9258416622363013  1.0000
  C   C110      1.0  0.8519001541961015  0.0741580401463509  0.7577290023735799  1.0000
  C   C111      1.0  0.3518994572227853  0.7577284442694182  0.07415829091494439  1.0000
  C   C112      1.0  0.14810117219235508  0.9258410700532097  0.24227068364136534  1.0000
  C   C113      1.0  0.6749423093775063  0.3256253540875634  0.9232674524764588  1.0000
  C   C114      1.0  0.8250581642898283  0.07673233183138713  0.6743749831547915  1.0000
  C   C115      1.0  0.32505723204769765  0.6743759193987842  0.07673318726560299  1.0000
  C   C116      1.0  0.17494252431627896  0.9232667766509765  0.32562404380772847  1.0000
  C   C117      1.0  0.5513097482082401  0.15219751714124646  0.9840149390729775  1.0000
  C   C118      1.0  0.9486907879489478  0.0159847224428447  0.8478019728168036  1.0000
  C   C119      1.0  0.44869098319101397  0.8478023158387846  0.015985698517056397  1.0000
  C   C120      1.0  0.051309857861113514  0.9840136649116079  0.15219671085031194  1.0000
  N   N1        1.0  0.8529930929180123  0.15992659479110932  0.13855514506808925  1.0000
  N   N2        1.0  0.6470079829518698  0.8614455525492917  0.8400737100600181  1.0000
  N   N3        1.0  0.14700763848123435  0.8400732381889214  0.8614454925219518  1.0000
  N   N4        1.0  0.35299215346108775  0.1385549998414604  0.15992661177300246  1.0000
  O   O1        1.0  0.8583753904305309  0.9358182756434847  0.005381435150447138  1.0000
  O   O2        1.0  0.6416242460284491  0.9946187638195316  0.06418249818162297  1.0000
  O   O3        1.0  0.14162410819862709  0.0641822767149449  0.9946188612962031  1.0000
  O   O4        1.0  0.35837584758699836  0.0053810691281839  0.935818114022048  1.0000
  O   O5        1.0  0.962939961301245  0.8430646317218095  0.9199382359062723  1.0000
  O   O6        1.0  0.5370609744635003  0.08006171637888572  0.1569354144922244  1.0000
  O   O7        1.0  0.0370601323171229  0.15693519785615  0.08006110896528179  1.0000
  O   O8        1.0  0.4629397997347055  0.9199388343593146  0.8430642990611118  1.0000
  O   O9        1.0  0.48691467245531317  0.1573514103478432  0.032212442961736115  1.0000
  O   O10       1.0  0.01308520816684931  0.9677871417495469  0.8426481082792279  1.0000
  O   O11       1.0  0.5130847833777992  0.8426484208826754  0.9677875101895098  1.0000
  O   O12       1.0  0.9869154804392579  0.03221196673281671  0.15735091868329926  1.0000
  O   O13       1.0  0.5946748214973141  0.07860199998594201  0.9401860442427576  1.0000
  O   O14       1.0  0.9053251844542628  0.059813575659319405  0.9213978429230566  1.0000
  O   O15       1.0  0.40532531491563617  0.9213985524048101  0.059814277590262976  1.0000
  O   O16       1.0  0.09467486636804517  0.9401855327907215  0.07860115865309328  1.0000
