data_image0
_chemical_formula_structural       Zn8H18C42N6O26
_chemical_formula_sum              "Zn8 H18 C42 N6 O26"
_cell_length_a       16.62590781634285
_cell_length_b       16.413131781098706
_cell_length_c       17.1057162435393
_cell_angle_alpha    119.70335525290973
_cell_angle_beta     89.93687218752383
_cell_angle_gamma    118.25278025698434

_space_group_name_H-M_alt    "P 1"
_space_group_IT_number       1

loop_
  _space_group_symop_operation_xyz
  'x, y, z'

loop_
  _atom_site_type_symbol
  _atom_site_label
  _atom_site_symmetry_multiplicity
  _atom_site_fract_x
  _atom_site_fract_y
  _atom_site_fract_z
  _atom_site_occupancy
  Zn  Zn1       1.0  0.06122710042420469  0.0926849011490916  0.9491509965121311  1.0000
  Zn  Zn2       1.0  0.05381849809065641  0.09290786101313843  0.13582127922317971  1.0000
  Zn  Zn3       1.0  0.0559031134448348  0.8984115240552202  0.9492666299776362  1.0000
  Zn  Zn4       1.0  0.8685044777879867  0.8981240667193833  0.9449943040398595  1.0000
  Zn  Zn5       1.0  0.4564971263401604  0.9042520586765619  0.5535136234113978  1.0000
  Zn  Zn6       1.0  0.4597451171939538  0.9021708979240656  0.365428836412029  1.0000
  Zn  Zn7       1.0  0.6438237130693806  0.0912156140899825  0.5513513949443479  1.0000
  Zn  Zn8       1.0  0.4470474546654303  0.08985219039752929  0.5459146264240928  1.0000
  H   H1        1.0  0.3691958378306595  0.3192947767305725  0.1393933375641581  1.0000
  H   H2        1.0  0.5270285831349284  0.5013763935636746  0.2434166575847883  1.0000
  H   H3        1.0  0.2302881407063282  0.4983149675492697  0.2627805757405284  1.0000
  H   H4        1.0  0.9514355323175749  0.7484530152293375  0.6233843668260449  1.0000
  H   H5        1.0  0.9781895529240998  0.6877295397237048  0.4650358815040433  1.0000
  H   H6        1.0  0.25296875676068  0.010809572343703198  0.7489487997020066  1.0000
  H   H7        1.0  0.8406618716461692  0.19705477102466062  0.0332468148344276  1.0000
  H   H8        1.0  0.7313989298173666  0.25385197821919553  0.011516990764242502  1.0000
  H   H9        1.0  0.7611210569284808  0.9828519098645219  0.7285373653315332  1.0000
  H   H10       1.0  0.3745308025462747  0.1643659843588026  0.1288609133217946  1.0000
  H   H11       1.0  0.5308173885710658  0.2299053364146957  0.22653519086492932  1.0000
  H   H12       1.0  0.23147173598621865  0.9888569134937769  0.2583824251893462  1.0000
  H   H13       1.0  0.8437278567711816  0.7990783721987855  0.1533293969735823  1.0000
  H   H14       1.0  0.7636241596194965  0.7395835298708849  0.25589807570131745  1.0000
  H   H15       1.0  0.7629741142569982  0.040639453221231706  0.2588390888298307  1.0000
  H   H16       1.0  0.8630769341170887  0.6493053437026006  0.017410683312860418  1.0000
  H   H17       1.0  0.7528032007928759  0.4588712121711182  0.9859337164953105  1.0000
  H   H18       1.0  0.7420657028761044  0.5042584353106678  0.7231098257020961  1.0000
  C   C1        1.0  0.1932345258014223  0.2856060392859163  0.13680819694834406  1.0000
  C   C2        1.0  0.28770624913232723  0.3948309358143122  0.19519215897056347  1.0000
  C   C3        1.0  0.3720628399490593  0.3960967513375593  0.1879858438613766  1.0000
  C   C4        1.0  0.4596097288527475  0.4975604756169503  0.24504397214350596  1.0000
  C   C5        1.0  0.38588980674271073  0.5927764652299319  0.3066599969893389  1.0000
  C   C6        1.0  0.29422066868030333  0.49539423811056355  0.2559912007469976  1.0000
  C   C7        1.0  0.4009840516546959  0.7068070518570269  0.3680570987996036  1.0000
  C   C8        1.0  0.08812803994698733  0.9275321246220403  0.7946533853238691  1.0000
  C   C9        1.0  0.10054553987205143  0.8849609254586213  0.6983376327008557  1.0000
  C   C10       1.0  0.022593830539747724  0.792088680631373  0.6177746379698306  1.0000
  C   C11       1.0  0.03803794503476617  0.7575567926482734  0.5297685148814467  1.0000
  C   C12       1.0  0.19860733687940524  0.8918512156071472  0.5966995228714609  1.0000
  C   C13       1.0  0.19052610986482685  0.9377986993651461  0.6878806532450666  1.0000
  C   C14       1.0  0.2960523300148525  0.9367151438852093  0.5823025887188039  1.0000
  C   C15       1.0  0.8682771371593532  0.04400493584235931  0.894761295449996  1.0000
  C   C16       1.0  0.8077707584864624  0.08379428483724641  0.8821892095771134  1.0000
  C   C17       1.0  0.800595856059303  0.1622898564587416  0.9625922806433493  1.0000
  C   C18       1.0  0.7396466111420281  0.1936910222325993  0.9501342102290736  1.0000
  C   C19       1.0  0.6981247464732122  0.0809785557827425  0.7891617735311344  1.0000
  C   C20       1.0  0.756552620764978  0.042913437294203  0.7931088926762657  1.0000
  C   C21       1.0  0.6409049865400079  0.040768281575204006  0.6952105093603508  1.0000
  C   C22       1.0  0.1969062973889564  0.0344319235785306  0.1310181752808219  1.0000
  C   C23       1.0  0.29105430929845266  0.07258520311505383  0.18723234823576726  1.0000
  C   C24       1.0  0.3760972986154769  0.13972363739233631  0.17712920198572854  1.0000
  C   C25       1.0  0.4627988974706341  0.17449322832663944  0.23032685072851683  1.0000
  C   C26       1.0  0.38652402695836935  0.0755270147593166  0.29404450668830867  1.0000
  C   C27       1.0  0.29601302844882577  0.04091052601335581  0.24834669030831694  1.0000
  C   C28       1.0  0.3992392680302003  0.0378080778440122  0.3550195175388779  1.0000
  C   C29       1.0  0.8626042057459387  0.9641634255651113  0.14092235777660986  1.0000
  C   C30       1.0  0.8103467949365638  0.9255403119041434  0.19918592886089206  1.0000
  C   C31       1.0  0.8092454689054376  0.8388644427658464  0.1973488191249118  1.0000
  C   C32       1.0  0.76404293346112  0.8054040582920409  0.25400571443223185  1.0000
  C   C33       1.0  0.7185973546576463  0.9305810562336703  0.30724754667886595  1.0000
  C   C34       1.0  0.7642988441047649  0.9732823349313905  0.25565566357123964  1.0000
  C   C35       1.0  0.6603778304746653  0.9698200160860038  0.36511088139558007  1.0000
  C   C36       1.0  0.870076699032566  0.7050756622496837  0.8920495210186986  1.0000
  C   C37       1.0  0.8087876165928944  0.5911078000773671  0.8728622103104016  1.0000
  C   C38       1.0  0.8137087533693189  0.5779006350792742  0.9471311026886157  1.0000
  C   C39       1.0  0.7534444344759947  0.4719624308607921  0.9291029137514146  1.0000
  C   C40       1.0  0.6938778137080847  0.394347443614521  0.772005695345577  1.0000
  C   C41       1.0  0.7470567516598052  0.4974339688731534  0.7828960932803497  1.0000
  C   C42       1.0  0.6332620024456119  0.2854891926740208  0.6765312480452296  1.0000
  N   N1        1.0  0.46747163766976735  0.5949829498828834  0.3037477656828074  1.0000
  N   N2        1.0  0.12446045524731643  0.8045239424589427  0.5182706330410484  1.0000
  N   N3        1.0  0.6878752598551613  0.15344304080669258  0.865390368275321  1.0000
  N   N4        1.0  0.4690001792256878  0.14220711407661213  0.28708649568085326  1.0000
  N   N5        1.0  0.7189214774539181  0.8495149511196516  0.3081739789041221  1.0000
  N   N6        1.0  0.6944734721625636  0.380957659092907  0.8432095358316475  1.0000
  O   O1        1.0  0.00827344865455628  0.9982533538358143  0.9975832215060977  1.0000
  O   O2        1.0  0.13839392690895386  0.2518727194115301  0.18053619785077765  1.0000
  O   O3        1.0  0.17751424271794045  0.23486981781960745  0.04766216859995611  1.0000
  O   O4        1.0  0.3850741583140761  0.7443961035236131  0.3241916874431255  1.0000
  O   O5        1.0  0.4298240581513254  0.755143196155096  0.45675688191103336  1.0000
  O   O6        1.0  0.06469749282646847  0.8626408649795255  0.8225344441727958  1.0000
  O   O7        1.0  0.1022816580533217  0.024746400721191702  0.839531622485417  1.0000
  O   O8        1.0  0.32929809957814626  0.020663959459881216  0.5770030525456917  1.0000
  O   O9        1.0  0.3351294213802589  0.8848273094894169  0.5778697180107315  1.0000
  O   O10       1.0  0.8228100674467953  0.9497389976905595  0.8849708749907563  1.0000
  O   O11       1.0  0.9584070584635355  0.10879583091561068  0.9161619825403025  1.0000
  O   O12       1.0  0.6884877642073306  0.0776591125896999  0.6495482708718258  1.0000
  O   O13       1.0  0.5507789187997574  0.9738886949113738  0.6711616370346151  1.0000
  O   O14       1.0  0.17943569588123864  0.9771763696725914  0.041418696950806584  1.0000
  O   O15       1.0  0.1439202009871465  0.0626586265157059  0.1762916774205863  1.0000
  O   O16       1.0  0.41080075024137835  0.0996051519832974  0.4422482861324043  1.0000
  O   O17       1.0  0.3987048349816007  0.9481214105449567  0.3120900631578464  1.0000
  O   O18       1.0  0.8206463141043586  0.901211288339191  0.05242733462532098  1.0000
  O   O19       1.0  0.9455233347748973  0.05465297909686482  0.18581329384269202  1.0000
  O   O20       1.0  0.703692246503863  0.04845722414385991  0.45225217801908013  1.0000
  O   O21       1.0  0.5728871676210473  0.9178249726326514  0.32045292062212377  1.0000
  O   O22       1.0  0.958512020564065  0.7598020062084958  0.9373868889773578  1.0000
  O   O23       1.0  0.8298249506972297  0.7396929659115443  0.8639996438105938  1.0000
  O   O24       1.0  0.543040091900906  0.2400939548140499  0.6569309882013528  1.0000
  O   O25       1.0  0.6793714288695655  0.24838365017986772  0.6260477324983926  1.0000
  O   O26       1.0  0.5030037371558649  0.9985915190049822  0.5039321810125442  1.0000
