data_image0
_chemical_formula_structural       Hg4H40C44S8Br8N8
_chemical_formula_sum              "Hg4 H40 C44 S8 Br8 N8"
_cell_length_a       7.574385590627206
_cell_length_b       8.214533855332311
_cell_length_c       23.8754309040146
_cell_angle_alpha    90.00005136140274
_cell_angle_beta     90.00011323499388
_cell_angle_gamma    94.04986499932753

_space_group_name_H-M_alt    "P 1"
_space_group_IT_number       1

loop_
  _space_group_symop_operation_xyz
  'x, y, z'

loop_
  _atom_site_type_symbol
  _atom_site_label
  _atom_site_symmetry_multiplicity
  _atom_site_fract_x
  _atom_site_fract_y
  _atom_site_fract_z
  _atom_site_occupancy
  Hg  Hg1       1.0  0.0493737393014868  0.5196870758066724  0.79468020638425  1.0000
  Hg  Hg2       1.0  0.549369412285344  0.5196746048440986  0.7053165313720982  1.0000
  Hg  Hg3       1.0  0.9506310123553091  0.4803219351480478  0.20531897373819422  1.0000
  Hg  Hg4       1.0  0.4506290948172306  0.48032221310531037  0.29468222990582404  1.0000
  H   H1        1.0  0.13015565914622573  0.9323601080275591  0.9048161111658217  1.0000
  H   H2        1.0  0.6301605384355539  0.932355838671924  0.5951837414840143  1.0000
  H   H3        1.0  0.8698421066056239  0.06764403506257108  0.09518390663487253  1.0000
  H   H4        1.0  0.3698433452219732  0.06764218869638938  0.404817532839445  1.0000
  H   H5        1.0  0.3550888629232176  0.023575786294315997  0.8969079067459519  1.0000
  H   H6        1.0  0.8550954989255641  0.023576418905882694  0.6030913772703529  1.0000
  H   H7        1.0  0.6449071005789901  0.9764222575481792  0.1030925298938001  1.0000
  H   H8        1.0  0.14490960830959657  0.9764203853164801  0.39690905937207793  1.0000
  H   H9        1.0  0.25005791293484236  0.9129739940448258  0.8117589771044962  1.0000
  H   H10       1.0  0.7500527346298256  0.9129687982981948  0.6882409447005388  1.0000
  H   H11       1.0  0.7499516366048838  0.087028903935213  0.188242297221521  1.0000
  H   H12       1.0  0.2499468996106556  0.08702557610887848  0.3117586542585613  1.0000
  H   H13       1.0  0.2650769391243557  0.8578471840340355  0.7099522240481521  1.0000
  H   H14       1.0  0.765075249138668  0.8578447212115634  0.7900472706953536  1.0000
  H   H15       1.0  0.7349282645559183  0.14215084058715624  0.290048212594499  1.0000
  H   H16       1.0  0.2349274109358389  0.14215452930025654  0.2099531659466933  1.0000
  H   H17       1.0  0.1647735087843358  0.0681606649818818  0.6416261787597082  1.0000
  H   H18       1.0  0.6647748986965069  0.06815839640953669  0.8583729999085893  1.0000
  H   H19       1.0  0.8352265112392914  0.9318385910217442  0.35837425788151483  1.0000
  H   H20       1.0  0.33522550710218  0.9318457411869543  0.1416257613711025  1.0000
  H   H21       1.0  0.06630077856300431  0.33011335098240124  0.6799534561482973  1.0000
  H   H22       1.0  0.5662980581127071  0.33011219900176053  0.8200457445523883  1.0000
  H   H23       1.0  0.9337070651667926  0.6698846681463807  0.3200465616545785  1.0000
  H   H24       1.0  0.4337017690166503  0.6698846162023667  0.17995343556655297  1.0000
  H   H25       1.0  0.3804424271093082  0.2836340198956932  0.07218441194505941  1.0000
  H   H26       1.0  0.8804442640553912  0.28363195432898175  0.4278158468769107  1.0000
  H   H27       1.0  0.6195579786947645  0.716370117703249  0.9278160246970659  1.0000
  H   H28       1.0  0.11954954162823128  0.7163721970025205  0.5721866839661801  1.0000
  H   H29       1.0  0.6756575136383061  0.4362393386609043  0.08112468196019051  1.0000
  H   H30       1.0  0.17565629914955141  0.4362387592832349  0.4188750781902186  1.0000
  H   H31       1.0  0.32434807581836367  0.5637635675537709  0.9188744981615431  1.0000
  H   H32       1.0  0.8243385372174357  0.5637617281028182  0.5811253584495689  1.0000
  H   H33       1.0  0.8852889552181792  0.4395701631717514  0.9989988629092397  1.0000
  H   H34       1.0  0.38529119877807716  0.439579334798779  0.5010009922213429  1.0000
  H   H35       1.0  0.11471190259723575  0.560422988088149  0.0009990606876116002  1.0000
  H   H36       1.0  0.6147087247963938  0.5604187008041774  0.49899818789782563  1.0000
  H   H37       1.0  0.788635843115692  0.29174777574960586  0.9120818435243552  1.0000
  H   H38       1.0  0.2886393875584971  0.2917498763289145  0.5879183223261322  1.0000
  H   H39       1.0  0.21135748033024268  0.708250273582237  0.0879169177521391  1.0000
  H   H40       1.0  0.7113631760695468  0.7082481537834651  0.41208169547508083  1.0000
  C   C1        1.0  0.219032343368184  0.042884311863055295  0.9097700433131097  1.0000
  C   C2        1.0  0.7190374801012424  0.04288368922139799  0.5902295802052464  1.0000
  C   C3        1.0  0.7809651330496833  0.9571161700311918  0.09023039332750929  1.0000
  C   C4        1.0  0.2809664035562846  0.9571143381469226  0.4097716941182058  1.0000
  C   C5        1.0  0.15379241804622978  0.1532473165509671  0.8002532736290107  1.0000
  C   C6        1.0  0.6537924974592924  0.1532409230544616  0.6997446688765905  1.0000
  C   C7        1.0  0.8462105313595669  0.8467555951555069  0.1997459064918914  1.0000
  C   C8        1.0  0.34620732967545814  0.8467558921521173  0.3002561866047841  1.0000
  C   C9        1.0  0.21094776982747723  0.0036708750792798  0.7818950649332806  1.0000
  C   C10       1.0  0.7109442966815962  0.0036682046854110985  0.7181032844137863  1.0000
  C   C11       1.0  0.789054986689443  0.9963295958301475  0.21810453402778052  1.0000
  C   C12       1.0  0.28905421042502866  0.9963286132658378  0.28189673338595617  1.0000
  C   C13       1.0  0.21840909323287144  0.9727355592574083  0.7247737403874981  1.0000
  C   C14       1.0  0.7184045713379063  0.9727318381991236  0.7752257618314363  1.0000
  C   C15       1.0  0.781593759730512  0.027266132051458697  0.2752262774143972  1.0000
  C   C16       1.0  0.28159422511078697  0.027268640951675093  0.22477635017202863  1.0000
  C   C17       1.0  0.1654342137361908  0.08889856201539459  0.686646521580002  1.0000
  C   C18       1.0  0.6654363445165857  0.08889249788766308  0.8133514076261009  1.0000
  C   C19       1.0  0.8345629733409508  0.9110982586799207  0.3133522396975011  1.0000
  C   C20       1.0  0.3345622590364954  0.9111055404630263  0.18664902901448244  1.0000
  C   C21       1.0  0.1100113241171101  0.234586235071248  0.7073816506485644  1.0000
  C   C22       1.0  0.6100083306463162  0.23458378250592193  0.7926154527169161  1.0000
  C   C23       1.0  0.8899914323957672  0.7654142358363456  0.2926166917906698  1.0000
  C   C24       1.0  0.3899878257407181  0.7654167021317801  0.20738330856084997  1.0000
  C   C25       1.0  0.43271239037479586  0.20775547929400764  0.9867811029869742  1.0000
  C   C26       1.0  0.9327153255435687  0.20774975267067927  0.5132182888345582  1.0000
  C   C27       1.0  0.5672851824854844  0.7922462229978532  0.013218495972651604  1.0000
  C   C28       1.0  0.06728459804168807  0.7922482829371728  0.4867842420094776  1.0000
  C   C29       1.0  0.4751913487029284  0.28629673837264147  0.037744435463565706  1.0000
  C   C30       1.0  0.9751924731057071  0.28629965782562283  0.4622542084085099  1.0000
  C   C31       1.0  0.5248061277108887  0.7137037435197725  0.9622547446552261  1.0000
  C   C32       1.0  0.02480265259661958  0.7137044907569176  0.5377462282319598  1.0000
  C   C33       1.0  0.6395468088915945  0.37157868626454155  0.0424480808125622  1.0000
  C   C34       1.0  0.13954735629845763  0.37158065800462475  0.45755163592164655  1.0000
  C   C35       1.0  0.3604558511788625  0.6284205642454451  0.957551099307665  1.0000
  C   C36       1.0  0.8604502165699085  0.6284210442909028  0.5424504760816333  1.0000
  C   C37       1.0  0.75553671339712  0.3744147177877295  0.9969603144501136  1.0000
  C   C38       1.0  0.2555387771922852  0.3744214545776074  0.5030402759228494  1.0000
  C   C39       1.0  0.24446321017465772  0.6255833178139978  0.0030380279878415013  1.0000
  C   C40       1.0  0.7444586027831617  0.6255778069190396  0.4969609983987625  1.0000
  C   C41       1.0  0.7009143398611426  0.2922562062504425  0.9483932025598563  1.0000
  C   C42       1.0  0.20091877768241057  0.2922557571333114  0.5516060706308039  1.0000
  C   C43       1.0  0.29907898358344187  0.7077418430807896  0.051605139876024005  1.0000
  C   C44       1.0  0.799077089371984  0.7077410663091256  0.44839352832750023  1.0000
  S   S1        1.0  0.1382124631897739  0.21232022409345322  0.8702298162832421  1.0000
  S   S2        1.0  0.6382165344384345  0.21231971978906464  0.6297702295618351  1.0000
  S   S3        1.0  0.8617890697495197  0.7876814699619316  0.12977062035884762  1.0000
  S   S4        1.0  0.3617889585758221  0.7876819660280032  0.37022978824088437  1.0000
  S   S5        1.0  0.22207091475622315  0.09878887601698948  0.9822160755372453  1.0000
  S   S6        1.0  0.72207671225555  0.09878559804577239  0.5177839866440906  1.0000
  S   S7        1.0  0.7779267545491706  0.9012140466736938  0.017783523422608003  1.0000
  S   S8        1.0  0.2779259478216503  0.9012136524672768  0.4822172876791769  1.0000
  Br  Br1       1.0  0.9144748326299206  0.6237243176333533  0.6964925288606524  1.0000
  Br  Br2       1.0  0.4144758048435761  0.6237270566951452  0.8035057282575979  1.0000
  Br  Br3       1.0  0.08552773099813035  0.37627371247902625  0.30350748894056784  1.0000
  Br  Br4       1.0  0.5855232809296709  0.37627708364725265  0.19649303302168164  1.0000
  Br  Br5       1.0  0.9207141438827119  0.6646285383128188  0.8767791264339453  1.0000
  Br  Br6       1.0  0.4207149861993783  0.6646270863900623  0.6232208230742771  1.0000
  Br  Br7       1.0  0.07928484544812157  0.33537438163197203  0.12322047252632731  1.0000
  Br  Br8       1.0  0.5792864502948019  0.3353733872664932  0.37677961356758527  1.0000
  N   N1        1.0  0.10629949434256498  0.2661172392023872  0.7627775133691375  1.0000
  N   N2        1.0  0.6063056737818255  0.26611826667266303  0.7372216919725292  1.0000
  N   N3        1.0  0.8936966620485121  0.7338832454371483  0.23722250443045573  1.0000
  N   N4        1.0  0.39370133215079045  0.7338858571973929  0.26277916351227054  1.0000
  N   N5        1.0  0.5419459194962355  0.21012074186989335  0.9428552289166277  1.0000
  N   N6        1.0  0.0419499107421686  0.21011420694797775  0.5571439180287356  1.0000
  N   N7        1.0  0.4580478861766011  0.7898834094567062  0.05714395120160281  1.0000
  N   N8        1.0  0.9580551964916423  0.7898825972737739  0.4428560997730813  1.0000
