data_image0
_chemical_formula_structural       Zr6H10C54S10O36F10
_chemical_formula_sum              "Zr6 H10 C54 S10 O36 F10"
_cell_length_a       16.461997947055895
_cell_length_b       16.44939428358585
_cell_length_c       16.528206425388184
_cell_angle_alpha    61.84744047265878
_cell_angle_beta     59.81368413415444
_cell_angle_gamma    60.29837780979773

_space_group_name_H-M_alt    "P 1"
_space_group_IT_number       1

loop_
  _space_group_symop_operation_xyz
  'x, y, z'

loop_
  _atom_site_type_symbol
  _atom_site_label
  _atom_site_symmetry_multiplicity
  _atom_site_fract_x
  _atom_site_fract_y
  _atom_site_fract_z
  _atom_site_occupancy
  Zr  Zr1       1.0  0.8880357120938954  0.9029651021328603  0.596406725791397  1.0000
  Zr  Zr2       1.0  0.11252838959588733  0.1018453144009754  0.3976093940725676  1.0000
  Zr  Zr3       1.0  0.10237756167421705  0.8934034400532906  0.6061551093824206  1.0000
  Zr  Zr4       1.0  0.8980149262065495  0.11165434022530009  0.38794532473286136  1.0000
  Zr  Zr5       1.0  0.10941755920840979  0.8933097612271154  0.3877748725850908  1.0000
  Zr  Zr6       1.0  0.8909857886003039  0.11162665540648936  0.6062405830431957  1.0000
  H   H1        1.0  0.07816183706498957  0.7527468432391586  0.5751785813012589  1.0000
  H   H2        1.0  0.09389273758940667  0.08065119494756348  0.2472439995038727  1.0000
  H   H3        1.0  0.08334088494692797  0.0814025009817954  0.5896301311315355  1.0000
  H   H4        1.0  0.7455692163163691  0.09484901254139512  0.5760578900865737  1.0000
  H   H5        1.0  0.10232199432714863  0.6364062801452447  0.8659932391718498  1.0000
  H   H6        1.0  0.8447719420355211  0.6499188873771897  0.8485958109519062  1.0000
  H   H7        1.0  0.8959024818030485  0.37118209160982457  0.13084552870967778  1.0000
  H   H8        1.0  0.15684341314182865  0.3542040327657361  0.14487338912052652  1.0000
  H   H9        1.0  0.10437468374458081  0.637076548292484  0.997709212626674  1.0000
  H   H10       1.0  0.7615896895061102  0.5028271134477502  0.1316486850574776  1.0000
  C   C1        1.0  0.9951489210043291  0.7397542480265074  0.48269345373603323  1.0000
  C   C2        1.0  0.28268138010228216  0.9878178076035694  0.2346459152465671  1.0000
  C   C3        1.0  0.9979872992099529  0.27217233995609974  0.5044334336741586  1.0000
  C   C4        1.0  0.7255077492998582  0.009518737881009574  0.7668719346584256  1.0000
  C   C5        1.0  0.9811033644258772  0.7398226441719159  0.7638280414274876  1.0000
  C   C6        1.0  0.7323556695175739  0.006060393197586182  0.48530428526017033  1.0000
  C   C7        1.0  0.015437864852998577  0.2693251578151247  0.2345529938550825  1.0000
  C   C8        1.0  0.27609905875142693  0.9909364620026794  0.5006953884139166  1.0000
  C   C9        1.0  0.27309980939609346  0.7308794293431686  0.49533842885954027  1.0000
  C   C10       1.0  0.990378953616414  0.9960278780644882  0.7771530453058662  1.0000
  C   C11       1.0  0.7360118360538053  0.2823523444092402  0.4908584805350031  1.0000
  C   C12       1.0  0.00029489562623301357  0.0007806131952890426  0.22556820871626118  1.0000
  C   C13       1.0  0.9277447262225706  0.42310348463092134  0.5614026546518929  1.0000
  C   C14       1.0  0.061518543507318606  0.5920574672008883  0.42243595485306434  1.0000
  C   C15       1.0  0.995509692182317  0.3641468484348492  0.5002313184551143  1.0000
  C   C16       1.0  0.9943593628013832  0.6505670395668727  0.48407411011930895  1.0000
  C   C17       1.0  0.037796174479794505  0.509059593652587  0.4497775289420857  1.0000
  C   C18       1.0  0.9509350339694081  0.5066244349815888  0.533630204864835  1.0000
  C   C19       1.0  0.4246852778156409  0.9270834587813894  0.08736383282842308  1.0000
  C   C20       1.0  0.5884731588060959  0.06606116417083285  0.918162208613957  1.0000
  C   C21       1.0  0.37172540964381556  0.9887306596748071  0.14585134790720394  1.0000
  C   C22       1.0  0.6405342892668457  0.004997551038542243  0.8591356976940928  1.0000
  C   C23       1.0  0.5097508791412864  0.03812895971574887  0.001938204052081055  1.0000
  C   C24       1.0  0.5041391146929116  0.9543387016757376  0.0044069451236694685  1.0000
  C   C25       1.0  0.0524222850228142  0.9267667670094042  0.9200646082218569  1.0000
  C   C26       1.0  0.9313937883061101  0.06473416170776129  0.08885811220324777  1.0000
  C   C27       1.0  0.9890175719301626  0.9943401578022983  0.8674895362326326  1.0000
  C   C28       1.0  0.9961892173441952  0.9981352604973068  0.14016347499509868  1.0000
  C   C29       1.0  0.9510817557079605  0.03937480971484295  0.00857744718845053  1.0000
  C   C30       1.0  0.03216625873081115  0.9515377234862965  0.0008909266756164002  1.0000
  C   C31       1.0  0.4142802610354579  0.5937315581950883  0.5596867760391576  1.0000
  C   C32       1.0  0.5997313950435981  0.4245521586435713  0.4220625243271385  1.0000
  C   C33       1.0  0.3648306079242545  0.6450293787659831  0.4930545815806867  1.0000
  C   C34       1.0  0.6483550848602349  0.3723315250792465  0.4894407612279466  1.0000
  C   C35       1.0  0.5142753027580582  0.5052737712212687  0.44690587669328613  1.0000
  C   C36       1.0  0.4999784588031486  0.5132004314784382  0.5345729133979448  1.0000
  C   C37       1.0  0.042167620283834265  0.6075034177656633  0.8980987436703458  1.0000
  C   C38       1.0  0.8965752463839398  0.6151735144883329  0.8873883910840733  1.0000
  C   C39       1.0  0.8874758394586383  0.5352246062099792  0.969765677435987  1.0000
  C   C40       1.0  0.9567233236067595  0.48789167518701493  0.019871170243028934  1.0000
  C   C41       1.0  0.9527274101462025  0.40341338485459477  0.10207306464576513  1.0000
  C   C42       1.0  0.1010387001629596  0.392939848099516  0.11008782033860598  1.0000
  C   C43       1.0  0.10778097702347372  0.4752834124321481  0.030105723895424354  1.0000
  C   C44       1.0  0.03590446403290311  0.5252977298416326  0.9826136123324931  1.0000
  C   C45       1.0  0.9732653730688198  0.6523171417935245  0.8522567774575336  1.0000
  C   C46       1.0  0.022444181065019105  0.357734420151857  0.1470971812933328  1.0000
  C   C47       1.0  0.4187877134157176  0.05562005912556607  0.4297078834584056  1.0000
  C   C48       1.0  0.5958571316316392  0.9352002276980328  0.5499854563596429  1.0000
  C   C49       1.0  0.3675410645496556  0.9900989313080398  0.49633145717485405  1.0000
  C   C50       1.0  0.6460623872447188  0.0017605534771688585  0.48446198284289466  1.0000
  C   C51       1.0  0.5131512467702848  0.9538124897888804  0.530459393923941  1.0000
  C   C52       1.0  0.5024724665345347  0.03602005567068281  0.4482581153643252  1.0000
  C   C53       1.0  0.19562498877390772  0.5054283435018191  0.9946130545461855  1.0000
  C   C54       1.0  0.8049905920763364  0.4996209531967109  5.065287823661946e-05  1.0000
  S   S1        1.0  0.08968460574403271  0.4109048007814948  0.40636016635558303  1.0000
  S   S2        1.0  0.8997921795607556  0.6042189283487714  0.5776215173743751  1.0000
  S   S3        1.0  0.4192850037697511  0.08214838655931087  0.09953151197641573  1.0000
  S   S4        1.0  0.5934832459522285  0.9110988370831308  0.9060495373043765  1.0000
  S   S5        1.0  0.9014432462747523  0.09009077635764143  0.9182186878934075  1.0000
  S   S6        1.0  0.08304282213661905  0.9017588249220124  0.09015057757622462  1.0000
  S   S7        1.0  0.4240736417828402  0.5946516355322017  0.3969765460708032  1.0000
  S   S8        1.0  0.5894851021091086  0.42317038102116555  0.5850984124732791  1.0000
  S   S9        1.0  0.4225050844580592  0.9019162867610148  0.5834294578978501  1.0000
  S   S10       1.0  0.5921494097439677  0.08889652135548685  0.3962967320348767  1.0000
  O   O1        1.0  0.9235538447622673  0.7773300672902578  0.5508083341674777  1.0000
  O   O2        1.0  0.24845881450399782  0.056034223991986126  0.2721173637872027  1.0000
  O   O3        1.0  0.07111367065358114  0.2333373866371531  0.4377107052386505  1.0000
  O   O4        1.0  0.7579052230766481  0.9428969101515535  0.7279233514170186  1.0000
  O   O5        1.0  0.05253111197110653  0.769816660374495  0.7334401754249029  1.0000
  O   O6        1.0  0.7669320765984935  0.07454745374820966  0.4192515755481737  1.0000
  O   O7        1.0  0.9443098084354774  0.23907333152722285  0.2645629672083274  1.0000
  O   O8        1.0  0.23913778269978517  0.9248363850197164  0.5691279907230608  1.0000
  O   O9        1.0  0.2408448107662907  0.7634688722266673  0.4258541806556622  1.0000
  O   O10       1.0  0.9237075890373417  0.06754768374786115  0.7423108598409769  1.0000
  O   O11       1.0  0.7661096079705062  0.2476625282776295  0.5622848167834888  1.0000
  O   O12       1.0  0.06954305813540884  0.9313724786110597  0.25805319938139365  1.0000
  O   O13       1.0  0.05930586820777947  0.9268793380297637  0.7400067251852815  1.0000
  O   O14       1.0  0.7736405632791796  0.24534961888098641  0.4215345707312537  1.0000
  O   O15       1.0  0.93497485230192  0.07291336931428555  0.25956027348254923  1.0000
  O   O16       1.0  0.2325791584645458  0.7651272867127046  0.567235991209131  1.0000
  O   O17       1.0  0.9151543266035491  0.7771112276159043  0.7251899782491195  1.0000
  O   O18       1.0  0.240242276842949  0.06019229453730193  0.43504747405109606  1.0000
  O   O19       1.0  0.08280122051075274  0.2305456941346407  0.27180489319623297  1.0000
  O   O20       1.0  0.764644863255377  0.9403597068246936  0.5545240582487527  1.0000
  O   O21       1.0  0.7595005750241058  0.07866764855448578  0.7326662152567137  1.0000
  O   O22       1.0  0.06682813290667859  0.7713048339158348  0.4163107056688419  1.0000
  O   O23       1.0  0.24556039813910513  0.9217107137552316  0.2659203467900753  1.0000
  O   O24       1.0  0.9288888400858255  0.23808510585440248  0.5733852320477697  1.0000
  O   O25       1.0  0.8179587054436509  0.06955486180449089  0.5529800284595796  1.0000
  O   O26       1.0  0.0593527733120495  0.05841359222021223  0.5642202680609573  1.0000
  O   O27       1.0  0.06754689474200856  0.05821117989275847  0.31826272201670497  1.0000
  O   O28       1.0  0.05596618191939465  0.8237604315907917  0.5527155861706277  1.0000
  O   O29       1.0  0.13420904573730044  0.9531335766807627  0.45592738820514717  1.0000
  O   O30       1.0  0.9566902302195356  0.9614108118225315  0.4476632133446401  1.0000
  O   O31       1.0  0.9590428368022544  0.13433318910489306  0.4559051464297213  1.0000
  O   O32       1.0  0.9506546357681459  0.9612849969374225  0.6289551390887242  1.0000
  O   O33       1.0  0.17615415503854592  0.6011997185452955  0.980654488683868  1.0000
  O   O34       1.0  0.28067473548313865  0.44814414307880657  0.9808966166026637  1.0000
  O   O35       1.0  0.7426361341211988  0.4857987106236974  0.09583788651033136  1.0000
  O   O36       1.0  0.7909505424892272  0.4857214550341452  0.9428812231104544  1.0000
  F   F1        1.0  0.8481991233346734  0.40428076027629345  0.6392744168787203  1.0000
  F   F2        1.0  0.14161252616311512  0.610362316472816  0.3447928394480826  1.0000
  F   F3        1.0  0.40378543598276906  0.8495795185055213  0.10555732297265755  1.0000
  F   F4        1.0  0.6090453648806218  0.14394707265471862  0.899165537383695  1.0000
  F   F5        1.0  0.12631913012707227  0.8452372238750172  0.8980967981882061  1.0000
  F   F6        1.0  0.8574421886843027  0.1458535865851687  0.11104637408843837  1.0000
  F   F7        1.0  0.38514935177419585  0.6162214723609408  0.6405736746679197  1.0000
  F   F8        1.0  0.6292786911818167  0.4024964697145989  0.34059815255427145  1.0000
  F   F9        1.0  0.39308427405004664  0.13101910504985162  0.3550659108976292  1.0000
  F   F10       1.0  0.6208111428112775  0.8604878283116404  0.62535611175106  1.0000
