data_image0
_chemical_formula_structural       Mn2H28C36N4O8
_chemical_formula_sum              "Mn2 H28 C36 N4 O8"
_cell_length_a       8.721408250581574
_cell_length_b       9.54657633901169
_cell_length_c       10.283108731617784
_cell_angle_alpha    75.64691447075849
_cell_angle_beta     73.24554378479561
_cell_angle_gamma    89.49098428234151

_space_group_name_H-M_alt    "P 1"
_space_group_IT_number       1

loop_
  _space_group_symop_operation_xyz
  'x, y, z'

loop_
  _atom_site_type_symbol
  _atom_site_label
  _atom_site_symmetry_multiplicity
  _atom_site_fract_x
  _atom_site_fract_y
  _atom_site_fract_z
  _atom_site_occupancy
  Mn  Mn1       1.0  0.4571003193700705  0.8620446430111244  0.8616092794797159  1.0000
  Mn  Mn2       1.0  0.5428918771529395  0.13796086083824824  0.1383932802099751  1.0000
  H   H1        1.0  0.30937734963623587  0.4698642378891478  0.6906843447664317  1.0000
  H   H2        1.0  0.6906255080344649  0.5301392540742285  0.30931508264984603  1.0000
  H   H3        1.0  0.24766830993078767  0.37462800756686926  0.5048989901131123  1.0000
  H   H4        1.0  0.7523249618277675  0.625375346580391  0.4951038023045275  1.0000
  H   H5        1.0  0.28421828976411945  0.5387804056261911  0.26654158212518564  1.0000
  H   H6        1.0  0.715776113426557  0.461221878946404  0.7334592342579146  1.0000
  H   H7        1.0  0.4347615692339843  0.891885233824368  0.403505123957153  1.0000
  H   H8        1.0  0.5652481742982116  0.1081129466541739  0.5964948094772355  1.0000
  H   H9        1.0  0.2680777247394062  0.9859600740986992  0.6358998088904286  1.0000
  H   H10       1.0  0.7319224945535154  0.014039052135942106  0.36410322358121056  1.0000
  H   H11       1.0  0.0469940551449497  0.14843861093308416  0.6073431289817253  1.0000
  H   H12       1.0  0.953008614768983  0.8515616285912628  0.3926561249276901  1.0000
  H   H13       1.0  0.9262055163834687  0.2784582102643967  0.7940363175546568  1.0000
  H   H14       1.0  0.07379607281863092  0.7215441755173232  0.2059607608284396  1.0000
  H   H15       1.0  0.031355839022928905  0.236933430797059  0.0027519157974040913  1.0000
  H   H16       1.0  0.9686395133193884  0.7630645352066097  0.9972486938426716  1.0000
  H   H17       1.0  0.24854290578208094  0.0656909314060528  0.018050567523758283  1.0000
  H   H18       1.0  0.7514511945205128  0.9343059387502137  0.9819535214782678  1.0000
  H   H19       1.0  0.5859879064902672  0.5792092435159332  0.03361201889065058  1.0000
  H   H20       1.0  0.4140109155120156  0.4207866059478604  0.9663872536776457  1.0000
  H   H21       1.0  0.8277030676542266  0.43824769573446787  0.007680051373924494  1.0000
  H   H22       1.0  0.172297020078517  0.5617492581886055  0.9923205988283715  1.0000
  H   H23       1.0  0.0706602189675749  0.5322542059925793  0.7947435129567569  1.0000
  H   H24       1.0  0.9293387853151811  0.46774489246548967  0.20525399032002428  1.0000
  H   H25       1.0  0.05206506048576641  0.7588595352038254  0.6181804424364189  1.0000
  H   H26       1.0  0.9479302781658132  0.24113842218796577  0.3818153102077277  1.0000
  H   H27       1.0  0.7934373877119113  0.8855904104253581  0.66006758051973  1.0000
  H   H28       1.0  0.2065589699786372  0.11440431713684518  0.33993061361484694  1.0000
  C   C1        1.0  0.41360845591445644  0.7464147213303606  0.6671351313650009  1.0000
  C   C2        1.0  0.5864014726363606  0.2535867098648268  0.3328640041770543  1.0000
  C   C3        1.0  0.3754460909125044  0.6866881549498558  0.5578156716428709  1.0000
  C   C4        1.0  0.6245589734258558  0.31331211773674283  0.44218201246682315  1.0000
  C   C5        1.0  0.32048110796778667  0.5413355300517962  0.5871714902553153  1.0000
  C   C6        1.0  0.6795204250377297  0.4586657756024549  0.41282779689026955  1.0000
  C   C7        1.0  0.2869056955543455  0.4882902347508633  0.4829510789089683  1.0000
  C   C8        1.0  0.7130935718487804  0.5117132083303204  0.5170511889064999  1.0000
  C   C9        1.0  0.30760790410350575  0.5795453066471907  0.34937045791438254  1.0000
  C   C10       1.0  0.6923902346056537  0.4204592077310281  0.6506347573348138  1.0000
  C   C11       1.0  0.35936913213426885  0.7259639797596192  0.31974680824971113  1.0000
  C   C12       1.0  0.6406325941043107  0.274040581778408  0.6802545952010991  1.0000
  C   C13       1.0  0.3763202030558972  0.8254258414903717  0.1780108454820636  1.0000
  C   C14       1.0  0.6236795179625219  0.174585200375347  0.8219973317781354  1.0000
  C   C15       1.0  0.393494658518243  0.7787964511379712  0.42452769697094805  1.0000
  C   C16       1.0  0.6065118565691916  0.22120817672455925  0.5754705668804052  1.0000
  C   C17       1.0  0.20930041310880648  0.0406053299360565  0.7165077180186119  1.0000
  C   C18       1.0  0.7906988378654487  0.9593981028108801  0.2834887214017315  1.0000
  C   C19       1.0  0.0881131434162228  0.13319619703221258  0.7001352784309207  1.0000
  C   C20       1.0  0.9118871211206993  0.8668040024403821  0.2998616596814759  1.0000
  C   C21       1.0  0.0219853994410002  0.20609886247151368  0.8031383650994146  1.0000
  C   C22       1.0  0.978016128088221  0.793902439737991  0.19685897924779297  1.0000
  C   C23       1.0  0.080102613896841  0.1834416186767598  0.9190560601538994  1.0000
  C   C24       1.0  0.9198964630113765  0.8165585702430318  0.08094506275551805  1.0000
  C   C25       1.0  0.2004750532745874  0.0880116931879513  0.928582293845324  1.0000
  C   C26       1.0  0.7995204895626458  0.9119895269771163  0.07141946070080259  1.0000
  C   C27       1.0  0.6911964646308703  0.6146871272488851  0.9422769337038522  1.0000
  C   C28       1.0  0.30880242452057866  0.3853098092318774  0.05772401569871026  1.0000
  C   C29       1.0  0.8283541064396616  0.5367696896912618  0.9270923830016008  1.0000
  C   C30       1.0  0.17164723880909347  0.46322836352396735  0.07290673063712212  1.0000
  C   C31       1.0  0.9603935936317071  0.5885694064079205  0.8096477056901182  1.0000
  C   C32       1.0  0.0396078242425091  0.4114297372690245  0.19035502758124784  1.0000
  C   C33       1.0  0.9504698016843348  0.7156644572080069  0.7108787190146804  1.0000
  C   C34       1.0  0.0495290203179479  0.2843313922557869  0.28912055355361593  1.0000
  C   C35       1.0  0.808626651866895  0.7861789304410891  0.73350882985136  1.0000
  C   C36       1.0  0.1913699607295811  0.21382013657710525  0.2664912146243382  1.0000
  N   N1        1.0  0.2641688030199916  0.016859916307936398  0.8294678090691863  1.0000
  N   N2        1.0  0.735831475207661  0.9831402917765429  0.17053398603915343  1.0000
  N   N3        1.0  0.6809276179024549  0.7369658277032156  0.8472554692762421  1.0000
  N   N4        1.0  0.31906887134827855  0.2630310721705484  0.1527451071276786  1.0000
  O   O1        1.0  0.3448567127438479  0.6863733914399289  0.7972247945899867  1.0000
  O   O2        1.0  0.6551529745917719  0.3136237089111446  0.20277734760688312  1.0000
  O   O3        1.0  0.5101174479762065  0.8587581930309227  0.6283516479266994  1.0000
  O   O4        1.0  0.4898903246272396  0.14124753412375668  0.37164507936108776  1.0000
  O   O5        1.0  0.3860532663920324  0.961682527527131  0.16415998868082243  1.0000
  O   O6        1.0  0.6139454240500654  0.03831114962510179  0.8358369016181375  1.0000
  O   O7        1.0  0.3753140046292102  0.7679330500698995  0.0782831446997606  1.0000
  O   O8        1.0  0.6246846296163113  0.232059546954865  0.9217159543616804  1.0000
