data_image0
_chemical_formula_structural       U2H28C44O14
_chemical_formula_sum              "U2 H28 C44 O14"
_cell_length_a       9.917382712918709
_cell_length_b       9.917409123620086
_cell_length_c       10.829698365898723
_cell_angle_alpha    79.19223237605635
_cell_angle_beta     79.19176105805437
_cell_angle_gamma    69.90235223851842

_space_group_name_H-M_alt    "P 1"
_space_group_IT_number       1

loop_
  _space_group_symop_operation_xyz
  'x, y, z'

loop_
  _atom_site_type_symbol
  _atom_site_label
  _atom_site_symmetry_multiplicity
  _atom_site_fract_x
  _atom_site_fract_y
  _atom_site_fract_z
  _atom_site_occupancy
  U   U1        1.0  0.42438642162093737  0.5756200014771475  0.7499980047248798  1.0000
  U   U2        1.0  0.5756187720869261  0.42438413469130853  0.2499982456059087  1.0000
  H   H1        1.0  0.12989886560931288  0.8332541237089259  0.8246840673259113  1.0000
  H   H2        1.0  0.1667373779397963  0.8700827678213938  0.6753136857217326  1.0000
  H   H3        1.0  0.870097691731125  0.16674809540548094  0.17531686919063824  1.0000
  H   H4        1.0  0.8332631845327113  0.12991290313674134  0.32468771241201466  1.0000
  H   H5        1.0  0.7556011866622112  0.7126951054385842  0.11679870779250488  1.0000
  H   H6        1.0  0.2873012063717936  0.244406040568549  0.3831967266154662  1.0000
  H   H7        1.0  0.24439819273539598  0.2873081646225017  0.8832061430036686  1.0000
  H   H8        1.0  0.7126908830613558  0.7555973525366468  0.6168038843861366  1.0000
  H   H9        1.0  0.4887894458712835  0.9295305890901419  0.7695570768917434  1.0000
  H   H10       1.0  0.07046485246159756  0.5112032380340281  0.7304471986518022  1.0000
  H   H11       1.0  0.5112086173472361  0.07046294784514372  0.23044054497240296  1.0000
  H   H12       1.0  0.9295325248381655  0.48878926612636053  0.2695535056162869  1.0000
  H   H13       1.0  0.4836853526675496  0.13718449330477972  0.5983646513714546  1.0000
  H   H14       1.0  0.8628090454186793  0.5163040888088586  0.9016368933689587  1.0000
  H   H15       1.0  0.5163117506196001  0.862812301342892  0.40163347685343337  1.0000
  H   H16       1.0  0.13719049777518671  0.48369478047450815  0.09835856838982691  1.0000
  H   H17       1.0  0.5894776616953407  0.7751147753105626  0.9549981212131796  1.0000
  H   H18       1.0  0.2248788073469612  0.4105258683270064  0.5450036345720689  1.0000
  H   H19       1.0  0.4105260286811543  0.2248808465503344  0.0450054884285933  1.0000
  H   H20       1.0  0.775119123909512  0.5894752598293636  0.4549990975146584  1.0000
  H   H21       1.0  0.9115805526669405  0.06909835142475627  0.9434597984759134  1.0000
  H   H22       1.0  0.9309011454628473  0.08842674022109517  0.556531079663138  1.0000
  H   H23       1.0  0.0884302665885598  0.930896986198313  0.056530563534941854  1.0000
  H   H24       1.0  0.0690951378649771  0.9115797693805942  0.4434672808102036  1.0000
  H   H25       1.0  0.9154194150240824  0.8591746075920027  0.1113500624083202  1.0000
  H   H26       1.0  0.14082637742819057  0.08458483201707878  0.3886413243239558  1.0000
  H   H27       1.0  0.08458468725854826  0.14082633753108095  0.888647888786309  1.0000
  H   H28       1.0  0.8591650494422253  0.9154207102726916  0.6113571698759657  1.0000
  C   C1        1.0  0.7537807553448487  0.8033039548418444  0.041994578652769135  1.0000
  C   C2        1.0  0.19668695172695996  0.24622035672946652  0.457998651563038  1.0000
  C   C3        1.0  0.24621531378581804  0.19669286465545346  0.9580037327935925  1.0000
  C   C4        1.0  0.8033046494964181  0.7537776367586204  0.5419993343683772  1.0000
  C   C5        1.0  0.6474591907943291  0.19344070630961602  0.6652355254724183  1.0000
  C   C6        1.0  0.806559801260583  0.35253989900787996  0.834765398764496  1.0000
  C   C7        1.0  0.35253784627770546  0.8065669039380053  0.3347671157235013  1.0000
  C   C8        1.0  0.19344368085022268  0.6474632377191795  0.16523503758251934  1.0000
  C   C9        1.0  0.7427592871358967  0.16411010834965364  0.7535486907382846  1.0000
  C   C10       1.0  0.8358891386166861  0.257236707844143  0.7464516666750993  1.0000
  C   C11       1.0  0.2572387183456898  0.8358942526694689  0.24645436448770397  1.0000
  C   C12       1.0  0.16411394646583222  0.7427642790963276  0.2535483085226247  1.0000
  C   C13       1.0  0.6286249041820824  0.32218851861941283  0.5662932381749  1.0000
  C   C14       1.0  0.6778067494267148  0.37137215135359714  0.9337122908031572  1.0000
  C   C15       1.0  0.37137713186611176  0.6778093196950863  0.4337130398407467  1.0000
  C   C16       1.0  0.3221922498989684  0.6286289858886603  0.06629393962535354  1.0000
  C   C17       1.0  0.6560046034694836  0.9574082644932886  0.8552546847064234  1.0000
  C   C18       1.0  0.04258250707330546  0.34400119717778926  0.6447429549734877  1.0000
  C   C19       1.0  0.3440027756355519  0.042585057279232785  0.14474220855527875  1.0000
  C   C20       1.0  0.9574082826689291  0.6560065197481959  0.35525618359719857  1.0000
  C   C21       1.0  0.7492941410862952  0.04253741919328749  0.8503017471852201  1.0000
  C   C22       1.0  0.95745669339189  0.2507080820437153  0.6496924247775836  1.0000
  C   C23       1.0  0.25071061528088723  0.9574613682613416  0.14969740042027274  1.0000
  C   C24       1.0  0.042539084769799757  0.7492930109731047  0.35030146984394145  1.0000
  C   C25       1.0  0.5595551309557363  0.9941608315000677  0.7639079092862177  1.0000
  C   C26       1.0  0.005833222805272057  0.44044677219317646  0.7360893823475221  1.0000
  C   C27       1.0  0.4404550023810144  0.005833473348104703  0.2360855351285878  1.0000
  C   C28       1.0  0.9941609010281169  0.5595565372772454  0.2639071806478696  1.0000
  C   C29       1.0  0.5573083845444344  0.10801501833361728  0.6692598024606582  1.0000
  C   C30       1.0  0.8919864736176845  0.44269220622139455  0.8307388401261588  1.0000
  C   C31       1.0  0.44269274676261  0.8919924500960974  0.33073750389528556  1.0000
  C   C32       1.0  0.10801632897403118  0.5573130627224785  0.1692576386375464  1.0000
  C   C33       1.0  0.6612111375011622  0.8382363085354354  0.9522581848080519  1.0000
  C   C34       1.0  0.16175456982679748  0.3387884048778175  0.5477382914853592  1.0000
  C   C35       1.0  0.3387890682554299  0.16176041156334967  0.047739393752415496  1.0000
  C   C36       1.0  0.8382384137907907  0.6612085061361196  0.45226241040705867  1.0000
  C   C37       1.0  0.8432959927996532  0.003157100724465101  0.9445830198783368  1.0000
  C   C38       1.0  0.9968398870997885  0.1567062125019731  0.5554120158469829  1.0000
  C   C39       1.0  0.1567049412666037  0.9968406945686252  0.05541607823226259  1.0000
  C   C40       1.0  0.003157604737474136  0.8432927234483997  0.4445856531363858  1.0000
  C   C41       1.0  0.8448494627970361  0.8870890309120438  0.03808025118760131  1.0000
  C   C42       1.0  0.11290447219059269  0.1551512717563739  0.4619134743119984  1.0000
  C   C43       1.0  0.15515275400377243  0.1129044235924965  0.9619184785722862  1.0000
  C   C44       1.0  0.8870912826150741  0.844846639300968  0.538085619515151  1.0000
  O   O1        1.0  0.5386126998430781  0.682973828347883  0.7513611436729093  1.0000
  O   O2        1.0  0.3170217260125908  0.4613978257466298  0.7486434579087342  1.0000
  O   O3        1.0  0.46139255321205735  0.3170303672077353  0.24864154939357508  1.0000
  O   O4        1.0  0.6829816903512906  0.538602086601557  0.2513575756898375  1.0000
  O   O5        1.0  0.6016572136965265  0.44653920675175124  0.600402821738342  1.0000
  O   O6        1.0  0.5534509492478178  0.3983419786285437  0.8996028508052374  1.0000
  O   O7        1.0  0.398346179311325  0.5534575236369574  0.3996034110658471  1.0000
  O   O8        1.0  0.44654637031501204  0.6016613496156751  0.10040328682469375  1.0000
  O   O9        1.0  0.1976344117347466  0.8023661664510937  0.7500026257528418  1.0000
  O   O10       1.0  0.8023570919074956  0.19762541221476226  0.25000023624493645  1.0000
  O   O11       1.0  0.636840793927334  0.301104388005541  0.45264225984524126  1.0000
  O   O12       1.0  0.6988960641172212  0.36315655675061004  0.0473633543085441  1.0000
  O   O13       1.0  0.363164509996892  0.6988998584533518  0.5473659555661354  1.0000
  O   O14       1.0  0.3011106286008739  0.6368497722258439  0.9526405370765826  1.0000
