data_image0
_chemical_formula_structural       Ca2H12C18O14
_chemical_formula_sum              "Ca2 H12 C18 O14"
_cell_length_a       7.019860703234512
_cell_length_b       8.340679530605815
_cell_length_c       9.913715077750009
_cell_angle_alpha    98.24137057282152
_cell_angle_beta     103.33265808623435
_cell_angle_gamma    108.74032422659876

_space_group_name_H-M_alt    "P 1"
_space_group_IT_number       1

loop_
  _space_group_symop_operation_xyz
  'x, y, z'

loop_
  _atom_site_type_symbol
  _atom_site_label
  _atom_site_symmetry_multiplicity
  _atom_site_fract_x
  _atom_site_fract_y
  _atom_site_fract_z
  _atom_site_occupancy
  Ca  Ca1       1.0  0.30809445526128343  0.5699078431233603  0.10359207047682871  1.0000
  Ca  Ca2       1.0  0.6919052382736764  0.43009137634233235  0.8964066419549184  1.0000
  H   H1        1.0  0.4493856116562186  0.7014323413015121  0.44725853736313337  1.0000
  H   H2        1.0  0.5506120706941289  0.2985655760596657  0.5527417181281109  1.0000
  H   H3        1.0  0.8251272295417282  0.08311338172777741  0.24547774363605157  1.0000
  H   H4        1.0  0.17487096526695464  0.9168885002574071  0.754523176843918  1.0000
  H   H5        1.0  0.8118350592000638  0.0907358021657174  0.6776796593029388  1.0000
  H   H6        1.0  0.18816405722814966  0.9092620536398497  0.3223207875090849  1.0000
  H   H7        1.0  0.29824379949570096  0.49390719699857744  0.5908259046227897  1.0000
  H   H8        1.0  0.7017544311823088  0.5060946536679508  0.40917602576556084  1.0000
  H   H9        1.0  0.15451727482462732  0.7882142112807601  0.9303351319424992  1.0000
  H   H10       1.0  0.8454921127425694  0.21178996713540943  0.06966365902236762  1.0000
  H   H11       1.0  0.35761025808757546  0.9172417551215729  0.054502927826454974  1.0000
  H   H12       1.0  0.6424008363316105  0.08275703453657711  0.9454952953547462  1.0000
  C   C1        1.0  0.070270830562471  0.2994486573564145  0.4060449229887552  1.0000
  C   C2        1.0  0.9297231625303795  0.7005507770130492  0.5939540340682612  1.0000
  C   C3        1.0  0.061572782207257065  0.30317425121180713  0.6499003330644015  1.0000
  C   C4        1.0  0.938421924379405  0.696823883216574  0.3500965100601121  1.0000
  C   C5        1.0  0.8919299442527093  0.14668557351328806  0.3584046192578256  1.0000
  C   C6        1.0  0.10806975637247951  0.8533161842789665  0.6415985123596926  1.0000
  C   C7        1.0  0.6163977717532134  0.904543001797343  0.39892862834716414  1.0000
  C   C8        1.0  0.38360051648298576  0.09545370957872729  0.601066483486413  1.0000
  C   C9        1.0  0.8833444681039211  0.1493960120519375  0.6015059839740572  1.0000
  C   C10       1.0  0.11665598188439931  0.8506044144805714  0.3984960436193532  1.0000
  C   C11       1.0  0.1729679744699695  0.37412565354078  0.3011153792804038  1.0000
  C   C12       1.0  0.8270339095962169  0.6258747114361257  0.6988868396337863  1.0000
  C   C13       1.0  0.1490099677968857  0.3874213160898137  0.8061682430648389  1.0000
  C   C14       1.0  0.8509876786841417  0.6125766325900273  0.1938310025180172  1.0000
  C   C15       1.0  0.15567497785688997  0.3771928683541645  0.5524133522788688  1.0000
  C   C16       1.0  0.8443239663149313  0.6228076823712739  0.4475864641769789  1.0000
  C   C17       1.0  0.7994322120039713  0.0709691414958584  0.45567307918954475  1.0000
  C   C18       1.0  0.2005673092746036  0.9290327728896984  0.5443250028860263  1.0000
  O   O1        1.0  0.32991982908950485  0.5193370884944314  0.3444460466362216  1.0000
  O   O2        1.0  0.670081442000601  0.480661944141012  0.6555568967498572  1.0000
  O   O3        1.0  0.020313528369570063  0.3953549786430486  0.8766143573410901  1.0000
  O   O4        1.0  0.9796876351125761  0.6046441479483774  0.12338555631982472  1.0000
  O   O5        1.0  0.5579854712245619  0.8239609567195597  0.49692279408234435  1.0000
  O   O6        1.0  0.4420135517761281  0.1760420696951286  0.5030834613760646  1.0000
  O   O7        1.0  0.34757557588836363  0.4495400404323462  0.8650721634310159  1.0000
  O   O8        1.0  0.6524220347233438  0.5504579395661581  0.1349260722434522  1.0000
  O   O9        1.0  0.5278976627018253  0.8464598215623551  0.2686636585606266  1.0000
  O   O10       1.0  0.4720949034033879  0.15354221268928106  0.7313395263613884  1.0000
  O   O11       1.0  0.10515648573915831  0.2941053874652297  0.1700898522313636  1.0000
  O   O12       1.0  0.8948487430717548  0.705898850343125  0.8299124044047232  1.0000
  O   O13       1.0  0.30183217764999176  0.8067074036893446  0.9841210258320814  1.0000
  O   O14       1.0  0.698175876357091  0.1932942039998835  0.0158761843513915  1.0000
