data_image0
_chemical_formula_structural       Zn8H28C48O30
_chemical_formula_sum              "Zn8 H28 C48 O30"
_cell_length_a       18.557215601255475
_cell_length_b       18.54496555510328
_cell_length_c       18.572632683258206
_cell_angle_alpha    90.33877932670516
_cell_angle_beta     119.4989098456867
_cell_angle_gamma    120.17533982268321

_space_group_name_H-M_alt    "P 1"
_space_group_IT_number       1

loop_
  _space_group_symop_operation_xyz
  'x, y, z'

loop_
  _atom_site_type_symbol
  _atom_site_label
  _atom_site_symmetry_multiplicity
  _atom_site_fract_x
  _atom_site_fract_y
  _atom_site_fract_z
  _atom_site_occupancy
  Zn  Zn1       1.0  0.08719407095770035  0.9535737998675841  0.544243472607235  1.0000
  Zn  Zn2       1.0  0.09082516132498601  0.12759055588880838  0.5435961862749181  1.0000
  Zn  Zn3       1.0  0.9167384365686504  0.9575721526975867  0.5471650380676963  1.0000
  Zn  Zn4       1.0  0.9133566194995167  0.9520287950755627  0.3736273217916876  1.0000
  Zn  Zn5       1.0  0.9127378587583266  0.5408535423275963  0.9589796283767671  1.0000
  Zn  Zn6       1.0  0.08846839667732102  0.5456364856766454  0.9639540967173378  1.0000
  Zn  Zn7       1.0  0.916840107313277  0.3694303356487083  0.9595484799759931  1.0000
  Zn  Zn8       1.0  0.08225525721540097  0.5420203736502884  0.1336152385051151  1.0000
  H   H1        1.0  0.1350502651151118  0.0327987483240335  0.20366668966662627  1.0000
  H   H2        1.0  0.10081717586390938  0.3077363718648413  0.4046195396052213  1.0000
  H   H3        1.0  0.9598035142730197  0.7316589646532488  0.41453608845274204  1.0000
  H   H4        1.0  0.9252854365458706  0.1462449688798699  0.2345337738769333  1.0000
  H   H5        1.0  0.9109116620145697  0.19802365389867294  0.8071618464699883  1.0000
  H   H6        1.0  0.035582854153453504  0.35530249235929284  0.7650502972425459  1.0000
  H   H7        1.0  0.8913512150884486  0.10370963476126599  0.6943414680452096  1.0000
  H   H8        1.0  0.0879201431910062  0.27212782216778914  0.7334165701836073  1.0000
  H   H9        1.0  0.5957661198537139  0.1852657893170573  0.7845624800140883  1.0000
  H   H10       1.0  0.5830461245388179  0.33737394428045764  0.8285633137724063  1.0000
  H   H11       1.0  0.40801339419587623  0.0896873651241705  0.7149272706593663  1.0000
  H   H12       1.0  0.8912614344616899  0.794431658179036  0.7076447797302948  1.0000
  H   H13       1.0  0.42312339921151937  0.25956739379347477  0.6885756241939093  1.0000
  H   H14       1.0  0.8993491862267292  0.5784855941165078  0.4119004912282309  1.0000
  H   H15       1.0  0.8577475724670691  0.4720473763306572  0.29017343816794755  1.0000
  H   H16       1.0  0.07439107805838326  0.7856490438787844  0.10133198265118898  1.0000
  H   H17       1.0  0.13966364078441984  0.9397752954602439  0.10986098398685586  1.0000
  H   H18       1.0  0.06933828101335138  0.9710906137466395  0.29177851279423095  1.0000
  H   H19       1.0  0.8662935361276922  0.6699953837069046  0.7694187266800512  1.0000
  H   H20       1.0  0.21398816669270795  0.7792054495585174  0.8307701736502439  1.0000
  H   H21       1.0  0.7844264797862837  0.4625116680729277  0.028638342959034425  1.0000
  H   H22       1.0  0.032885950038029084  0.7668505533241188  0.6893494960034874  1.0000
  H   H23       1.0  0.40619632519377563  0.7130972617854425  0.31901045461079763  1.0000
  H   H24       1.0  0.4180836067786089  0.7024364998180417  0.1598142647524484  1.0000
  H   H25       1.0  0.5934249952886218  0.8105729545119117  0.4112254022150525  1.0000
  H   H26       1.0  0.5820905269845157  0.7715384900460122  0.24291275907651064  1.0000
  H   H27       1.0  0.09342826310171404  0.4012553025472911  0.31137778485950923  1.0000
  H   H28       1.0  0.9455290074334501  0.22972035739039848  0.15234207723253942  1.0000
  C   C1        1.0  0.9907295390661945  0.13235258398289318  0.3633079229338635  1.0000
  C   C2        1.0  0.10935545607407704  0.9117794274898542  0.14799228417038543  1.0000
  C   C3        1.0  0.10705366829229503  0.9645663536046811  0.20137764613158288  1.0000
  C   C4        1.0  0.9919576557996381  0.8533378416053949  0.6316494374854432  1.0000
  C   C5        1.0  0.07055090025505707  0.930197788937633  0.25059201843103557  1.0000
  C   C6        1.0  0.9361597496534773  0.7124612185105192  0.7727968319469486  1.0000
  C   C7        1.0  0.013865693232325905  0.7068876163021472  0.8274499825459218  1.0000
  C   C8        1.0  0.9378409142927994  0.7701552595460086  0.7203395986273479  1.0000
  C   C9        1.0  0.9897980372851123  0.7929163198047247  0.6834689312844374  1.0000
  C   C10       1.0  0.44458406878533907  0.726403531603502  0.2861376362403618  1.0000
  C   C11       1.0  0.3857232421250456  0.6913076544985086  0.19763506299590716  1.0000
  C   C12       1.0  0.909021171719019  0.5686787460228687  0.23347964697477863  1.0000
  C   C13       1.0  0.5550702745479442  0.7811877390360564  0.3409362116192656  1.0000
  C   C14       1.0  0.6141238309027416  0.7985652760653466  0.3119067732967764  1.0000
  C   C15       1.0  0.04613909463459002  0.32972964590936005  0.27867088845414406  1.0000
  C   C16       1.0  0.27694872433912116  0.13253771592410854  0.6320982316231183  1.0000
  C   C17       1.0  0.9940073587463729  0.29994178923529796  0.19034203393097474  1.0000
  C   C18       1.0  0.04580492385890986  0.2743802909155947  0.33358071507229436  1.0000
  C   C19       1.0  0.983577208422382  0.18496177323184068  0.30417533529181623  1.0000
  C   C20       1.0  0.9518401348677302  0.2302172058146752  0.7775470852033026  1.0000
  C   C21       1.0  0.9968187164531629  0.31817108788196435  0.7946424071778896  1.0000
  C   C22       1.0  0.9518957867894785  0.174707332669044  0.7224095074332058  1.0000
  C   C23       1.0  0.9572256863644313  0.6607560653635575  0.23962652573171545  1.0000
  C   C24       1.0  0.022646741021802093  0.20305739283774218  0.7052751027732216  1.0000
  C   C25       1.0  0.557309278769587  0.21624201232041426  0.7797446747606358  1.0000
  C   C26       1.0  0.6159444683085128  0.30310681375742377  0.826528601894161  1.0000
  C   C27       1.0  0.4470192683228049  0.16069206668952768  0.7254234002488857  1.0000
  C   C28       1.0  0.7263152407245812  0.8564985966810994  0.36966872321717403  1.0000
  C   C29       1.0  0.3893450398614037  0.1904449335850344  0.6849005602948993  1.0000
  C   C30       1.0  0.27346791382288416  0.6355278348710554  0.1438140848030898  1.0000
  C   C31       1.0  0.727884002981938  0.3574312995922995  0.878103255592599  1.0000
  C   C32       1.0  0.001893922050818779  0.6413434958823032  0.8744444989436676  1.0000
  C   C33       1.0  0.9981115316074991  0.3594063760663034  0.13773886928888845  1.0000
  C   C34       1.0  0.9702265560005044  0.7192201165688841  0.3039049288829432  1.0000
  C   C35       1.0  0.997472591708544  0.3701985753632399  0.855804546178206  1.0000
  C   C36       1.0  0.9996331560804776  0.6431089352910674  0.1337652167429437  1.0000
  C   C37       1.0  0.01657868326559249  0.1424074331168583  0.6470899531899479  1.0000
  C   C38       1.0  0.006580625636608624  0.863982733229008  0.3641949612130518  1.0000
  C   C39       1.0  0.9476133831739376  0.6868500096647593  0.36495911468102815  1.0000
  C   C40       1.0  0.9138420078761555  0.6015387605668109  0.3635264483765469  1.0000
  C   C41       1.0  0.8923731736349721  0.5417623527889645  0.2961034379470816  1.0000
  C   C42       1.0  0.1204600320532449  0.7694307814045515  0.8521771208604323  1.0000
  C   C43       1.0  0.8622429338011913  0.49547660991814974  0.15571275317824976  1.0000
  C   C44       1.0  0.9935303078588476  0.6969763263054246  0.18822013475239874  1.0000
  C   C45       1.0  0.03264894938153169  0.7861756828691782  0.1922553192146951  1.0000
  C   C46       1.0  0.03380962330425074  0.8410643365193806  0.24896192875133508  1.0000
  C   C47       1.0  0.004235826193905566  0.80664998395018  0.3044646620911777  1.0000
  C   C48       1.0  0.07335916955281602  0.8254414317450195  0.14356761975597007  1.0000
  O   O1        1.0  0.0021537629183893924  0.9974270325430151  0.5027099700561949  1.0000
  O   O2        1.0  0.9371337774806817  0.319828714956614  0.05426393534334992  1.0000
  O   O3        1.0  0.04947759393171935  0.45414953286375936  0.8718063989137979  1.0000
  O   O4        1.0  0.9319860743548034  0.048213851660094086  0.3247291591963374  1.0000
  O   O5        1.0  0.04619277534398956  0.6089662885874674  0.17437728764353722  1.0000
  O   O6        1.0  0.9482181437270187  0.32861586930953723  0.8882292537203115  1.0000
  O   O7        1.0  0.9610945025629789  0.637079061958353  0.053142999748928194  1.0000
  O   O8        1.0  0.9186776324644085  0.5943550660363215  0.8684913494273943  1.0000
  O   O9        1.0  0.061160271799025244  0.4428687769672379  0.1780425029137903  1.0000
  O   O10       1.0  0.23107048667541377  0.6057331675995671  0.061130306783944446  1.0000
  O   O11       1.0  0.7711386199935929  0.32165166261780337  0.8782978569078497  1.0000
  O   O12       1.0  0.23264935438621856  0.05021655797870749  0.6231493815166618  1.0000
  O   O13       1.0  0.047639158157636495  0.8694962280622177  0.6037868898725167  1.0000
  O   O14       1.0  0.233756835580941  0.17153377389571733  0.6000304974190201  1.0000
  O   O15       1.0  0.7705768450056286  0.8864175599620693  0.4524832549391747  1.0000
  O   O16       1.0  0.0834811098539987  0.17941774248929923  0.6302089757768174  1.0000
  O   O17       1.0  0.9422884923703878  0.8823930976194488  0.3261243373006908  1.0000
  O   O18       1.0  0.9463428510531743  0.05965621716716638  0.6184570365788532  1.0000
  O   O19       1.0  0.0712313615689624  0.8887654909168815  0.4466560119339037  1.0000
  O   O20       1.0  0.18154998363016261  0.8425615767707412  0.9081843565315781  1.0000
  O   O21       1.0  0.14190668089550224  0.7353430215785436  0.8067281401085469  1.0000
  O   O22       1.0  0.8639977982189893  0.4304760349827603  0.15797394121764105  1.0000
  O   O23       1.0  0.7697647212395753  0.8718215707137489  0.32976878922421093  1.0000
  O   O24       1.0  0.809965280058286  0.5075198439653974  0.07992975575992027  1.0000
  O   O25       1.0  0.05369144219401532  0.1733263752477328  0.4462018556438992  1.0000
  O   O26       1.0  0.9404050683664876  0.8841567655390461  0.619377828224721  1.0000
  O   O27       1.0  0.9992091069451662  0.49884535846522465  0.00418830678844976  1.0000
  O   O28       1.0  0.2283459171460861  0.6213974794079602  0.181814825410143  1.0000
  O   O29       1.0  0.7739516430039899  0.4395917054599607  0.9197544842915166  1.0000
  O   O30       1.0  0.07872617575076651  0.6384940822816887  0.9175633969662659  1.0000
