data_image0
_chemical_formula_structural       Cd2H16C16S4N12
_chemical_formula_sum              "Cd2 H16 C16 S4 N12"
_cell_length_a       5.604940989024168
_cell_length_b       7.7654617755313575
_cell_length_c       14.173773448333892
_cell_angle_alpha    103.45562240443229
_cell_angle_beta     90.00036382428057
_cell_angle_gamma    89.99997473915838

_space_group_name_H-M_alt    "P 1"
_space_group_IT_number       1

loop_
  _space_group_symop_operation_xyz
  'x, y, z'

loop_
  _atom_site_type_symbol
  _atom_site_label
  _atom_site_symmetry_multiplicity
  _atom_site_fract_x
  _atom_site_fract_y
  _atom_site_fract_z
  _atom_site_occupancy
  Cd  Cd1       1.0  0.9999957906513545  0.9999984314998474  0.9999968668081178  1.0000
  Cd  Cd2       1.0  0.49999700328118024  0.4999966208715633  0.5000012899450255  1.0000
  H   H1        1.0  0.20857050421265202  0.36965952909928035  0.9399483790055854  1.0000
  H   H2        1.0  0.2914268389725195  0.8696471945630863  0.4399458438728487  1.0000
  H   H3        1.0  0.7914306389415131  0.6303496366815724  0.06005827187720311  1.0000
  H   H4        1.0  0.7085814407331413  0.13034344639375922  0.5600592390722666  1.0000
  H   H5        1.0  0.5805444930039911  0.4254717918518837  0.7830134199048189  1.0000
  H   H6        1.0  0.9194534790105992  0.9254649301370891  0.2830174954007205  1.0000
  H   H7        1.0  0.419467354885832  0.5745292404439654  0.2169809438843089  1.0000
  H   H8        1.0  0.08054944828813862  0.0745270585157343  0.716989164050503  1.0000
  H   H9        1.0  0.5461701792972633  0.12267523179330202  0.856033086575529  1.0000
  H   H10       1.0  0.9538327883785414  0.6226697516281022  0.35603952737532296  1.0000
  H   H11       1.0  0.45384166854438496  0.8773270299445812  0.14395578364727157  1.0000
  H   H12       1.0  0.046177275447981  0.3773274622598566  0.6439635400239749  1.0000
  H   H13       1.0  0.9890470473362994  0.5574962497385345  0.8424089566707094  1.0000
  H   H14       1.0  0.5109485797118295  0.05748380645161429  0.342409277853143  1.0000
  H   H15       1.0  0.010950527486251402  0.44251017334351433  0.1575917131513549  1.0000
  H   H16       1.0  0.4890614841267009  0.942505498633672  0.6575949355895003  1.0000
  C   C1        1.0  0.0335193224526762  0.341592275623448  0.9075080058108609  1.0000
  C   C2        1.0  0.46647746988163874  0.8415787765037593  0.40750855266464475  1.0000
  C   C3        1.0  0.9664836047655568  0.6584141001580549  0.0924898359860435  1.0000
  C   C4        1.0  0.5335325939416579  0.15841446524451896  0.5924940272445126  1.0000
  C   C5        1.0  0.7029743619217897  0.3677461486464112  0.8261773730050379  1.0000
  C   C6        1.0  0.7970172551494131  0.8677364894382721  0.32617659018809053  1.0000
  C   C7        1.0  0.29702142874032933  0.632265523319056  0.1738211187702419  1.0000
  C   C8        1.0  0.20298745624018016  0.1322554046105964  0.6738244132022118  1.0000
  C   C9        1.0  0.6890102538430581  0.2187089625002727  0.862719452682441  1.0000
  C   C10       1.0  0.8109856445234273  0.7186992767640632  0.36271658206800333  1.0000
  C   C11       1.0  0.3109908892543203  0.7812908403501169  0.13728040466028085  1.0000
  C   C12       1.0  0.18901728270650858  0.28129125776096947  0.6372821377998219  1.0000
  C   C13       1.0  0.49312609476464786  0.8117890647791628  0.8975079185423025  1.0000
  C   C14       1.0  0.006859833802906201  0.3117820214918937  0.3975152430668132  1.0000
  C   C15       1.0  0.5068679117476834  0.18821069076668104  0.10248911076040197  1.0000
  C   C16       1.0  0.9931306044980132  0.6882191881805895  0.6024897258150544  1.0000
  S   S1        1.0  0.2480970948288359  0.802366198486915  0.834049137980891  1.0000
  S   S2        1.0  0.2518788121496344  0.30236460838072093  0.33405769541217717  1.0000
  S   S3        1.0  0.7518969116733345  0.1976361815009113  0.1659468022994872  1.0000
  S   S4        1.0  0.7481027054269092  0.6976299455794006  0.6659443399518564  1.0000
  N   N1        1.0  0.8960191238025671  0.2042454805191696  0.9134980064570613  1.0000
  N   N2        1.0  0.6039865874616837  0.704233049532377  0.4134964394037794  1.0000
  N   N3        1.0  0.10399093998947251  0.7957622429623187  0.08650141186080872  1.0000
  N   N4        1.0  0.3960163397859588  0.2957641288765985  0.5865045069633935  1.0000
  N   N5        1.0  0.9215942042121767  0.4424616685168843  0.8553039290197617  1.0000
  N   N6        1.0  0.5784085869787958  0.9424466440026437  0.3553062181729274  1.0000
  N   N7        1.0  0.078419427836522  0.5575473317100406  0.1446928237675422  1.0000
  N   N8        1.0  0.4215996926899309  0.057543926000803894  0.6446946227249055  1.0000
  N   N9        1.0  0.6715404997926555  0.8204393055133397  0.9430564970551811  1.0000
  N   N10       1.0  0.8284335525746725  0.3204298320050399  0.4430649686424316  1.0000
  N   N11       1.0  0.3284517225603238  0.17956702296247326  0.05693851669746408  1.0000
  N   N12       1.0  0.17154618084622797  0.6795607261636932  0.5569351652135666  1.0000
