data_image0
_chemical_formula_structural       Cs2Ag2H24C8S8N4O16
_chemical_formula_sum              "Cs2 Ag2 H24 C8 S8 N4 O16"
_cell_length_a       5.417633574295709
_cell_length_b       10.160983774242311
_cell_length_c       14.844061663897934
_cell_angle_alpha    78.46998783262677
_cell_angle_beta     79.46512833248322
_cell_angle_gamma    74.53194433614647

_space_group_name_H-M_alt    "P 1"
_space_group_IT_number       1

loop_
  _space_group_symop_operation_xyz
  'x, y, z'

loop_
  _atom_site_type_symbol
  _atom_site_label
  _atom_site_symmetry_multiplicity
  _atom_site_fract_x
  _atom_site_fract_y
  _atom_site_fract_z
  _atom_site_occupancy
  Cs  Cs1       1.0  0.16131671140930604  0.7502234288322427  0.2501136382984086  1.0000
  Cs  Cs2       1.0  0.8386751284585969  0.24977646106205498  0.7498821209912591  1.0000
  Ag  Ag1       1.0  0.9999773370069247  0.49999295608359523  0.4999999558131448  1.0000
  Ag  Ag2       1.0  0.9999778205703078  0.999999895061258  0.999994757873651  1.0000
  H   H1        1.0  0.3576387560020255  0.9386131875826678  0.4707406788120991  1.0000
  H   H2        1.0  0.7669175698973449  0.5610772391774502  0.029177297683077103  1.0000
  H   H3        1.0  0.6424101434217562  0.061374230155543295  0.5292687278508694  1.0000
  H   H4        1.0  0.2330563607659926  0.43893916062032917  0.9708253616327126  1.0000
  H   H5        1.0  0.5147576419541907  0.7654159223247986  0.4464454486577552  1.0000
  H   H6        1.0  0.7274926198551698  0.7340371816800726  0.053632652383761595  1.0000
  H   H7        1.0  0.4852926155028003  0.2345808129405782  0.5535612090517787  1.0000
  H   H8        1.0  0.2724723575276189  0.2659658071930764  0.9463638500098881  1.0000
  H   H9        1.0  0.4973034839801968  0.8050085351622586  0.5603020172206142  1.0000
  H   H10       1.0  0.8629874858513277  0.694650263795893  0.9396715862812074  1.0000
  H   H11       1.0  0.5027104806007471  0.19497684058082138  0.43970215656519684  1.0000
  H   H12       1.0  0.13697856844979134  0.305359950589505  0.06032735291303481  1.0000
  H   H13       1.0  0.10057017716371763  0.5479886578199284  0.821044140731516  1.0000
  H   H14       1.0  0.4710464519759012  0.9517866954238701  0.6791270296331291  1.0000
  H   H15       1.0  0.8994258782126537  0.45201322782663295  0.17896693308041733  1.0000
  H   H16       1.0  0.5289607769071979  0.04822246280620131  0.3208763704569293  1.0000
  H   H17       1.0  0.8487828283486393  0.5771615000572083  0.7485313547143093  1.0000
  H   H18       1.0  0.17557006322120836  0.9227147543408518  0.751570993395518  1.0000
  H   H19       1.0  0.1512159595544986  0.42284451802684236  0.2514803343510437  1.0000
  H   H20       1.0  0.8244389089147077  0.0772965732470183  0.24841071672337722  1.0000
  H   H21       1.0  0.9953226245393128  0.7144330270069404  0.7522074885522301  1.0000
  H   H22       1.0  0.46311399803449405  0.785500028799909  0.7481042644989415  1.0000
  H   H23       1.0  0.004718870856677933  0.2855637114877752  0.247798543272296  1.0000
  H   H24       1.0  0.5369161447307179  0.21450404475917403  0.2518809306833703  1.0000
  C   C1        1.0  0.3999875064236775  0.8278089122057605  0.4986542409711774  1.0000
  C   C2        1.0  0.7268657037742725  0.6718768630278192  0.0013573395694023744  1.0000
  C   C3        1.0  0.6000431556690202  0.17217438896791035  0.5013512765638595  1.0000
  C   C4        1.0  0.27312652569666795  0.3281281672858468  0.9986445690282295  1.0000
  C   C5        1.0  0.027370445485509595  0.6025300955034822  0.7562035183303806  1.0000
  C   C6        1.0  0.3872123683680684  0.8973621669435302  0.7439727165192096  1.0000
  C   C7        1.0  0.972639293898013  0.3974728463967026  0.24380268050980897  1.0000
  C   C8        1.0  0.612788599658053  0.10263359291423768  0.2560218305093898  1.0000
  S   S1        1.0  0.0966899649529723  0.7857614377770687  0.5305095659174768  1.0000
  S   S2        1.0  0.4130441554350455  0.7143561997159225  0.9696473170995148  1.0000
  S   S3        1.0  0.9033207569330914  0.21423840791027265  0.46949548541036284  1.0000
  S   S4        1.0  0.5869579367765282  0.2856292176506515  0.03034806535612939  1.0000
  S   S5        1.0  0.2688625594791179  0.5473678193840001  0.6645160815646135  1.0000
  S   S6        1.0  0.48132808573443997  0.9527675228126142  0.8356539469401696  1.0000
  S   S7        1.0  0.731151327301994  0.45265690030000627  0.33547582968540723  1.0000
  S   S8        1.0  0.5186625496045919  0.047225114527158496  0.1643451433585525  1.0000
  N   N1        1.0  0.15576369623375538  0.6180172668015516  0.5672094714316174  1.0000
  N   N2        1.0  0.3415888518809709  0.8821470341296233  0.9330062758719464  1.0000
  N   N3        1.0  0.8442143320164562  0.38198153979685395  0.432796930639455  1.0000
  N   N4        1.0  0.6583668580486729  0.11786010176221141  0.06698781825460998  1.0000
  O   O1        1.0  0.9813401629562367  0.8045257578191638  0.4461485009459381  1.0000
  O   O2        1.0  0.2321373549474188  0.6957950251374854  0.05407697075334279  1.0000
  O   O3        1.0  0.018695978399392726  0.19546789018426844  0.5538552086233963  1.0000
  O   O4        1.0  0.7678222142194499  0.30420802667986646  0.9459061472433204  1.0000
  O   O5        1.0  0.9489745229290206  0.8638219186025752  0.603026303534719  1.0000
  O   O6        1.0  0.41558758913257055  0.6364230916966422  0.897133679770036  1.0000
  O   O7        1.0  0.05104491852687685  0.13618103326646747  0.39697769987415654  1.0000
  O   O8        1.0  0.5844147203293771  0.36358713302968954  0.10286279436643038  1.0000
  O   O9        1.0  0.29800886393265147  0.3986605614806109  0.670222691307245  1.0000
  O   O10       1.0  0.36679656726430215  0.10139208035620581  0.8298841176317212  1.0000
  O   O11       1.0  0.7019624145287722  0.6013144879179962  0.3297791884805648  1.0000
  O   O12       1.0  0.6331771840009068  0.8986202165385891  0.1701116097631612  1.0000
  O   O13       1.0  0.5011729959692276  0.5899785987940191  0.6706810318571926  1.0000
  O   O14       1.0  0.762424161638414  0.9103915102000427  0.8295405237319856  1.0000
  O   O15       1.0  0.49884980158267944  0.41000782821825504  0.3293193646725285  1.0000
  O   O16       1.0  0.2375614619961652  0.08962074507126519  0.1704639949930637  1.0000
