data_image0
_chemical_formula_structural       Cd4H56C40I8N16
_chemical_formula_sum              "Cd4 H56 C40 I8 N16"
_cell_length_a       10.76824975343219
_cell_length_b       11.494657654
_cell_length_c       13.2924
_cell_angle_alpha    90.0
_cell_angle_beta     101.38204180336596
_cell_angle_gamma    90.0

_space_group_name_H-M_alt    "P 1"
_space_group_IT_number       1

loop_
  _space_group_symop_operation_xyz
  'x, y, z'

loop_
  _atom_site_type_symbol
  _atom_site_label
  _atom_site_symmetry_multiplicity
  _atom_site_fract_x
  _atom_site_fract_y
  _atom_site_fract_z
  _atom_site_occupancy
  Cd  Cd1       1.0  0.6203976437855232  0.6009200280615872  0.2510409210355746  1.0000
  Cd  Cd2       1.0  0.8795941015149183  0.10092949567717822  0.24896095656472286  1.0000
  Cd  Cd3       1.0  0.379587064457084  0.39907060637023056  0.7489487349525846  1.0000
  Cd  Cd4       1.0  0.1204171307420694  0.8990672285401828  0.7510517476751346  1.0000
  H   H1        1.0  0.6221747527494159  0.8807856923409005  0.17127703798328756  1.0000
  H   H2        1.0  0.8778255181270823  0.3807838503547672  0.32872319340033584  1.0000
  H   H3        1.0  0.3778345849351226  0.11920407212155482  0.8287255833381764  1.0000
  H   H4        1.0  0.1221658211191183  0.6192033041996012  0.6712773027404779  1.0000
  H   H5        1.0  0.12371273952958721  0.1515765020973632  0.4285699947688499  1.0000
  H   H6        1.0  0.37628956109711  0.6515809539915836  0.07143168958433678  1.0000
  H   H7        1.0  0.8763041764447692  0.8484341416298095  0.5714375996754129  1.0000
  H   H8        1.0  0.6237017781490906  0.3484201200725892  0.9285680542468883  1.0000
  H   H9        1.0  0.3118428371416115  0.6572053059249825  0.3193638387990276  1.0000
  H   H10       1.0  0.1881604107713173  0.1571973741533057  0.1806319785242891  1.0000
  H   H11       1.0  0.6881598695393336  0.34279924801664663  0.6806362177752732  1.0000
  H   H12       1.0  0.8118394540509399  0.8428019599721424  0.8193608529231327  1.0000
  H   H13       1.0  0.3268649021466246  0.7568890054739867  0.42284429497497206  1.0000
  H   H14       1.0  0.1731449767698976  0.25688281364103466  0.07715860095305521  1.0000
  H   H15       1.0  0.6731387518205452  0.24311293855955546  0.5771619315229088  1.0000
  H   H16       1.0  0.8268586771972721  0.7431147805456889  0.9228363409009719  1.0000
  H   H17       1.0  0.4532764601400388  0.6605425084024007  0.4133019322763759  1.0000
  H   H18       1.0  0.0467334187764834  0.1605397964469049  0.0866934405557487  1.0000
  H   H19       1.0  0.5467328775444997  0.33945943563114167  0.5867006890450952  1.0000
  H   H20       1.0  0.953268340618223  0.8394612776172752  0.9132981891662056  1.0000
  H   H21       1.0  0.5312239074182443  0.1415596748489278  0.2302806035037435  1.0000
  H   H22       1.0  0.9687716270271097  0.6415571669882497  0.2697128521688867  1.0000
  H   H23       1.0  0.4687863775525187  0.8584405292458825  0.7697206646453978  1.0000
  H   H24       1.0  0.0312235013640034  0.3584421671372056  0.7302807266634446  1.0000
  H   H25       1.0  0.3779937290214406  0.11761376812553691  0.1532138773622052  1.0000
  H   H26       1.0  0.122007624319032  0.6176190899891267  0.3467816370674015  1.0000
  H   H27       1.0  0.6220137140906417  0.8823786062450055  0.8467937072326848  1.0000
  H   H28       1.0  0.8779912932169935  0.38237415435078503  0.6532117952427612  1.0000
  H   H29       1.0  0.5164708717020048  0.0771367035617132  0.1072575303569749  1.0000
  H   H30       1.0  0.9835284518882618  0.577131585792941  0.3927410449606157  1.0000
  H   H31       1.0  0.4835356241238458  0.922867850379916  0.8927431320047532  1.0000
  H   H32       1.0  0.0164657292166197  0.42286861830186956  0.6072568962824009  1.0000
  H   H33       1.0  0.9977216414437038  0.8440677653956712  0.2013777215594388  1.0000
  H   H34       1.0  0.5022691565705131  0.344064183470806  0.2986127199501496  1.0000
  H   H35       1.0  0.0022801179510097  0.1559437483008637  0.7986319635926904  1.0000
  H   H36       1.0  0.4977146043858625  0.6559360206240044  0.7013843076870572  1.0000
  H   H37       1.0  0.1523672006430203  0.7856501926229529  0.20712571270760097  1.0000
  H   H38       1.0  0.3476294162663081  0.2856396509431889  0.2928728060356889  1.0000
  H   H39       1.0  0.8476317168930053  0.2143587111654952  0.7928774996272381  1.0000
  H   H40       1.0  0.65235813383498  0.7143579432435345  0.7071338551040257  1.0000
  H   H41       1.0  0.0955309742439781  0.8979179990113338  0.11879376984821732  1.0000
  H   H42       1.0  0.4044609062342133  0.3979144170864758  0.38119722087447633  1.0000
  H   H43       1.0  0.9044622595746858  0.10209003480774471  0.8812085338054843  1.0000
  H   H44       1.0  0.5955294857257627  0.6020883969164288  0.6188046284386672  1.0000
  H   H45       1.0  0.3630446050559826  0.2128475743815343  0.4770283422010735  1.0000
  H   H46       1.0  0.1369520118533458  0.7128468064595739  0.0229581395887664  1.0000
  H   H47       1.0  0.6369855729255676  0.7871517597439209  0.5229776109512018  1.0000
  H   H48       1.0  0.8630308018168051  0.2871507877271497  0.9770319658152716  1.0000
  H   H49       1.0  0.47337597932760644  0.1267719356124459  0.4251300287614583  1.0000
  H   H50       1.0  0.0266140065781286  0.6267746475679418  0.0748523836620407  1.0000
  H   H51       1.0  0.5266380947880691  0.8732169588806473  0.5748658266983782  1.0000
  H   H52       1.0  0.9733659652333345  0.3732220766494195  0.9251372674014392  1.0000
  H   H53       1.0  0.40854939359464026  0.0735619994481311  0.529213268075658  1.0000
  H   H54       1.0  0.0914500651733761  0.5735594915874458  0.9707759249835206  1.0000
  H   H55       1.0  0.5914646805210353  0.9264312448917738  0.4707833396937673  1.0000
  H   H56       1.0  0.908543168645288  0.4264337527524589  0.029220360193463083  1.0000
  C   C1        1.0  0.3783394884946887  0.7153236092367409  0.3691000061758913  1.0000
  C   C2        1.0  0.1216694431356018  0.215318287373151  0.1308989767573294  1.0000
  C   C3        1.0  0.6216660600449302  0.2846835546129753  0.6309020093581595  1.0000
  C   C4        1.0  0.8783313689728801  0.7846819167216597  0.8690947584465435  1.0000
  C   C5        1.0  0.4306789471689996  0.8042475277011008  0.3076458947077327  1.0000
  C   C6        1.0  0.0693252480301538  0.30424133586814867  0.1923523309912127  1.0000
  C   C7        1.0  0.5693266013706264  0.1957587661792601  0.6923568731359069  1.0000
  C   C8        1.0  0.930670827647191  0.6957579982572996  0.8076421515975626  1.0000
  C   C9        1.0  0.38889983536541456  0.9197733693548431  0.2843788084644316  1.0000
  C   C10       1.0  0.11110057068882641  0.4197732673074341  0.2156158022087382  1.0000
  C   C11       1.0  0.6111076077466677  0.0802294446480616  0.7156235099633292  1.0000
  C   C12       1.0  0.8888907685573743  0.5802278067567386  0.7843801800745425  1.0000
  C   C13       1.0  0.4692126563551611  0.9649830672547354  0.2227010061546579  1.0000
  C   C14       1.0  0.030795327988904803  0.46498122526860197  0.2772918068549828  1.0000
  C   C15       1.0  0.5308042596192024  0.0350119170239012  0.7773020744320577  1.0000
  C   C16       1.0  0.9691941166848395  0.5350102791325781  0.7227023679154031  1.0000
  C   C17       1.0  0.47367532177567995  0.08159181667090822  0.1754885898284257  1.0000
  C   C18       1.0  0.0263269788510172  0.5815849589634041  0.3245055714288584  1.0000
  C   C19       1.0  0.5263368577675394  0.9184083874239093  0.8245144858336104  1.0000
  C   C20       1.0  0.9736681495400958  0.41840741540713833  0.6754880074034731  1.0000
  C   C21       1.0  0.0956626470296769  0.8655307795563516  0.19676312224598294  1.0000
  C   C22       1.0  0.4043273388760511  0.3655228477846749  0.3032298225117813  1.0000
  C   C23       1.0  0.9043362705063487  0.1344798641708209  0.8032438516368076  1.0000
  C   C24       1.0  0.5956583166527807  0.6344782262794979  0.6967705172574981  1.0000
  C   C25       1.0  0.1507066078851835  0.9530644869782422  0.2752052957340966  1.0000
  C   C26       1.0  0.3492833780205515  0.45305568523720313  0.224786144404483  1.0000
  C   C27       1.0  0.8493017825131304  0.0469461567489304  0.7247979264501083  1.0000
  C   C28       1.0  0.6506975410771432  0.5469445188576145  0.7752134381305211  1.0000
  C   C29       1.0  0.2804734536984768  0.9775993629605468  0.3140650554870774  1.0000
  C   C30       1.0  0.2195193740659391  0.47759404109696396  0.1859283436112449  1.0000
  C   C31       1.0  0.71953493669983  0.022409540827894106  0.685934405149169  1.0000
  C   C32       1.0  0.7804691233215806  0.5224052930284843  0.8140732028081885  1.0000
  C   C33       1.0  0.2815230468391974  0.0680751026741291  0.3849334092928061  1.0000
  C   C34       1.0  0.21846788635276232  0.5680699849053568  0.11506344845976463  1.0000
  C   C35       1.0  0.7184910272764782  0.9319338011143188  0.6150692169533443  1.0000
  C   C36       1.0  0.7815187164623012  0.4319310891588232  0.8849370427563702  1.0000
  C   C37       1.0  0.3871217791152901  0.1239427952431669  0.4574672970738618  1.0000
  C   C38       1.0  0.112872943221582  0.6239420273212062  0.04252189106063041  1.0000
  C   C39       1.0  0.6128941895728417  0.8760565388822812  0.5425326228276361  1.0000
  C   C40       1.0  0.8871155541659377  0.3760564368348796  0.957473636882078  1.0000
  I   I1        1.0  0.7248132155627331  0.5232491633108367  0.4430886398686908  1.0000
  I   I2        1.0  0.7751974754622708  0.023253411110246702  0.05691325743033809  1.0000
  I   I3        1.0  0.2751875965457486  0.4767606104469736  0.5569050953351748  1.0000
  I   I4        1.0  0.2248222823707735  0.9767407031990275  0.9430985529024412  1.0000
  I   I5        1.0  0.7354474507592457  0.6396606337763657  0.08894935521954041  1.0000
  I   I6        1.0  0.7645405053962833  0.1396735812694061  0.41104815504537845  1.0000
  I   I7        1.0  0.2645410466282669  0.360322170931184  0.9110409065560319  1.0000
  I   I8        1.0  0.23544136098763596  0.8603448921820345  0.588944055840571  1.0000
  N   N1        1.0  0.5300265376259432  0.7808262125037473  0.26351353747306666  1.0000
  N   N2        1.0  0.9699775223954675  0.28082089064015753  0.23648278584043683  1.0000
  N   N3        1.0  0.4699771163412266  0.2191757315297949  0.7364889274768629  1.0000
  N   N4        1.0  0.030020447854333603  0.7191749636078344  0.7635112473324598  1.0000
  N   N5        1.0  0.5514939381268675  0.8787656234794385  0.21259953359231795  1.0000
  N   N6        1.0  0.9485082273220868  0.3787646514626672  0.2873987437562491  1.0000
  N   N7        1.0  0.4485135049852076  0.12122849082983582  0.7874065463833946  1.0000
  N   N8        1.0  0.0514897429277141  0.6212277229078751  0.7125945371070588  1.0000
  N   N9        1.0  0.0773572879581081  0.0249228823183216  0.3181557230446828  1.0000
  N   N10       1.0  0.4226364870925323  0.5249151546414552  0.18184083673886423  1.0000
  N   N11       1.0  0.922650155153967  0.975082541592677  0.6818526138598031  1.0000
  N   N12       1.0  0.5773491684362995  0.475081569575906  0.8181564937920527  1.0000
  N   N13       1.0  0.1585292975567327  0.09400192963763492  0.38324779484346294  1.0000
  N   N14       1.0  0.3414673193526028  0.5939994217769495  0.1167492192806421  1.0000
  N   N15       1.0  0.8414857238451744  0.9060061041814507  0.6167617536358564  1.0000
  N   N16       1.0  0.6585192834624607  0.40599991234849864  0.8832497673163077  1.0000
