data_image0
_chemical_formula_structural       Al2H10C17S2O11
_chemical_formula_sum              "Al2 H10 C17 S2 O11"
_cell_length_a       6.859605148760561
_cell_length_b       11.144142286539335
_cell_length_c       12.566835470461793
_cell_angle_alpha    74.69068941746634
_cell_angle_beta     77.21013547793576
_cell_angle_gamma    72.10985381970627

_space_group_name_H-M_alt    "P 1"
_space_group_IT_number       1

loop_
  _space_group_symop_operation_xyz
  'x, y, z'

loop_
  _atom_site_type_symbol
  _atom_site_label
  _atom_site_symmetry_multiplicity
  _atom_site_fract_x
  _atom_site_fract_y
  _atom_site_fract_z
  _atom_site_occupancy
  Al  Al1       1.0  0.501008138659728  0.5002852384765006  0.49718367708479144  1.0000
  Al  Al2       1.0  0.002403839575855228  0.49694930668719195  0.49900843604701345  1.0000
  H   H1        1.0  0.25477475035454944  0.597561435560344  0.3647138429306409  1.0000
  H   H2        1.0  0.7882500940537654  0.34620791909230053  0.5868255309726605  1.0000
  H   H3        1.0  0.1305009601533911  0.11505408299263563  0.49689919886332484  1.0000
  H   H4        1.0  0.7551209080511256  0.11742393986260422  0.5038518514300421  1.0000
  H   H5        1.0  0.25322036167592904  0.8810357998380383  0.4950373283504915  1.0000
  H   H6        1.0  0.6175648048281559  0.49143761498552135  0.12927620859482403  1.0000
  H   H7        1.0  0.9392941405089842  0.7839797375783065  0.5025222080645689  1.0000
  H   H8        1.0  0.5153402366044305  0.5123481583108215  0.7832485153455622  1.0000
  H   H9        1.0  0.45776331025457045  0.5916683835327277  0.8971578677616563  1.0000
  H   H10       1.0  0.5354829847895247  0.4205116808039191  0.9213025777355526  1.0000
  C   C1        1.0  0.8252724634065348  0.5108206876648324  0.2998270247505275  1.0000
  C   C2        1.0  0.6393970161743783  0.7278059773217366  0.49598187851144343  1.0000
  C   C3        1.0  0.17891349086057315  0.4910969280074796  0.6948362387062871  1.0000
  C   C4        1.0  0.36303797322148057  0.2704953529559689  0.5032041552894029  1.0000
  C   C5        1.0  0.5720874963297008  0.8662942110691958  0.49842479786106236  1.0000
  C   C6        1.0  0.4356550523720912  0.13012445236337564  0.501147715154211  1.0000
  C   C7        1.0  0.7154869425933085  0.9338740208580563  0.5014352821979031  1.0000
  C   C8        1.0  0.29310021162954303  0.06361455063674981  0.4983674594840579  1.0000
  C   C9        1.0  0.6446903367995558  0.0657684728374974  0.502387426419034  1.0000
  C   C10       1.0  0.3620211864634869  0.9334757673190095  0.4970253016539559  1.0000
  C   C11       1.0  0.22816021272137027  0.5028802916100332  0.8906752434872942  1.0000
  C   C12       1.0  0.7775494652768272  0.49694826014253823  0.10588927630947609  1.0000
  C   C13       1.0  0.11905593445764144  0.4934111632056357  0.8139947732469537  1.0000
  C   C14       1.0  0.8894170946171798  0.5062934534825345  0.1812604323666704  1.0000
  C   C15       1.0  0.8999195230614702  0.4950051932614485  0.9994049838775325  1.0000
  C   C16       1.0  0.10193828332162273  0.5034209460281219  0.9960982471923215  1.0000
  C   C17       1.0  0.4456517266140594  0.5079769626278505  0.8706827672191578  1.0000
  S   S1        1.0  0.8687291707313705  0.4853071459521345  0.8699802595498766  1.0000
  S   S2        1.0  0.1427898773409597  0.5120499605699961  0.12372008997630249  1.0000
  O   O1        1.0  0.639744636317957  0.508212902450154  0.3439900262245104  1.0000
  O   O2        1.0  0.8337045984807644  0.6705432638226013  0.5000012389861936  1.0000
  O   O3        1.0  0.036398875003897026  0.48387278595144073  0.6477005649991412  1.0000
  O   O4        1.0  0.4983773603900515  0.3252722864787216  0.5081414017046484  1.0000
  O   O5        1.0  0.3616583786152532  0.4958707340049529  0.6473959570080297  1.0000
  O   O6        1.0  0.17012574872423877  0.32439426208905076  0.5006522929440891  1.0000
  O   O7        1.0  0.9664984419907228  0.5179859262078921  0.3480793812270234  1.0000
  O   O8        1.0  0.5069834864207156  0.6729182542804892  0.4890901254156006  1.0000
  O   O9        1.0  0.24117254889567621  0.5619427780851538  0.4444665467914533  1.0000
  O   O10       1.0  0.7612612631003162  0.4362500209359863  0.5490041828672858  1.0000
  O   O11       1.0  0.9193813083137667  0.8767378491331073  0.5031976594574772  1.0000
