data_image0
_chemical_formula_structural       Zn2H44C32N8O8
_chemical_formula_sum              "Zn2 H44 C32 N8 O8"
_cell_length_a       9.107829808309312
_cell_length_b       11.184058694815281
_cell_length_c       12.918431710810099
_cell_angle_alpha    67.25463418856363
_cell_angle_beta     78.79496002194831
_cell_angle_gamma    82.73422502064459

_space_group_name_H-M_alt    "P 1"
_space_group_IT_number       1

loop_
  _space_group_symop_operation_xyz
  'x, y, z'

loop_
  _atom_site_type_symbol
  _atom_site_label
  _atom_site_symmetry_multiplicity
  _atom_site_fract_x
  _atom_site_fract_y
  _atom_site_fract_z
  _atom_site_occupancy
  Zn  Zn1       1.0  0.005248635482828895  0.21242333872207547  0.7951297820690258  1.0000
  Zn  Zn2       1.0  0.994753335150136  0.787578722848636  0.20486837814886635  1.0000
  H   H1        1.0  0.8433949308851111  0.31489317142493434  0.5696223845244361  1.0000
  H   H2        1.0  0.15660600883584405  0.6851078705210015  0.43037394426995224  1.0000
  H   H3        1.0  0.28653111216805627  0.3371838032567566  0.60860089903467  1.0000
  H   H4        1.0  0.7134698268933588  0.66281724876211  0.3913962005244969  1.0000
  H   H5        1.0  0.2665734835226202  0.4331208091487325  0.37543446285062754  1.0000
  H   H6        1.0  0.7334271149484834  0.566884136397384  0.6245621220305324  1.0000
  H   H7        1.0  0.9831145918140293  0.5157611272123572  0.2889777422081822  1.0000
  H   H8        1.0  0.01688179077140719  0.48424082150047093  0.7110196740309077  1.0000
  H   H9        1.0  0.857744059920023  0.3915125925831333  0.3632553048785496  1.0000
  H   H10       1.0  0.14225575928945483  0.6084884711121178  0.6367442664851454  1.0000
  H   H11       1.0  0.062017868482818976  0.228960750813279  0.32402323850126885  1.0000
  H   H12       1.0  0.9379785971066995  0.7710402572547607  0.6759768113928856  1.0000
  H   H13       1.0  0.17887134750754535  0.3597439493654733  0.2448136656145365  1.0000
  H   H14       1.0  0.8211286423268545  0.6402551625296908  0.7551857777057761  1.0000
  H   H15       1.0  0.8812249143482516  0.31909925793389965  0.18790182997950924  1.0000
  H   H16       1.0  0.11877370266475396  0.6809027480096005  0.8120968087688496  1.0000
  H   H17       1.0  0.9771596877007337  0.46322919827422043  0.11774607151899368  1.0000
  H   H18       1.0  0.022839014954499172  0.5367718267327676  0.8822521178252742  1.0000
  H   H19       1.0  0.038139278664424084  0.31812510728514104  0.007962792582809177  1.0000
  H   H20       1.0  0.9618572719077814  0.6818749299193244  0.9920375786720541  1.0000
  H   H21       1.0  0.20085718078095025  0.34385637199032715  0.051414032784002445  1.0000
  H   H22       1.0  0.7991403190182708  0.6561456053378408  0.9485839947097221  1.0000
  H   H23       1.0  0.9443573428054604  0.09339125576305919  0.08330352126084511  1.0000
  H   H24       1.0  0.055642476404017246  0.9066098079321994  0.9166960501028496  1.0000
  H   H25       1.0  0.2748540772974124  0.8823063310777924  0.2841900004144621  1.0000
  H   H26       1.0  0.7251435904885779  0.11769373474200513  0.7158109820950358  1.0000
  H   H27       1.0  0.3110829522198628  0.14644458061028595  0.2154659839152373  1.0000
  H   H28       1.0  0.6889133407661132  0.8535584094766335  0.7845365063166697  1.0000
  H   H29       1.0  0.6319498689101833  0.29251770811341515  0.04577089502956265  1.0000
  H   H30       1.0  0.36804839507373516  0.7074755415154713  0.9542307954752688  1.0000
  H   H31       1.0  0.7493568922214208  0.41760631930752373  0.016027544905405516  1.0000
  H   H32       1.0  0.2506428275879741  0.582383095628245  0.9839775838264373  1.0000
  H   H33       1.0  0.4613821864568805  0.44723643233290733  0.9145068397350327  1.0000
  H   H34       1.0  0.5386190042549189  0.5527617574598764  0.08549507773019356  1.0000
  H   H35       1.0  0.5809407102312819  0.5729619862638772  0.8789807626328424  1.0000
  H   H36       1.0  0.4190652062623385  0.42703337518072004  0.12102225163864938  1.0000
  H   H37       1.0  0.5105612067173269  0.210938341288184  0.8464997716745231  1.0000
  H   H38       1.0  0.4894411855314045  0.7890589163292888  0.15350384917082496  1.0000
  H   H39       1.0  0.40742726690685055  0.21244242579868464  0.9744228628502114  1.0000
  H   H40       1.0  0.5925714324506969  0.787558649572958  0.02557918031800456  1.0000
  H   H41       1.0  0.4562357694570806  0.97908112833742  0.8993415354632786  1.0000
  H   H42       1.0  0.5437598305690442  0.0209169888892049  0.10066272108229407  1.0000
  H   H43       1.0  0.3310070914492798  0.9807437994866959  0.02028013422248878  1.0000
  H   H44       1.0  0.6689892015366964  0.019259190600223505  0.9797223560094253  1.0000
  C   C1        1.0  0.9624159500244641  0.329715836337634  0.5503850652513691  1.0000
  C   C2        1.0  0.037588257014682755  0.6702862522449565  0.44961200518142164  1.0000
  C   C3        1.0  0.19342680089353334  0.3436478976838373  0.5652349705277757  1.0000
  C   C4        1.0  0.8065740538447271  0.6563541151256802  0.4347610369059041  1.0000
  C   C5        1.0  0.18575623718941603  0.38932262218808933  0.4511323054801508  1.0000
  C   C6        1.0  0.8142455628186269  0.6106813911827089  0.5488659827811304  1.0000
  C   C7        1.0  0.9771862515174091  0.4113988231336165  0.3388482915342053  1.0000
  C   C8        1.0  0.022812280512901892  0.588604153673458  0.6611500258534521  1.0000
  C   C9        1.0  0.06120164164207857  0.332955924455817  0.26993777456024043  1.0000
  C   C10       1.0  0.9387947409433576  0.6670460242570116  0.7300596416788492  1.0000
  C   C11       1.0  0.993417308003863  0.357906760805733  0.16386058828857844  1.0000
  C   C12       1.0  0.006581394651377085  0.6420942642012548  0.8361376010556896  1.0000
  C   C13       1.0  0.09128690584983448  0.30056235636595824  0.08221869725067421  1.0000
  C   C14       1.0  0.9087095603992238  0.6994386416291577  0.917780581878695  1.0000
  C   C15       1.0  0.0370375588039025  0.06941880092324484  0.1308894716100539  1.0000
  C   C16       1.0  0.9629610582091032  0.9305832050202553  0.869109167138305  1.0000
  C   C17       1.0  0.2091441248766869  0.9649928509594333  0.23456884481009876  1.0000
  C   C18       1.0  0.7908533736034613  0.035009146514589404  0.7654307242132035  1.0000
  C   C19       1.0  0.22917691113865143  0.0950834463650239  0.20060279187389085  1.0000
  C   C20       1.0  0.7708205886605696  0.904918530963144  0.7993952356198335  1.0000
  C   C21       1.0  0.7629433448796731  0.3486974312105744  0.8813303066375937  1.0000
  C   C22       1.0  0.2370627402602564  0.6512960086527287  0.11867489188488621  1.0000
  C   C23       1.0  0.6714243116924903  0.38432928646130193  0.9786290727797108  1.0000
  C   C24       1.0  0.3285761860594503  0.61566403047118  0.021374610999174565  1.0000
  C   C25       1.0  0.5402181538428009  0.4835181925959446  0.9489188235691729  1.0000
  C   C26       1.0  0.4597856118868719  0.5164761609002612  0.051084831083336626  1.0000
  C   C27       1.0  0.2733561192893958  0.2185626784282277  0.8553737407374484  1.0000
  C   C28       1.0  0.7266461912743336  0.7814354996881718  0.14462570492325005  1.0000
  C   C29       1.0  0.4133301787297795  0.16826981192636487  0.9106904144288706  1.0000
  C   C30       1.0  0.5866699784318569  0.8317273985333598  0.08931275467200092  1.0000
  C   C31       1.0  0.43554748763228446  0.021014182399497403  0.965691799046553  1.0000
  C   C32       1.0  0.5644502624982478  0.9789849528484352  0.03431258788279469  1.0000
  N   N1        1.0  0.053077127630210386  0.3069430453830649  0.6262234710435804  1.0000
  N   N2        1.0  0.9469260478373795  0.6930580336476878  0.3737725387304921  1.0000
  N   N3        1.0  0.038408862468891386  0.3796584144441297  0.44350692196356784  1.0000
  N   N4        1.0  0.9615929388582241  0.620345578780814  0.5564898247681356  1.0000
  N   N5        1.0  0.08889008512651489  0.9504412704721759  0.19065044343986404  1.0000
  N   N6        1.0  0.9111085325460238  0.049560725398393415  0.8093474245437092  1.0000
  N   N7        1.0  0.1194701799151758  0.15976576056227296  0.1348925382411608  1.0000
  N   N8        1.0  0.8805262026702607  0.8402361881505628  0.8651048779979289  1.0000
  O   O1        1.0  0.8835553728459896  0.2756589632768325  0.9089653440400056  1.0000
  O   O2        1.0  0.11644641208511781  0.724332440543826  0.09103959371491749  1.0000
  O   O3        1.0  0.7240510616654843  0.3864431351293974  0.7857576711400183  1.0000
  O   O4        1.0  0.2759615627275949  0.6135523274966984  0.21424361530575456  1.0000
  O   O5        1.0  0.19247072861139708  0.13082663939101744  0.8550387674719319  1.0000
  O   O6        1.0  0.8075314982887178  0.8691724894430948  0.14495881529848734  1.0000
  O   O7        1.0  0.24077254490213557  0.3382768580239813  0.8142985470218775  1.0000
  O   O8        1.0  0.7592295917389791  0.6617233222571527  0.18570488050615092  1.0000
