data_image0
_chemical_formula_structural       K2CaH32C28S4O26
_chemical_formula_sum              "K2 Ca1 H32 C28 S4 O26"
_cell_length_a       8.084442165790753
_cell_length_b       9.878146869370076
_cell_length_c       12.705977896277098
_cell_angle_alpha    98.44765092098676
_cell_angle_beta     97.67333165957294
_cell_angle_gamma    105.05056767033982

_space_group_name_H-M_alt    "P 1"
_space_group_IT_number       1

loop_
  _space_group_symop_operation_xyz
  'x, y, z'

loop_
  _atom_site_type_symbol
  _atom_site_label
  _atom_site_symmetry_multiplicity
  _atom_site_fract_x
  _atom_site_fract_y
  _atom_site_fract_z
  _atom_site_occupancy
  K   K1        1.0  0.3142218828868976  0.04054998800054219  0.408154815827821  1.0000
  K   K2        1.0  0.6857763264893393  0.9594513614678349  0.5918439025152294  1.0000
  Ca  Ca1       1.0  1.1684389207206159e-06  0.5000009797933418  0.5000011365388417  1.0000
  H   H1        1.0  0.5180897216673658  0.6956436050968974  0.7872467239373933  1.0000
  H   H2        1.0  0.48191023044127224  0.3043555935159077  0.2127550411624597  1.0000
  H   H3        1.0  0.6436169233474657  0.764750964105403  0.06561027569008357  1.0000
  H   H4        1.0  0.3563838957758207  0.2352471640999667  0.9343898648718961  1.0000
  H   H5        1.0  0.6262093637241649  0.779370279781901  0.2597345216501381  1.0000
  H   H6        1.0  0.37379220958283815  0.22062998377194995  0.7402659287059095  1.0000
  H   H7        1.0  0.10024413940197972  0.5015512501408211  0.1766631772335714  1.0000
  H   H8        1.0  0.8997565668903748  0.49845008382046524  0.8233388976603493  1.0000
  H   H9        1.0  0.12117784819729847  0.48506845697635725  0.979878069451324  1.0000
  H   H10       1.0  0.8788208576290587  0.51493074687982  0.020123591331234505  1.0000
  H   H11       1.0  0.9825151555050905  0.8250541041535301  0.22660434584744843  1.0000
  H   H12       1.0  0.01748641671402849  0.1749461606554021  0.773395317529534  1.0000
  H   H13       1.0  0.21872849475137454  0.4751196310571472  0.6966045688319864  1.0000
  H   H14       1.0  0.7812727014637632  0.5248795648224628  0.30339572662703057  1.0000
  H   H15       1.0  0.3011389114115773  0.4069819102863406  0.6027339320643748  1.0000
  H   H16       1.0  0.6988639092655903  0.5930183467690424  0.39726740958803924  1.0000
  H   H17       1.0  0.47416201195246543  0.3823673198594478  0.3711203260353173  1.0000
  H   H18       1.0  0.5258366916981102  0.6176318865069135  0.6288797607891041  1.0000
  H   H19       1.0  0.6040493439154488  0.28751858664076485  0.3582580460776867  1.0000
  H   H20       1.0  0.3959509841971567  0.7124816809013623  0.6417430869401385  1.0000
  H   H21       1.0  0.9045166811738317  0.901486343812167  0.36715666341877556  1.0000
  H   H22       1.0  0.09548526922502987  0.0985149874159177  0.6328439418343094  1.0000
  H   H23       1.0  0.9266564203925327  0.7462664283776022  0.3649276363231024  1.0000
  H   H24       1.0  0.07334515291447022  0.25373383517624154  0.6350728140329522  1.0000
  H   H25       1.0  0.846926217008601  0.7521330521564026  0.9538537389931038  1.0000
  H   H26       1.0  0.15306911944753673  0.24786724388975054  0.0461422548811115  1.0000
  H   H27       1.0  0.8442040771361831  0.739108127383389  0.7569327062056246  1.0000
  H   H28       1.0  0.15579450715613055  0.26089429226939836  0.24306459307632616  1.0000
  H   H29       1.0  0.3861696787296296  0.982223172320829  0.8230068631201277  1.0000
  H   H30       1.0  0.6138286478290881  0.0177749663712916  0.17699306880725627  1.0000
  H   H31       1.0  0.3828457709162337  0.0007901909228849002  0.021967205147625204  1.0000
  H   H32       1.0  0.6171520624560286  0.9992100896161703  0.97803214527746  1.0000
  C   C1        1.0  0.3806477597085517  0.6255734501047527  0.010644025333668605  1.0000
  C   C2        1.0  0.6193518153082208  0.3744246808338191  0.9893575848691538  1.0000
  C   C3        1.0  0.5246737220057582  0.7070366135259932  0.08927819315123739  1.0000
  C   C4        1.0  0.4753274752972699  0.2929625810985286  0.910722889286852  1.0000
  C   C5        1.0  0.5158588629511486  0.7142087722701335  0.19844838748586113  1.0000
  C   C6        1.0  0.4841410880695989  0.28579042759776035  0.8015525906349268  1.0000
  C   C7        1.0  0.36304396458792343  0.639482544437584  0.2288891738565937  1.0000
  C   C8        1.0  0.6369567406165472  0.3605187907787908  0.771112114058262  1.0000
  C   C9        1.0  0.21876980860932346  0.5578322242240716  0.1515654320147277  1.0000
  C   C10       1.0  0.7812312747748962  0.4421701774114552  0.8484367977762303  1.0000
  C   C11       1.0  0.22941272833990217  0.550309231778414  0.042452005492940335  1.0000
  C   C12       1.0  0.7705851093839161  0.4496910437402946  0.9575504928484264  1.0000
  C   C13       1.0  0.3809159124332382  0.6191332018113512  0.8928669004268527  1.0000
  C   C14       1.0  0.6190845317739573  0.3808638562096079  0.1071346591962268  1.0000
  C   C15       1.0  0.11795810306539785  0.8742490424675184  0.9996172001020938  1.0000
  C   C16       1.0  0.8820421078647273  0.1257544358508795  0.0003827193313981136  1.0000
  C   C17       1.0  0.9650974558953109  0.8014936721006763  0.9255636849835085  1.0000
  C   C18       1.0  0.034899884290496196  0.1985087502853204  0.0744350839392851  1.0000
  C   C19       1.0  0.9630003880159278  0.7935327196699405  0.8151382995345103  1.0000
  C   C20       1.0  0.03699457134835879  0.206466508701979  0.18485753944266747  1.0000
  C   C21       1.0  0.11490804041874708  0.8574653449375658  0.7790789433516777  1.0000
  C   C22       1.0  0.8850897918656245  0.14253493685657764  0.2209196200943424  1.0000
  C   C23       1.0  0.2686547714041864  0.9314760064074363  0.8519666816301876  1.0000
  C   C24       1.0  0.7313450624340802  0.06852640423672092  0.1480330829062666  1.0000
  C   C25       1.0  0.26810380759374663  0.9405623068798692  0.9622753262102819  1.0000
  C   C26       1.0  0.7318924002286024  0.059436913738494516  0.03772219104233439  1.0000
  C   C27       1.0  0.12440750125233538  0.883805433074329  0.1185026711512691  1.0000
  C   C28       1.0  0.8755904449508591  0.11619164170881652  0.8814947449418752  1.0000
  S   S1        1.0  0.35979932766242234  0.6457953484605454  0.3692328477334215  1.0000
  S   S2        1.0  0.6402022467324643  0.35420491383820973  0.6307683896016982  1.0000
  S   S3        1.0  0.10925201016167554  0.8397799966321884  0.6372904248229645  1.0000
  S   S4        1.0  0.8907474454968425  0.16022134759282383  0.36270839783738035  1.0000
  O   O1        1.0  0.18173204209293198  0.5655527948188064  0.376298244773551  1.0000
  O   O2        1.0  0.8182682860196736  0.43444747272332773  0.6237028882442743  1.0000
  O   O3        1.0  0.48717588022015695  0.5717669490937851  0.40780137476829026  1.0000
  O   O4        1.0  0.5128244457166744  0.428233320958519  0.5921981842913907  1.0000
  O   O5        1.0  0.4116761928071567  0.796184574033667  0.4212499403237047  1.0000
  O   O6        1.0  0.5883241363933392  0.2038156922533787  0.5787519796731857  1.0000
  O   O7        1.0  0.2505182136180508  0.5494063455882241  0.8243262888697416  1.0000
  O   O8        1.0  0.7494822295012611  0.45059071368781645  0.17567448377427294  1.0000
  O   O9        1.0  0.5277721600014259  0.6947609909625571  0.8696209570728968  1.0000
  O   O10       1.0  0.4722274139274631  0.30523714123110324  0.1303798661508537  1.0000
  O   O11       1.0  0.22094764290252306  0.9742454377695965  0.6184557446396397  1.0000
  O   O12       1.0  0.7790530579503924  0.0257559024671181  0.3815423953589415  1.0000
  O   O13       1.0  0.1822851426184613  0.7182504164524631  0.6073543583020963  1.0000
  O   O14       1.0  0.8177151844062536  0.2817498523447597  0.3926459877366497  1.0000
  O   O15       1.0  0.9264736599438094  0.8043280532494421  0.5862849803962432  1.0000
  O   O16       1.0  0.07352666381724761  0.19567221931303894  0.4137130047053006  1.0000
  O   O17       1.0  0.2565668778635484  0.9499057074670461  0.18592565478141407  1.0000
  O   O18       1.0  0.743439301304946  0.050093469949238995  0.8140734839886576  1.0000
  O   O19       1.0  0.9748664917065071  0.8140096713135491  0.14334672158333459  1.0000
  O   O20       1.0  0.025135457604463285  0.18599166116962348  0.8566530966906781  1.0000
  O   O21       1.0  0.18870534747267695  0.4183864015865453  0.6205731928120741  1.0000
  O   O22       1.0  0.8112962258343259  0.5816138619673055  0.3794272575439805  1.0000
  O   O23       1.0  0.4844157687641868  0.29162346893919994  0.3316543969813138  1.0000
  O   O24       1.0  0.5155833130661377  0.7083768038463064  0.6683466317192099  1.0000
  O   O25       1.0  0.9803662383611852  0.8413389325937999  0.3470570949287577  1.0000
  O   O26       1.0  0.01963571203767601  0.15866239863428436  0.6529435103243273  1.0000
