data_image0
_chemical_formula_structural       Cd2H10C16N4O10
_chemical_formula_sum              "Cd2 H10 C16 N4 O10"
_cell_length_a       7.629834352734261
_cell_length_b       7.782982708209055
_cell_length_c       8.440661270700057
_cell_angle_alpha    70.29196677043035
_cell_angle_beta     72.57303127900222
_cell_angle_gamma    74.07439595708077

_space_group_name_H-M_alt    "P 1"
_space_group_IT_number       1

loop_
  _space_group_symop_operation_xyz
  'x, y, z'

loop_
  _atom_site_type_symbol
  _atom_site_label
  _atom_site_symmetry_multiplicity
  _atom_site_fract_x
  _atom_site_fract_y
  _atom_site_fract_z
  _atom_site_occupancy
  Cd  Cd1       1.0  0.41281272209040076  0.9434967543902957  0.24587042466282577  1.0000
  Cd  Cd2       1.0  0.5871865445006751  0.05650411730321989  0.7541307561247308  1.0000
  H   H1        1.0  0.7519412245100697  0.801263552715149  0.381635114046297  1.0000
  H   H2        1.0  0.24805942252680793  0.19873732877822195  0.6183645127767576  1.0000
  H   H3        1.0  0.5799552265970862  0.7835370955462083  0.5530310831080669  1.0000
  H   H4        1.0  0.4200440453872645  0.21646379315269118  0.44696890630257247  1.0000
  H   H5        1.0  0.8325915177528744  0.601078738481135  0.8879335400849513  1.0000
  H   H6        1.0  0.16740691103507296  0.39891939274713917  0.11206631393427104  1.0000
  H   H7        1.0  0.15932423910543042  0.40878679340201535  0.816308326459513  1.0000
  H   H8        1.0  0.8406741950757992  0.5912113548316424  0.18369033618277814  1.0000
  H   H9        1.0  0.3922155084957595  0.565800668588821  0.5678760410338412  1.0000
  H   H10       1.0  0.6077842953447146  0.43419745543392463  0.4321234503978033  1.0000
  C   C1        1.0  0.1321715284350803  0.016323140649596706  0.998339093943613  1.0000
  C   C2        1.0  0.8678282807986765  0.9836750003785326  0.0016592061111069224  1.0000
  C   C3        1.0  0.014563387666626716  0.0801051161101185  0.8704310833913238  1.0000
  C   C4        1.0  0.9854350411213205  0.9198930151181485  0.12956877062789837  1.0000
  C   C5        1.0  0.49909192488073745  0.3745432088930443  0.09823804607803771  1.0000
  C   C6        1.0  0.500908963814453  0.6254562137380191  0.9017666929516822  1.0000
  C   C7        1.0  0.478373726925902  0.5715319635900759  0.09235721613254813  1.0000
  C   C8        1.0  0.521625528878616  0.42846887409266543  0.9076463474088569  1.0000
  C   C9        1.0  0.02643377975462611  0.9031780435986222  0.5530299166696365  1.0000
  C   C10       1.0  0.9735657554611453  0.0968214542595049  0.4469704194399639  1.0000
  C   C11       1.0  0.9418188444021922  0.6568664089626636  0.7802506997218543  1.0000
  C   C12       1.0  0.058180696206861233  0.34313310590084717  0.219748445010822  1.0000
  C   C13       1.0  0.12000640409033991  0.5519773273684693  0.7426416594086475  1.0000
  C   C14       1.0  0.8799945115712405  0.4480221802895131  0.257357122736451  1.0000
  C   C15       1.0  0.2491336169840111  0.6379612576166025  0.6031048529705314  1.0000
  C   C16       1.0  0.7508659290183177  0.362038274252292  0.3968931003852205  1.0000
  N   N1        1.0  0.2025082644051538  0.8129297280780392  0.508896357609906  1.0000
  N   N2        1.0  0.7974910075792042  0.1870711606208602  0.49110363180072614  1.0000
  N   N3        1.0  0.8948411920787082  0.8327297428422324  0.6860892325723144  1.0000
  N   N4        1.0  0.10515834313706311  0.16726975501589444  0.31391110353728635  1.0000
  O   O1        1.0  0.29184453661993365  0.04086601864559471  0.993791480469042  1.0000
  O   O2        1.0  0.70815500398912  0.9591334962179163  0.006207664263634335  1.0000
  O   O3        1.0  0.03250615492990512  0.1772507635014833  0.7161799009643628  1.0000
  O   O4        1.0  0.9674950239630961  0.8227473533157338  0.2838192278797039  1.0000
  O   O5        1.0  0.4953808218901444  0.2264909309044612  0.2215298583057361  1.0000
  O   O6        1.0  0.5046200721983212  0.7735085087319928  0.7784736893470596  1.0000
  O   O7        1.0  0.4539431101683108  0.6480371790326132  0.20844139337273757  1.0000
  O   O8        1.0  0.5460561456362003  0.3519636586501348  0.7915621701686675  1.0000
  O   O9        1.0  0.6159998716397581  0.7923519242580215  0.42803912210271716  1.0000
  O   O10       1.0  0.38400077539712657  0.2076489572353495  0.5719605047203443  1.0000
