data_image0
_chemical_formula_structural       Cd8H120C200N56O32
_chemical_formula_sum              "Cd8 H120 C200 N56 O32"
_cell_length_a       15.338840835895153
_cell_length_b       18.048658420870083
_cell_length_c       20.872560020063485
_cell_angle_alpha    89.99972746640437
_cell_angle_beta     90.0001253118764
_cell_angle_gamma    101.1794142459267

_space_group_name_H-M_alt    "P 1"
_space_group_IT_number       1

loop_
  _space_group_symop_operation_xyz
  'x, y, z'

loop_
  _atom_site_type_symbol
  _atom_site_label
  _atom_site_symmetry_multiplicity
  _atom_site_fract_x
  _atom_site_fract_y
  _atom_site_fract_z
  _atom_site_occupancy
  Cd  Cd1       1.0  0.16081280869596531  0.13275667305147465  0.0605295660313772  1.0000
  Cd  Cd2       1.0  0.3391855434887816  0.8672409311827426  0.5605291576783173  1.0000
  Cd  Cd3       1.0  0.8391887058297912  0.8672428965895949  0.9394725344318076  1.0000
  Cd  Cd4       1.0  0.6608129934520619  0.13275691835805506  0.43946911000268324  1.0000
  Cd  Cd5       1.0  0.8522691312623537  0.10614347006291071  0.5605225095897453  1.0000
  Cd  Cd6       1.0  0.6477280154370959  0.8938554632471213  0.060523122813613404  1.0000
  Cd  Cd7       1.0  0.14772996592578383  0.8938600203693741  0.4394786326676083  1.0000
  Cd  Cd8       1.0  0.3522708855897747  0.10614408050448534  0.9394756239621104  1.0000
  H   H1        1.0  0.1593136047389905  0.6383142200510862  0.0453152507932586  1.0000
  H   H2        1.0  0.3406821814883899  0.361686819509771  0.5453130896964709  1.0000
  H   H3        1.0  0.8406870884820137  0.3616875956027742  0.954682058685492  1.0000
  H   H4        1.0  0.6593218999643256  0.6383155932541914  0.4546842197837719  1.0000
  H   H5        1.0  0.0480012363529099  0.4991255080506394  0.8847730886570347  1.0000
  H   H6        1.0  0.4520028305908213  0.5008760930107956  0.3847714933735631  1.0000
  H   H7        1.0  0.9519966472152533  0.500872335011863  0.11522661631720152  1.0000
  H   H8        1.0  0.548006888502151  0.49912524855439955  0.6152238997217481  1.0000
  H   H9        1.0  0.02696062153682993  0.7245202369718842  0.8885431092256084  1.0000
  H   H10       1.0  0.473036918420533  0.27548127970371894  0.3885405576006988  1.0000
  H   H11       1.0  0.9730347698960388  0.2754781449335227  0.1114551584517756  1.0000
  H   H12       1.0  0.5269669668734949  0.7245171863720758  0.6114572309854154  1.0000
  H   H13       1.0  0.05292390322691888  0.8323961794789129  0.9378080679673388  1.0000
  H   H14       1.0  0.4470731181828072  0.16760225682259033  0.4378068761988203  1.0000
  H   H15       1.0  0.9470749977986656  0.16760336427643818  0.0621892415146377  1.0000
  H   H16       1.0  0.5529315418474923  0.8323967804638602  0.562191391484653  1.0000
  H   H17       1.0  0.08380077328825311  0.9858454160337549  0.9817803423340054  1.0000
  H   H18       1.0  0.416196980276503  0.014152797627069405  0.4817821271123748  1.0000
  H   H19       1.0  0.9161971102794696  0.014152427029998207  0.0182188835423176  1.0000
  H   H20       1.0  0.5838080438436891  0.9858479338589563  0.51822093154707  1.0000
  H   H21       1.0  0.22991289268822607  0.0159892701035673  0.1507837640658991  1.0000
  H   H22       1.0  0.27008283976783787  0.98401009046124  0.6507822858304522  1.0000
  H   H23       1.0  0.770084216146664  0.9840080017395468  0.8492188154963783  1.0000
  H   H24       1.0  0.7299157719706741  0.015991141027868104  0.34921646094157677  1.0000
  H   H25       1.0  0.24380052938749944  0.8799224826969766  0.1571626260393586  1.0000
  H   H26       1.0  0.2561926009987374  0.12007681873982534  0.6571589267614684  1.0000
  H   H27       1.0  0.7561958047094068  0.12007421794047707  0.8428375580338994  1.0000
  H   H28       1.0  0.7438007837450301  0.8799243609616316  0.3428364663210601  1.0000
  H   H29       1.0  0.18834007654651694  0.5342948511534689  0.0863027936097325  1.0000
  H   H30       1.0  0.3116593858348082  0.46570150227418605  0.5863006375551763  1.0000
  H   H31       1.0  0.8116631088093486  0.46570642565874465  0.9136954740679569  1.0000
  H   H32       1.0  0.6883435285629744  0.5342924459065301  0.413695713745696  1.0000
  H   H33       1.0  0.11903221431558111  0.26390760441213973  0.9685247356244205  1.0000
  H   H34       1.0  0.3809674756220502  0.7360906977405223  0.46852541336671993  1.0000
  H   H35       1.0  0.8809719137021903  0.7360919911383592  0.0314730529595622  1.0000
  H   H36       1.0  0.619030818596336  0.2639060223218337  0.5314742916101522  1.0000
  H   H37       1.0  0.2387074255051118  0.27171888587476195  0.1470894007201338  1.0000
  H   H38       1.0  0.2612948806392836  0.7282777414642753  0.6470908757193499  1.0000
  H   H39       1.0  0.7612946958278428  0.7282835074593098  0.8529103042481553  1.0000
  H   H40       1.0  0.7387066056538459  0.2717156290150201  0.3529112247565465  1.0000
  H   H41       1.0  0.24547432649352885  0.41104717191255724  0.16064711177379823  1.0000
  H   H42       1.0  0.2545242050556951  0.5889499106844628  0.6606457948066407  1.0000
  H   H43       1.0  0.7545242852462694  0.5889540595728137  0.8393530722919779  1.0000
  H   H44       1.0  0.745479848166106  0.4110463029127305  0.3393534310779813  1.0000
  H   H45       1.0  0.8477341797324414  0.61171265267933  0.5389922440693128  1.0000
  H   H46       1.0  0.6522689301222613  0.38828701581707753  0.0389930258739284  1.0000
  H   H47       1.0  0.15226871633935704  0.3882903118579082  0.46101081458382964  1.0000
  H   H48       1.0  0.347730306761882  0.6117080229723301  0.9610105118904784  1.0000
  H   H49       1.0  0.9326337542001895  0.7340541870489263  0.36613113735811  1.0000
  H   H50       1.0  0.5673701844633214  0.2659449064388825  0.866132284711803  1.0000
  H   H51       1.0  0.0673633080692255  0.2659459020089018  0.6338704840025144  1.0000
  H   H52       1.0  0.4326363891242552  0.734056967483426  0.1338659829673787  1.0000
  H   H53       1.0  0.9476051479728015  0.5074947558898943  0.374518703019703  1.0000
  H   H54       1.0  0.5524011299232257  0.4925060075371096  0.8745179370758008  1.0000
  H   H55       1.0  0.05239726265023137  0.4925059497016732  0.6254829183439483  1.0000
  H   H56       1.0  0.44760883189992745  0.507496463484067  0.1254846424861142  1.0000
  H   H57       1.0  0.8182689434725462  0.49885675502969934  0.5798595045245278  1.0000
  H   H58       1.0  0.6817294232537421  0.5011415257479683  0.0798574743392066  1.0000
  H   H59       1.0  0.18172913625816287  0.5011450347097368  0.4201440332250784  1.0000
  H   H60       1.0  0.31827160582539454  0.49885578494119204  0.9201455843240608  1.0000
  H   H61       1.0  0.9182636306423007  0.2573510372593688  0.4739238663023074  1.0000
  H   H62       1.0  0.5817344994046323  0.7426468716045636  0.9739197239713066  1.0000
  H   H63       1.0  0.0817338705108241  0.7426541279575789  0.5260787132440683  1.0000
  H   H64       1.0  0.41826918973284694  0.25734764777682545  0.026080939210253  1.0000
  H   H65       1.0  0.7952097057296258  0.22526018490985686  0.6517357548062606  1.0000
  H   H66       1.0  0.7047878471030488  0.7747394026388509  0.1517326372552432  1.0000
  H   H67       1.0  0.20479045548528768  0.7747421889893291  0.348268262041735  1.0000
  H   H68       1.0  0.295213135411892  0.22526072526127908  0.8482709005001113  1.0000
  H   H69       1.0  0.7767970890486424  0.3602775749286382  0.6603611414687975  1.0000
  H   H70       1.0  0.7231979123052383  0.6397191245700286  0.1603576501477306  1.0000
  H   H71       1.0  0.2231991984896595  0.6397219429035561  0.3396457499694563  1.0000
  H   H72       1.0  0.27679943925726047  0.3602792767365558  0.8396492412936638  1.0000
  H   H73       1.0  0.929933819289772  0.838188784702375  0.42449079651719057  1.0000
  H   H74       1.0  0.5700676852282881  0.16181336076976297  0.9244909388546816  1.0000
  H   H75       1.0  0.0700676486713618  0.16181360215090734  0.5755113039401678  1.0000
  H   H76       1.0  0.429933418645085  0.8381873318776984  0.075508766116279  1.0000
  H   H77       1.0  0.9024842688696709  0.9815470034562426  0.4714195580473231  1.0000
  H   H78       1.0  0.5975201011455554  0.018452670928503806  0.9714193754007284  1.0000
  H   H79       1.0  0.097520344598145  0.018454851036175106  0.5285811051199047  1.0000
  H   H80       1.0  0.40247957461758693  0.9815474440337585  0.0285798504723616  1.0000
  H   H81       1.0  0.7558670011558348  0.9612609055314397  0.6399129489248523  1.0000
  H   H82       1.0  0.7441346186696551  0.0387365299791895  0.1399138773983495  1.0000
  H   H83       1.0  0.2441291184478231  0.038740864799322615  0.3600848396482377  1.0000
  H   H84       1.0  0.2558592232945358  0.9612607094936724  0.8600877439655507  1.0000
  H   H85       1.0  0.7421231476261881  0.8203757013535836  0.6450946713440757  1.0000
  H   H86       1.0  0.7578761107099652  0.1796228107368237  0.1450950428906737  1.0000
  H   H87       1.0  0.2578738680764587  0.1796272049226887  0.3549045545211484  1.0000
  H   H88       1.0  0.24211744196586696  0.8203761164735471  0.8549065784695244  1.0000
  H   H89       1.0  0.8894860644764293  0.16284246785950535  0.19357558017603083  1.0000
  H   H90       1.0  0.6105174154499906  0.8371507607938613  0.6935754075373026  1.0000
  H   H91       1.0  0.1105083094994299  0.8371542133518022  0.8064255620915262  1.0000
  H   H92       1.0  0.3894860591929472  0.1628488282845809  0.3064214228503417  1.0000
  H   H93       1.0  0.8147065706351881  0.16143844952739533  0.3010482047815444  1.0000
  H   H94       1.0  0.6852976903105273  0.8385660592261464  0.8010476672790006  1.0000
  H   H95       1.0  0.18528591801644007  0.8385615942085779  0.698953416575499  1.0000
  H   H96       1.0  0.31470508439382167  0.16143634058996534  0.19894916310230573  1.0000
  H   H97       1.0  0.0319749668041638  0.0800092297540687  0.3878598071506119  1.0000
  H   H98       1.0  0.46803150467109583  0.9199974508194161  0.8878545978293033  1.0000
  H   H99       1.0  0.9680269400406875  0.9199982332583407  0.6121432514924977  1.0000
  H   H100      1.0  0.5319719234046475  0.08000495547873505  0.1121393579650203  1.0000
  H   H101      1.0  0.1078897767570766  0.08427823665014245  0.2810028183908599  1.0000
  H   H102      1.0  0.39211199455758816  0.9157171217694543  0.7809975047841037  1.0000
  H   H103      1.0  0.8921031225447822  0.9157206840856776  0.7189988029688266  1.0000
  H   H104      1.0  0.607892497542352  0.08428416800308723  0.2189964510133677  1.0000
  H   H105      1.0  0.103417568082989  0.059362920281003526  0.696002750616664  1.0000
  H   H106      1.0  0.39657795610001045  0.9406378924084041  0.196005008304617  1.0000
  H   H107      1.0  0.8965790835349098  0.9406382917807223  0.3039974334475772  1.0000
  H   H108      1.0  0.6034189848053869  0.05936163191830702  0.8039942175674923  1.0000
  H   H109      1.0  0.18251132478867754  0.0591185292685736  0.8015950370093917  1.0000
  H   H110      1.0  0.31748671277656376  0.94088344688867  0.3015986040350498  1.0000
  H   H111      1.0  0.8174879403233747  0.940882708696336  0.1984032306652352  1.0000
  H   H112      1.0  0.6825115814435422  0.059113273168684116  0.6984030173334901  1.0000
  H   H113      1.0  0.9968336994039149  0.17929059401775763  0.887562857196997  1.0000
  H   H114      1.0  0.5031655826767505  0.820707777743245  0.3875649762865478  1.0000
  H   H115      1.0  0.003167451036659897  0.8207072814100089  0.11243972236729148  1.0000
  H   H116      1.0  0.4968319833678407  0.17928555390248144  0.6124318541092109  1.0000
  H   H117      1.0  0.916310218944851  0.17770285173136108  0.7829460167778136  1.0000
  H   H118      1.0  0.5836891184323818  0.8222971945898864  0.282946821291354  1.0000
  H   H119      1.0  0.08368468704697558  0.822293271205915  0.217059437372555  1.0000
  H   H120      1.0  0.41630905442198707  0.17769896074135264  0.7170504881970032  1.0000
  C   C1        1.0  0.0957341780100549  0.689896075110106  0.9713390209568757  1.0000
  C   C2        1.0  0.40426469566720874  0.31010445838500544  0.47133765395049926  1.0000
  C   C3        1.0  0.9042652550276317  0.3101029103824474  0.0286582885266782  1.0000
  C   C4        1.0  0.5957394323522749  0.6898951371605053  0.5286620510251439  1.0000
  C   C5        1.0  0.12427749957247161  0.6285574529907837  0.9996974546283681  1.0000
  C   C6        1.0  0.37572081810107966  0.3714401090619648  0.4996962688338513  1.0000
  C   C7        1.0  0.8757228295629248  0.37144266845101753  0.0002998548535729  1.0000
  C   C8        1.0  0.624285559326097  0.6285578181771785  0.5003005615595342  1.0000
  C   C9        1.0  0.10720639380744501  0.5586374215246084  0.9688997332879127  1.0000
  C   C10       1.0  0.39279378224630074  0.4413631376329052  0.46889685025158195  1.0000
  C   C11       1.0  0.8927941032552981  0.4413604474398413  0.0310985343946228  1.0000
  C   C12       1.0  0.607211605953495  0.5586392880826525  0.5310995010338573  1.0000
  C   C13       1.0  0.0619959031790458  0.5533797982239222  0.9096707488872368  1.0000
  C   C14       1.0  0.4380062482469996  0.4466216536935266  0.40966791681007214  1.0000
  C   C15       1.0  0.9380028764863867  0.4466191807890852  0.0903284769874659  1.0000
  C   C16       1.0  0.5619993078797094  0.5533785195459162  0.5903289135780412  1.0000
  C   C17       1.0  0.05093942587100031  0.6782813908923091  0.9123515153018501  1.0000
  C   C18       1.0  0.44906023822466784  0.3217205858941413  0.4123496933623301  1.0000
  C   C19       1.0  0.9490564975735367  0.32171643275154355  0.0876462732791978  1.0000
  C   C20       1.0  0.5509476421108488  0.6782813009772684  0.5876485743178748  1.0000
  C   C21       1.0  0.11488371467028469  0.7631111968337483  0.0030570852487557003  1.0000
  C   C22       1.0  0.3851157947329328  0.2368895370095387  0.5030564665310919  1.0000
  C   C23       1.0  0.8851173892005236  0.23688949582120244  0.9969397451347107  1.0000
  C   C24       1.0  0.614888165360064  0.7631123110108293  0.4969432384397905  1.0000
  C   C25       1.0  0.16791860390219426  0.8525651674382008  0.0686713199417639  1.0000
  C   C26       1.0  0.3320811444141328  0.1474357892737431  0.5686709837194996  1.0000
  C   C27       1.0  0.8320817252353477  0.1474349539973616  0.931328385029758  1.0000
  C   C28       1.0  0.6679195953702076  0.8525632091716491  0.4313248884713303  1.0000
  C   C29       1.0  0.12266738965833922  0.8844136222530141  0.0194003094396464  1.0000
  C   C30       1.0  0.3773341091472986  0.11558704585877427  0.5194006558334436  1.0000
  C   C31       1.0  0.8773334714908713  0.11558594092099382  0.9805989164355323  1.0000
  C   C32       1.0  0.6226689082829324  0.8844164834257954  0.48059857003531903  1.0000
  C   C33       1.0  0.11783236740986067  0.9603341368392012  0.019119398179086  1.0000
  C   C34       1.0  0.38216937361696784  0.03966766220884212  0.5191205434326421  1.0000
  C   C35       1.0  0.8821665336174506  0.03966540691116191  0.9808798276945582  1.0000
  C   C36       1.0  0.6178366679615124  0.9603347699675385  0.48088107793037693  1.0000
  C   C37       1.0  0.20111243148765115  0.9756836889650705  0.11404310350314971  1.0000
  C   C38       1.0  0.2988854379920056  0.02431701192524121  0.6140422617741592  1.0000
  C   C39       1.0  0.7988863481782146  0.024315290046686807  0.8859566014694736  1.0000
  C   C40       1.0  0.701113705758182  0.9756836613023128  0.3859560059015267  1.0000
  C   C41       1.0  0.2085314880972434  0.9003618867704907  0.11764416416276191  1.0000
  C   C42       1.0  0.29146561309776337  0.09963822414625415  0.6176430009832927  1.0000
  C   C43       1.0  0.7914670022811235  0.09963877997628154  0.8823564990019932  1.0000
  C   C44       1.0  0.7085321025413336  0.9003618713985947  0.3823538293986886  1.0000
  C   C45       1.0  0.1320161517351224  0.49132665731067265  0.9960848654392079  1.0000
  C   C46       1.0  0.3679817488146995  0.5086720465687976  0.4960821450605621  1.0000
  C   C47       1.0  0.8679882190072448  0.5086740677120363  0.0039138813384767  1.0000
  C   C48       1.0  0.6320182162346557  0.49132638066220147  0.5039146853266558  1.0000
  C   C49       1.0  0.182649908804926  0.41744312526823535  0.067044730234791  1.0000
  C   C50       1.0  0.3173463735679932  0.5825538608599959  0.5670440194866231  1.0000
  C   C51       1.0  0.8173504203304632  0.5825569961735654  0.9329525792471501  1.0000
  C   C52       1.0  0.6826520420105452  0.4174434239447039  0.43295376909753  1.0000
  C   C53       1.0  0.14791891599809762  0.37674438516702224  0.011436370017435101  1.0000
  C   C54       1.0  0.3520773881103025  0.6232534554372297  0.5114341104637958  1.0000
  C   C55       1.0  0.8520833732596317  0.6232557556971801  0.988561418563954  1.0000
  C   C56       1.0  0.6479201313700998  0.376742693419459  0.4885631990240498  1.0000
  C   C57       1.0  0.1467548540798376  0.29932121849500254  0.0087607663136495  1.0000
  C   C58       1.0  0.3532449548288242  0.7006777978968943  0.5087586695480084  1.0000
  C   C59       1.0  0.8532500486763368  0.7006789482599062  0.9912398968572803  1.0000
  C   C60       1.0  0.6467528073766076  0.29931948043075357  0.49124007723145985  1.0000
  C   C61       1.0  0.21357295048189684  0.304691977681543  0.11006750046112761  1.0000
  C   C62       1.0  0.2864232876068726  0.6953042195478719  0.6100672349138065  1.0000
  C   C63       1.0  0.7864248865233563  0.6953086825881772  0.8899341208989426  1.0000
  C   C64       1.0  0.7135750531769958  0.30468968329977036  0.389933428264726  1.0000
  C   C65       1.0  0.21717922085837674  0.38175049343480083  0.11763900847425648  1.0000
  C   C66       1.0  0.2828176841697855  0.6182456708175014  0.6176395329172664  1.0000
  C   C67       1.0  0.7828188588689003  0.6182512963146254  0.8823606964920288  1.0000
  C   C68       1.0  0.7171836341951376  0.3817499521416466  0.3823606511622017  1.0000
  C   C69       1.0  0.8957423805012328  0.5486269434937301  0.46116870500294743  1.0000
  C   C70       1.0  0.6042587042793954  0.4513727519276075  0.9611686704356472  1.0000
  C   C71       1.0  0.10425753799079732  0.45137430092825803  0.5388362700430065  1.0000
  C   C72       1.0  0.39574518101892414  0.5486257141357104  0.0388339091296217  1.0000
  C   C73       1.0  0.8736531712690409  0.6121623507313319  0.4902938772113856  1.0000
  C   C74       1.0  0.6263498044514365  0.3878366476242407  0.9902946183052634  1.0000
  C   C75       1.0  0.12634960344045956  0.3878400490698014  0.5097087023449021  1.0000
  C   C76       1.0  0.3736527740989431  0.6121618054899759  0.009707961258982302  1.0000
  C   C77       1.0  0.8867467235707451  0.6805971048772151  0.4568249249075649  1.0000
  C   C78       1.0  0.6132552495264321  0.3194037491229481  0.9568259262205885  1.0000
  C   C79       1.0  0.11325588321183493  0.3194075474000188  0.5431771755460488  1.0000
  C   C80       1.0  0.386747571745545  0.680595833472211  0.0431742578519518  1.0000
  C   C81       1.0  0.9213071645090027  0.6819665022591084  0.39424757557625867  1.0000
  C   C82       1.0  0.5786970672491378  0.31803357421213735  0.8942475688524851  1.0000
  C   C83       1.0  0.07869316463068542  0.31803361917021544  0.605754524884837  1.0000
  C   C84       1.0  0.42130926361556226  0.681967170232973  0.10575165702465479  1.0000
  C   C85       1.0  0.9299242449132167  0.5564535158767472  0.39827944935650095  1.0000
  C   C86       1.0  0.570080404717544  0.4435454165898209  0.8982784338975166  1.0000
  C   C87       1.0  0.07007828707254761  0.44354775444968214  0.6017231302019184  1.0000
  C   C88       1.0  0.4299271115349371  0.5564547760620403  0.10172270837337291  1.0000
  C   C89       1.0  0.8846412638261115  0.4757262003379739  0.4932736763166261  1.0000
  C   C90       1.0  0.6153576290611369  0.5242749961236016  0.9932728808713379  1.0000
  C   C91       1.0  0.11535480921763511  0.5242783871912736  0.5067293823277126  1.0000
  C   C92       1.0  0.3846447067667925  0.47572232751216625  0.006731135988779601  1.0000
  C   C93       1.0  0.8421910240974527  0.38728629662304587  0.5675890971624042  1.0000
  C   C94       1.0  0.6578060138965824  0.6127120351414704  0.0675856118727367  1.0000
  C   C95       1.0  0.15780419941321364  0.612714337744734  0.43241396148937383  1.0000
  C   C96       1.0  0.34219852477484386  0.38728643739889196  0.9324160094972099  1.0000
  C   C97       1.0  0.8830911281769576  0.35876774824053836  0.5143302687922784  1.0000
  C   C98       1.0  0.6169064677747543  0.6412308674931853  0.01432612155687  1.0000
  C   C99       1.0  0.11690262066185404  0.6412351256455086  0.48567566444121013  1.0000
  C   C100      1.0  0.38309966693596925  0.35876593025003006  0.9856788535032094  1.0000
  C   C101      1.0  0.889228391605613  0.28266628386987963  0.5139524218357252  1.0000
  C   C102      1.0  0.6107671221851091  0.7173317496723755  0.013947952002041603  1.0000
  C   C103      1.0  0.1107660106054524  0.7173365964957129  0.4860515950066072  1.0000
  C   C104      1.0  0.3892397872588874  0.2826656192902349  0.9860541484699964  1.0000
  C   C105      1.0  0.8185560236452148  0.2659060886680463  0.6138591670072344  1.0000
  C   C106      1.0  0.6814408079554896  0.7340936897543103  0.11385569992341972  1.0000
  C   C107      1.0  0.18144123478546703  0.7340979470704457  0.38614484983502  1.0000
  C   C108      1.0  0.3185616492330183  0.26590419862255044  0.8861468796418849  1.0000
  C   C109      1.0  0.8090192888723212  0.34075436498409334  0.6188861799841732  1.0000
  C   C110      1.0  0.6909788584823106  0.6592454001956726  0.11888255670762501  1.0000
  C   C111      1.0  0.19097654144897552  0.6592490930666987  0.3811183159560372  1.0000
  C   C112      1.0  0.3090234773456189  0.34075192344009525  0.8811214601524994  1.0000
  C   C113      1.0  0.8654188734411649  0.7471262218060419  0.4880351257044778  1.0000
  C   C114      1.0  0.6345796459759685  0.2528733077360102  0.9880349973649416  1.0000
  C   C115      1.0  0.1345827158809811  0.25287672978709  0.5119660165559807  1.0000
  C   C116      1.0  0.3654199084257357  0.747126242487653  0.0119647076071274  1.0000
  C   C117      1.0  0.815671864357455  0.8186342232501078  0.5556308637658063  1.0000
  C   C118      1.0  0.684329315184165  0.18136533913108374  0.0556315892017878  1.0000
  C   C119      1.0  0.18432841821675083  0.1813687153939228  0.4443702784936363  1.0000
  C   C120      1.0  0.3156669723494118  0.8186341787148382  0.9443700321593909  1.0000
  C   C121      1.0  0.8591383651767542  0.8657302641575628  0.5059584090788221  1.0000
  C   C122      1.0  0.640864564133615  0.13426901171905578  0.0059583001002039  1.0000
  C   C123      1.0  0.1408636347964816  0.13427156443291471  0.4940436913801065  1.0000
  C   C124      1.0  0.3591343368941152  0.8657305320300567  0.9940414048713534  1.0000
  C   C125      1.0  0.866811232301636  0.9436512905638285  0.5074410631731752  1.0000
  C   C126      1.0  0.633193370498802  0.05634968474811331  0.0074412621016151  1.0000
  C   C127      1.0  0.1331923171419902  0.05635168045419901  0.4925595999908978  1.0000
  C   C128      1.0  0.3668065479889364  0.9436515596863587  0.992558921965184  1.0000
  C   C129      1.0  0.7849581688251632  0.9308541051538769  0.6030157878751935  1.0000
  C   C130      1.0  0.7150428528859294  0.06914408086171875  0.10301750288905251  1.0000
  C   C131      1.0  0.21504080699809697  0.06914882054979193  0.3969820006978111  1.0000
  C   C132      1.0  0.2849544986722776  0.93085432045735  0.8969845975731873  1.0000
  C   C133      1.0  0.7765992794601857  0.8528778062854346  0.6055120415333876  1.0000
  C   C134      1.0  0.7234017467223594  0.14712036672605683  0.10551297041412509  1.0000
  C   C135      1.0  0.22340112447545835  0.14712569709719514  0.39448862162707593  1.0000
  C   C136      1.0  0.27659364471394104  0.8528780151693599  0.8944891300465869  1.0000
  C   C137      1.0  0.004211844749704601  0.12553806123766262  0.2316038225171511  1.0000
  C   C138      1.0  0.49578906333179873  0.874456983342583  0.7316021985681189  1.0000
  C   C139      1.0  0.9957796264410632  0.8744602818154451  0.7683963615488238  1.0000
  C   C140      1.0  0.5042146540340156  0.12554373521306422  0.2683936736215671  1.0000
  C   C141      1.0  0.9205324224477992  0.14548037507083228  0.2365904889289538  1.0000
  C   C142      1.0  0.5794705559633115  0.85451600494352  0.7365882787086306  1.0000
  C   C143      1.0  0.0794605234186889  0.8545157284527748  0.763411132436552  1.0000
  C   C144      1.0  0.4205340575002126  0.14548584956138205  0.2634075934794424  1.0000
  C   C145      1.0  0.8790693449233942  0.14481744511293476  0.2960235116485351  1.0000
  C   C146      1.0  0.6209330400266779  0.855181435975496  0.796021844347429  1.0000
  C   C147      1.0  0.1209238436672564  0.855179787884133  0.7039785888127668  1.0000
  C   C148      1.0  0.37907067733956973  0.14481928257890087  0.2039745069401775  1.0000
  C   C149      1.0  0.9206472315453881  0.12298659814516101  0.3509291692044982  1.0000
  C   C150      1.0  0.5793552052072855  0.8770148140787772  0.8509287827402119  1.0000
  C   C151      1.0  0.0793477026752001  0.877015723965123  0.6490719730519176  1.0000
  C   C152      1.0  0.4206447598425029  0.12298361315096434  0.1490685267449123  1.0000
  C   C153      1.0  0.0018576993666954034  0.09893081230872273  0.3452305697609717  1.0000
  C   C154      1.0  0.49814474726080255  0.9010698523627529  0.8452264447453147  1.0000
  C   C155      1.0  0.9981376455049755  0.9010703867989069  0.6547715306939068  1.0000
  C   C156      1.0  0.5018567672585093  0.09892971729703964  0.1547684692491345  1.0000
  C   C157      1.0  0.04369833610022061  0.10090770112973506  0.28609123166677364  1.0000
  C   C158      1.0  0.4563036870544722  0.8990887602521129  0.7860860894304977  1.0000
  C   C159      1.0  0.9562943204779019  0.8990900901313813  0.7139103896950374  1.0000
  C   C160      1.0  0.543700562320872  0.10091140004822563  0.21390690817326433  1.0000
  C   C161      1.0  0.0537796067760752  0.13136721147259323  0.16959708168341342  1.0000
  C   C162      1.0  0.44622094749193764  0.868627026710023  0.6695934857396821  1.0000
  C   C163      1.0  0.9462138245378924  0.8686311510004219  0.8304045396778507  1.0000
  C   C164      1.0  0.5537826485115858  0.13137312710951934  0.33040190735314917  1.0000
  C   C165      1.0  0.8805478157000622  0.12835064604229982  0.41583539522267193  1.0000
  C   C166      1.0  0.6194529733724536  0.8716543552656405  0.9158350951563392  1.0000
  C   C167      1.0  0.11944850006570826  0.871655070966647  0.5841657470278747  1.0000
  C   C168      1.0  0.38054682375041443  0.1283463244402158  0.084161735226111  1.0000
  C   C169      1.0  0.004841596875081703  0.11804065146750997  0.7336706663572983  1.0000
  C   C170      1.0  0.4951603140428418  0.8819650993871239  0.23367571889388472  1.0000
  C   C171      1.0  0.9951559508400935  0.881961696544707  0.2663290386074166  1.0000
  C   C172      1.0  0.5048382976965371  0.11803613209949765  0.7663239860739708  1.0000
  C   C173      1.0  0.08097513291955491  0.08592184307267561  0.7382203072621749  1.0000
  C   C174      1.0  0.4190226231806236  0.914082715758248  0.23822414740644862  1.0000
  C   C175      1.0  0.9190215186979104  0.9140793689902937  0.2617793977041529  1.0000
  C   C176      1.0  0.5809731789037615  0.08591454314325382  0.7617755575673186  1.0000
  C   C177      1.0  0.12435120948835991  0.08512808738145594  0.7967747327598076  1.0000
  C   C178      1.0  0.37564849027437214  0.9148756210527654  0.29677802092564326  1.0000
  C   C179      1.0  0.8756494837343567  0.9148737282674093  0.20322449311060356  1.0000
  C   C180      1.0  0.6243491505696142  0.08512109253628353  0.7032212049528043  1.0000
  C   C181      1.0  0.09263533579972721  0.11759560234032315  0.8509754668884498  1.0000
  C   C182      1.0  0.40736736385143507  0.8824061618510941  0.3509798975915359  1.0000
  C   C183      1.0  0.9073688670165724  0.8824073751559998  0.1490237589823948  1.0000
  C   C184      1.0  0.5926313410167553  0.11758943521235213  0.6490193282900593  1.0000
  C   C185      1.0  0.019411358398763002  0.15303541531847745  0.8453938445842724  1.0000
  C   C186      1.0  0.480586757633823  0.8469663326359156  0.3453971011635275  1.0000
  C   C187      1.0  0.9805896241140318  0.846964712587891  0.1546072976815083  1.0000
  C   C188      1.0  0.5194106404855675  0.15302925148092328  0.6546011665212177  1.0000
  C   C189      1.0  0.9751134258979663  0.15255905775838136  0.7873753758653521  1.0000
  C   C190      1.0  0.5248870582372335  0.847443230905427  0.2873774199543746  1.0000
  C   C191      1.0  0.024883515011296774  0.8474404665570964  0.21262816188799863  1.0000
  C   C192      1.0  0.4751117679915353  0.1525529308991126  0.7126203686324146  1.0000
  C   C193      1.0  0.9527212646981413  0.11401203051423899  0.6729385880655343  1.0000
  C   C194      1.0  0.547277903829233  0.8859947881344044  0.1729405096721663  1.0000
  C   C195      1.0  0.047276768466232987  0.8859925764423979  0.3270630332865849  1.0000
  C   C196      1.0  0.4527194759581691  0.11400981235642156  0.8270577579940338  1.0000
  C   C197      1.0  0.13442213493649996  0.11260409156300002  0.9152953640532075  1.0000
  C   C198      1.0  0.36557835573833597  0.8873956238713281  0.4152987489788558  1.0000
  C   C199      1.0  0.8655822358054337  0.8873966334609524  0.084702903626571  1.0000
  C   C200      1.0  0.6344191637442123  0.11260052497912205  0.5847009559985707  1.0000
  N   N1        1.0  0.03440410018240668  0.6114734345376008  0.8819773105541131  1.0000
  N   N2        1.0  0.46559841228130955  0.38852703866553645  0.3819761988018371  1.0000
  N   N3        1.0  0.9655911698885832  0.3885243826304504  0.1180209571243296  1.0000
  N   N4        1.0  0.5344092718950861  0.6114709015189563  0.6180220688863187  1.0000
  N   N5        1.0  0.1615181690010417  0.7765271468631456  0.05761772393830711  1.0000
  N   N6        1.0  0.3384809061367235  0.22347386097101218  0.5576156482085041  1.0000
  N   N7        1.0  0.8384802000133079  0.2234729551525093  0.9423805437379329  1.0000
  N   N8        1.0  0.6615199550116273  0.7765257022054898  0.4423826194708412  1.0000
  N   N9        1.0  0.08980604118250571  0.8262346937201601  0.9786320436203583  1.0000
  N   N10       1.0  0.410194030946272  0.17376524998908854  0.4786302882334398  1.0000
  N   N11       1.0  0.9101961267129256  0.17376488240794433  0.0213652658641763  1.0000
  N   N12       1.0  0.5898129067277721  0.8262383181427853  0.5213689376383854  1.0000
  N   N13       1.0  0.1576047961533504  0.004719082297192802  0.0662205515910301  1.0000
  N   N14       1.0  0.3423966651712363  0.9952807771306603  0.5662210594946089  1.0000
  N   N15       1.0  0.8423958222721238  0.9952793514021114  0.9337786742862734  1.0000
  N   N16       1.0  0.6576049241491903  0.004722174467460101  0.4337781663741893  1.0000
  N   N17       1.0  0.11761670556081329  0.4239785791073346  0.9682211365934847  1.0000
  N   N18       1.0  0.38237918494768763  0.5760202505267248  0.46821816255106086  1.0000
  N   N19       1.0  0.8823868904452824  0.5760215747047185  0.0317771310868409  1.0000
  N   N20       1.0  0.617619594715599  0.42397872849252155  0.531778667834061  1.0000
  N   N21       1.0  0.1719140442966776  0.49011558806179084  0.055813558952444  1.0000
  N   N22       1.0  0.32808417807468265  0.5098814760142008  0.5558102895052244  1.0000
  N   N23       1.0  0.8280877129493831  0.5098851110639657  0.9441847087252881  1.0000
  N   N24       1.0  0.6719171402872349  0.4901141469536869  0.4441865408888361  1.0000
  N   N25       1.0  0.17893651223104004  0.2649702079822732  0.0577974925884632  1.0000
  N   N26       1.0  0.3210618350582379  0.7350274104891885  0.5577961611972952  1.0000
  N   N27       1.0  0.8210647130063506  0.7350310493962983  0.9422046078710127  1.0000
  N   N28       1.0  0.678938419282055  0.2649693289968128  0.4422035437811118  1.0000
  N   N29       1.0  0.9422160688461009  0.6213244194961123  0.3654759707371227  1.0000
  N   N30       1.0  0.5577913782350877  0.3786758392589819  0.8654747230443149  1.0000
  N   N31       1.0  0.05778568840425182  0.37867627961716027  0.6345270879197642  1.0000
  N   N32       1.0  0.44221846222362166  0.6213260670323354  0.1345249819311718  1.0000
  N   N33       1.0  0.8448182714156048  0.46190689727693274  0.5531321663352884  1.0000
  N   N34       1.0  0.6551777980165313  0.5380931910730312  0.0531294625834988  1.0000
  N   N35       1.0  0.155176784170287  0.5380959895607095  0.4468728087033896  1.0000
  N   N36       1.0  0.34482192431552516  0.46190410666453396  0.9468745542745723  1.0000
  N   N37       1.0  0.9088658670722225  0.4148430839690749  0.4692240636904472  1.0000
  N   N38       1.0  0.5911322545549639  0.5851548493816313  0.9692201045758466  1.0000
  N   N39       1.0  0.09112776040300469  0.5851592251846186  0.5307799531524395  1.0000
  N   N40       1.0  0.4088735908639692  0.414843636109076  0.0307810376972029  1.0000
  N   N41       1.0  0.8568604027251682  0.23778108173665669  0.5630054072818922  1.0000
  N   N42       1.0  0.6431365056953949  0.7622167091719376  0.06300224223608102  1.0000
  N   N43       1.0  0.14313738771675594  0.7622223957415388  0.4369976513661058  1.0000
  N   N44       1.0  0.35686570876895024  0.23778004973146966  0.9369998582334347  1.0000
  N   N45       1.0  0.8212123502085191  0.7446919760374802  0.543605662466021  1.0000
  N   N46       1.0  0.6787861942932382  0.2553076231008833  0.0436060751334182  1.0000
  N   N47       1.0  0.17878793236612012  0.2553109626053002  0.4563959588913349  1.0000
  N   N48       1.0  0.32121139998913856  0.744691907691646  0.9563965044246102  1.0000
  N   N49       1.0  0.888946324815784  0.8185169594147584  0.4634026576566512  1.0000
  N   N50       1.0  0.6110552959788932  0.18148216610510567  0.9634023058470335  1.0000
  N   N51       1.0  0.111054247047214  0.18148429149051992  0.5365989637043995  1.0000
  N   N52       1.0  0.38894662919451417  0.8185162805432926  0.0365969200312861  1.0000
  N   N53       1.0  0.8295361328165498  0.9748729827019391  0.5560186231641921  1.0000
  N   N54       1.0  0.6704640299603143  0.025124876971943915  0.056019489331532696  1.0000
  N   N55       1.0  0.1704633750201054  0.025129384735180307  0.44398060270413714  1.0000
  N   N56       1.0  0.32953177212449714  0.9748723819283075  0.9439806947401549  1.0000
  O   O1        1.0  0.13615691872428934  0.12878821997952639  0.1715858885414576  1.0000
  O   O2        1.0  0.3638444604088065  0.8712037618359364  0.6715840661743826  1.0000
  O   O3        1.0  0.8638359523419439  0.8712045016032522  0.8284123791455329  1.0000
  O   O4        1.0  0.6361604423430831  0.12879640493145675  0.3284118060173924  1.0000
  O   O5        1.0  0.013325502841361499  0.13881932915523984  0.11699831103867099  1.0000
  O   O6        1.0  0.48667372524200675  0.8611785520839564  0.6169938524476493  1.0000
  O   O7        1.0  0.9866659965841792  0.8611852130534107  0.8830042685041732  1.0000
  O   O8        1.0  0.513327667914581  0.13882045284098155  0.3830001033520247  1.0000
  O   O9        1.0  0.810884393661155  0.15616051715124976  0.4200082250167654  1.0000
  O   O10       1.0  0.6891175417109777  0.8438467278322437  0.9200105465388759  1.0000
  O   O11       1.0  0.1891143676727154  0.8438474782344942  0.5799914799373198  1.0000
  O   O12       1.0  0.31088274086065576  0.15615621081927605  0.0799877211330724  1.0000
  O   O13       1.0  0.9217602878066273  0.10740432685816612  0.4638190439824328  1.0000
  O   O14       1.0  0.5782356960915251  0.8925958676974804  0.9638181125940264  1.0000
  O   O15       1.0  0.07823297557955297  0.8925962880934578  0.5361811400803163  1.0000
  O   O16       1.0  0.42176267292153824  0.10740423432191902  0.0361787177884594  1.0000
  O   O17       1.0  0.8703792385869492  0.11506530655498182  0.6759501293165613  1.0000
  O   O18       1.0  0.6296179469804671  0.8849352778194304  0.1759512292321617  1.0000
  O   O19       1.0  0.12961753439410725  0.8849364702403479  0.3240514920403612  1.0000
  O   O20       1.0  0.37037935800796623  0.11506594072682225  0.8240451220492632  1.0000
  O   O21       1.0  0.9927457759823853  0.10887882354442983  0.6193505706723883  1.0000
  O   O22       1.0  0.5072501510336239  0.8911288066709065  0.1193548024265709  1.0000
  O   O23       1.0  0.00725298535363093  0.8911291718350758  0.3806515297712707  1.0000
  O   O24       1.0  0.49274538999459594  0.10887633913112893  0.8806444234328623  1.0000
  O   O25       1.0  0.2028242904565403  0.08326353867749961  0.9190851437503653  1.0000
  O   O26       1.0  0.29717938074997363  0.9167418238038257  0.4190902146900015  1.0000
  O   O27       1.0  0.7971771492659558  0.9167326490314812  0.08091024934888941  1.0000
  O   O28       1.0  0.702822087208581  0.083260563056939  0.5809090111798625  1.0000
  O   O29       1.0  0.09567114114350521  0.13638151799271725  0.9633435349594636  1.0000
  O   O30       1.0  0.4043244696738739  0.8636100084077544  0.4633446843225073  1.0000
  O   O31       1.0  0.9043329120795889  0.8636146956007312  0.0366571282189057  1.0000
  O   O32       1.0  0.595668037306318  0.13638101896422236  0.5366531042697532  1.0000
