data_image0
_chemical_formula_structural       Sm2H44C40S2N6O22
_chemical_formula_sum              "Sm2 H44 C40 S2 N6 O22"
_cell_length_a       10.117208705816154
_cell_length_b       12.821594754962316
_cell_length_c       13.285965118316572
_cell_angle_alpha    81.52201961090658
_cell_angle_beta     87.27892397249568
_cell_angle_gamma    70.10660282811457

_space_group_name_H-M_alt    "P 1"
_space_group_IT_number       1

loop_
  _space_group_symop_operation_xyz
  'x, y, z'

loop_
  _atom_site_type_symbol
  _atom_site_label
  _atom_site_symmetry_multiplicity
  _atom_site_fract_x
  _atom_site_fract_y
  _atom_site_fract_z
  _atom_site_occupancy
  Sm  Sm1       1.0  0.8231786422993892  0.5572565604208181  0.5807069877836923  1.0000
  Sm  Sm2       1.0  0.17681996754081558  0.4427439898199451  0.4192915458187231  1.0000
  H   H1        1.0  0.9656233295587383  0.7149317772142396  0.6946349453734655  1.0000
  H   H2        1.0  0.0343799655884638  0.28506710119336287  0.3053666540821567  1.0000
  H   H3        1.0  0.0009096038073365412  0.8268475959864434  0.8228102780165685  1.0000
  H   H4        1.0  0.9990903728619714  0.17315212816385644  0.1771920848807227  1.0000
  H   H5        1.0  0.4475386356635624  0.7093939750549083  0.7661554617351669  1.0000
  H   H6        1.0  0.5524629498224699  0.290606572431777  0.23384370378402514  1.0000
  H   H7        1.0  0.41161274958351163  0.5983193543702541  0.638028687817183  1.0000
  H   H8        1.0  0.5883904736228304  0.40168203248738615  0.36197179293686343  1.0000
  H   H9        1.0  0.015918592256809902  0.0515688877435636  0.9075117136565893  1.0000
  H   H10       1.0  0.9840820077702972  0.9484316642243941  0.09248824402656204  1.0000
  H   H11       1.0  0.9502348938355281  0.23992550326928347  0.8005827730992507  1.0000
  H   H12       1.0  0.049766049023645675  0.7600742057100405  0.1994157892254549  1.0000
  H   H13       1.0  0.32869122171268833  0.12881656389622262  0.626288269073072  1.0000
  H   H14       1.0  0.6713137063375572  0.8711831512099052  0.3737138935152515  1.0000
  H   H15       1.0  0.39762278811483065  0.9415345327228478  0.7315591254620487  1.0000
  H   H16       1.0  0.6023798020991861  0.0584660209722898  0.26844225630182456  1.0000
  H   H17       1.0  0.5593366915417237  0.4134524869404217  0.5821211854681536  1.0000
  H   H18       1.0  0.44065964758584664  0.586546390766884  0.41787693390924124  1.0000
  H   H19       1.0  0.3985841514874978  0.2740950192631715  0.7442241096960274  1.0000
  H   H20       1.0  0.601416530115003  0.7259030295995927  0.2557784708930059  1.0000
  H   H21       1.0  0.5499675372245748  0.1704583476023416  0.7018810938436033  1.0000
  H   H22       1.0  0.45003384449385214  0.829538023300458  0.29812095233502595  1.0000
  H   H23       1.0  0.4550262621121206  0.2916711576888034  0.6157816848617443  1.0000
  H   H24       1.0  0.5449721439604716  0.7083252159680737  0.38421972940011534  1.0000
  H   H25       1.0  0.7044253763887837  0.3378785611527917  0.8355000805694247  1.0000
  H   H26       1.0  0.29557457619420535  0.6621211496353752  0.16449852181708022  1.0000
  H   H27       1.0  0.6999244519859646  0.19917206990883327  0.838353765019086  1.0000
  H   H28       1.0  0.30007748114940097  0.8008276372616553  0.16164475724382749  1.0000
  H   H29       1.0  0.5532248215127639  0.30343513929276617  0.8831409115076596  1.0000
  H   H30       1.0  0.44677746408919466  0.6965637302339545  0.11685771960112855  1.0000
  H   H31       1.0  0.004020298741089354  0.4544584164328355  0.8354773160562772  1.0000
  H   H32       1.0  0.9959779730843153  0.5455429794689834  0.16452336500674392  1.0000
  H   H33       1.0  0.6466632223849372  0.609394348443324  0.9728714822765241  1.0000
  H   H34       1.0  0.3533367398325781  0.39060536768970167  0.027128624314293925  1.0000
  H   H35       1.0  0.6249926286292437  0.47798763795983484  0.964517250956739  1.0000
  H   H36       1.0  0.37500663347234575  0.5220137561331556  0.0354833900444831  1.0000
  H   H37       1.0  0.6278317451425081  0.5723403489566791  0.8512398343464299  1.0000
  H   H38       1.0  0.37216652668289646  0.42766104694514695  0.14876084671659132  1.0000
  H   H39       1.0  0.8629939592218535  0.329527396938218  0.013181430206436999  1.0000
  H   H40       1.0  0.13700593587206825  0.6704748303172821  0.9868183097849654  1.0000
  H   H41       1.0  0.8711554718532141  0.4412450416097613  0.07576799405728715  1.0000
  H   H42       1.0  0.1288431476215166  0.5587555139758608  0.9242320437494487  1.0000
  H   H43       1.0  0.009098558492290498  0.3775447217325762  0.9922557672855847  1.0000
  H   H44       1.0  0.9908983657730633  0.6224575109494239  0.0077440928911940285  1.0000
  C   C1        1.0  0.17187597623564713  0.577653101647158  0.5836196769162356  1.0000
  C   C2        1.0  0.828124199384007  0.42235079641461226  0.41637905321946533  1.0000
  C   C3        1.0  0.18762589811194644  0.6467127324589655  0.6606744570106217  1.0000
  C   C4        1.0  0.8123793727703655  0.3532861396585433  0.3393263102192492  1.0000
  C   C5        1.0  0.07099550173774132  0.7124645171881168  0.7114344961623758  1.0000
  C   C6        1.0  0.9290077789576685  0.2875343532021972  0.2885648469867733  1.0000
  C   C7        1.0  0.09044107888612979  0.7755514703679866  0.7826966639162835  1.0000
  C   C8        1.0  0.9095605737235036  0.22444656599623158  0.21730286820233152  1.0000
  C   C9        1.0  0.22678800196550247  0.7715764222101311  0.8029619671231744  1.0000
  C   C10       1.0  0.7732129553454641  0.2284232947864808  0.19703885150800463  1.0000
  C   C11       1.0  0.343104483473077  0.7084037266674417  0.7515215100628938  1.0000
  C   C12       1.0  0.6568987349160055  0.2915976575177766  0.2484782185889927  1.0000
  C   C13       1.0  0.3226618955928657  0.646064543907876  0.6802411462196575  1.0000
  C   C14       1.0  0.6773413276134762  0.3539368429497712  0.3197593345343891  1.0000
  C   C15       1.0  0.2107328884247651  0.9870677788401565  0.8259158938803068  1.0000
  C   C16       1.0  0.7892673687702826  0.0129336161164275  0.17408545916128307  1.0000
  C   C17       1.0  0.08435861210572433  0.0691490705759676  0.8464894160424876  1.0000
  C   C18       1.0  0.9156393502903628  0.9308506384850048  0.15350776226328838  1.0000
  C   C19       1.0  0.04830304721139812  0.17408745534534378  0.7873477373710145  1.0000
  C   C20       1.0  0.9516989003757602  0.8259122598424328  0.21265304119836506  1.0000
  C   C21       1.0  0.13635101315029632  0.19593409310672166  0.7084772031634117  1.0000
  C   C22       1.0  0.863652982112832  0.8040631073409162  0.29152386188179963  1.0000
  C   C23       1.0  0.2622091079975277  0.11190130398918541  0.6889387438245222  1.0000
  C   C24       1.0  0.7377934773992222  0.88809924703353  0.3110618858371908  1.0000
  C   C25       1.0  0.3006183469170125  0.0069941096150288  0.7478392311456901  1.0000
  C   C26       1.0  0.6993818527889603  0.9930098018088811  0.25216325950079016  1.0000
  C   C27       1.0  0.0946738522342017  0.30906084556190905  0.6438319304604009  1.0000
  C   C28       1.0  0.9053267429756388  0.6909397037336191  0.35616727512059043  1.0000
  C   C29       1.0  0.6054314424438658  0.40111323412903493  0.658271887938966  1.0000
  C   C30       1.0  0.3945702005312414  0.5988847968903243  0.3417261399753287  1.0000
  C   C31       1.0  0.4911556966851551  0.2608343390455587  0.6944506387877922  1.0000
  C   C32       1.0  0.5088436373573019  0.7391645465973863  0.3055511209150056  1.0000
  C   C33       1.0  0.6373712724364468  0.2887729864888087  0.8259780335026223  1.0000
  C   C34       1.0  0.36263002288932716  0.7112258848467476  0.17402063766795814  1.0000
  C   C35       1.0  0.8912571241814576  0.5054716172827015  0.8345842563336064  1.0000
  C   C36       1.0  0.1087385100129197  0.4945289357121397  0.16541364535203942  1.0000
  C   C37       1.0  0.6715094841268653  0.5398032427503594  0.9277522124375822  1.0000
  C   C38       1.0  0.32848879251580615  0.46019815582388895  0.07224922072759202  1.0000
  C   C39       1.0  0.8952336418587098  0.4039018950283975  0.004872943224889104  1.0000
  C   C40       1.0  0.10476554348475992  0.5961020048422085  0.995125826972604  1.0000
  S   S1        1.0  0.2547521076933991  0.8501757102980038  0.8948214900808935  1.0000
  S   S2        1.0  0.7452494970616924  0.14982484787839923  0.10518068384693184  1.0000
  N   N1        1.0  0.6265154479632358  0.7836895876486237  0.5956241465523535  1.0000
  N   N2        1.0  0.37348223872437825  0.21630845327850068  0.40437479371128404  1.0000
  N   N3        1.0  0.822784463877476  0.48488504374944336  0.9195618806472583  1.0000
  N   N4        1.0  0.17721579331756498  0.5151163512071335  0.08043947239433179  1.0000
  N   N5        1.0  0.5793416978792081  0.3205309240700416  0.72356008631305  1.0000
  N   N6        1.0  0.42065726442758944  0.6794687885269539  0.2764385561352469  1.0000
  O   O1        1.0  0.05030463864660116  0.5744906083721587  0.5646755585639482  1.0000
  O   O2        1.0  0.9496905904093751  0.42551330140621263  0.43532412398288056  1.0000
  O   O3        1.0  0.28052210345795464  0.5234808363509417  0.5371509571926794  1.0000
  O   O4        1.0  0.7194727634968956  0.4765239057263457  0.4628471123039546  1.0000
  O   O5        1.0  0.1524280470935153  0.8511437749735581  0.9759827022022238  1.0000
  O   O6        1.0  0.8475731955604504  0.1488576155017611  0.024017858675407008  1.0000
  O   O7        1.0  0.403646013458584  0.807430975511977  0.9197052340229348  1.0000
  O   O8        1.0  0.5963575573970844  0.19256957102946612  0.0802946034748331  1.0000
  O   O9        1.0  0.9734552931220082  0.3780880601704196  0.6593531612785811  1.0000
  O   O10       1.0  0.02654401683412295  0.6219108121103788  0.3406448379134375  1.0000
  O   O11       1.0  0.18333047867104574  0.32762777286544786  0.5792624853319952  1.0000
  O   O12       1.0  0.8166720922739047  0.6723727701399796  0.4207358880232448  1.0000
  O   O13       1.0  0.7589485006917658  0.7605592418263144  0.6068351570262253  1.0000
  O   O14       1.0  0.24104650532754593  0.23944048067845358  0.3931643977714074  1.0000
  O   O15       1.0  0.5867224566827006  0.7013551576110614  0.5794333325798464  1.0000
  O   O16       1.0  0.4132765582959053  0.29864203584617854  0.42056342016139336  1.0000
  O   O17       1.0  0.5409468926801184  0.8780953586454102  0.5997717547459231  1.0000
  O   O18       1.0  0.45904790957158786  0.12190018727546464  0.40023068071114665  1.0000
  O   O19       1.0  0.8356436661348708  0.575697774305766  0.7597557891251654  1.0000
  O   O20       1.0  0.16435367772068335  0.424301109609992  0.24024454649691052  1.0000
  O   O21       1.0  0.6755293747106208  0.45893059307057626  0.6800138792489037  1.0000
  O   O22       1.0  0.3244669595996826  0.5410682819643001  0.31998348802633814  1.0000
