data_image0
_chemical_formula_structural       Y8H32C64N16Cl24
_chemical_formula_sum              "Y8 H32 C64 N16 Cl24"
_cell_length_a       11.016920448001137
_cell_length_b       11.234443975733296
_cell_length_c       19.124063444086286
_cell_angle_alpha    106.80681361704322
_cell_angle_beta     90.0000429161116
_cell_angle_gamma    90.00001586139068

_space_group_name_H-M_alt    "P 1"
_space_group_IT_number       1

loop_
  _space_group_symop_operation_xyz
  'x, y, z'

loop_
  _atom_site_type_symbol
  _atom_site_label
  _atom_site_symmetry_multiplicity
  _atom_site_fract_x
  _atom_site_fract_y
  _atom_site_fract_z
  _atom_site_occupancy
  Y   Y1        1.0  0.1756446175494446  0.6898278705910457  0.23799597155340985  1.0000
  Y   Y2        1.0  0.6756440475784798  0.8101722539066145  0.7620037859721334  1.0000
  Y   Y3        1.0  0.8243561337495818  0.31017263043435145  0.7620041487187021  1.0000
  Y   Y4        1.0  0.3243557960256425  0.18982731728143423  0.23799617581897783  1.0000
  Y   Y5        1.0  0.5187196194438783  0.5502243814737257  0.26874652716996644  1.0000
  Y   Y6        1.0  0.018719997184774705  0.9497756592213449  0.7312536713926219  1.0000
  Y   Y7        1.0  0.48127931646557437  0.4497751897140816  0.7312534346209102  1.0000
  Y   Y8        1.0  0.9812789387249057  0.05022484180357621  0.268746448879014  1.0000
  H   H1        1.0  0.3622223810306195  0.14038585411955037  0.68862638979364  1.0000
  H   H2        1.0  0.8622230537596565  0.3596150443835739  0.3113735902016045  1.0000
  H   H3        1.0  0.637775647186352  0.8596183633742169  0.31137593261517066  1.0000
  H   H4        1.0  0.1377749744536274  0.6403826700091458  0.6886244864131539  1.0000
  H   H5        1.0  0.14828859754512544  0.09280542057323517  0.49341521938604405  1.0000
  H   H6        1.0  0.6482877224363506  0.4071953659504429  0.5065841264883557  1.0000
  H   H7        1.0  0.8517121537537946  0.907196011249077  0.5065845366287147  1.0000
  H   H8        1.0  0.35171212116719636  0.5928032763602857  0.4934151540838767  1.0000
  H   H9        1.0  0.7833751585096563  0.3424272090429099  0.17711732849866016  1.0000
  H   H10       1.0  0.28337557310023703  0.15757178912107855  0.8228817707459084  1.0000
  H   H11       1.0  0.21662468509413194  0.6575723631049256  0.8228821105543316  1.0000
  H   H12       1.0  0.7166260858931254  0.8424287128643613  0.17711782678832572  1.0000
  H   H13       1.0  0.41532703205962923  0.8160860635624017  0.5025668871469761  1.0000
  H   H14       1.0  0.9153260820475353  0.6839151173041955  0.49743315364731416  1.0000
  H   H15       1.0  0.5846728115464472  0.18391722409472783  0.4974352767815444  1.0000
  H   H16       1.0  0.0846728538600843  0.3160825980485598  0.5025644002295734  1.0000
  H   H17       1.0  0.20695935888526412  0.21970061794485224  0.6207493054788242  1.0000
  H   H18       1.0  0.7069600976021917  0.2802992677957122  0.3792509579377635  1.0000
  H   H19       1.0  0.7930395770246575  0.7803008129171902  0.37925097327357793  1.0000
  H   H20       1.0  0.29303883830736055  0.719699372595187  0.6207493681104591  1.0000
  H   H21       1.0  0.761553752216244  0.0235717136352491  0.985694018104901  1.0000
  H   H22       1.0  0.2615522964472277  0.4764263422114965  0.01430543403544958  1.0000
  H   H23       1.0  0.238446999082214  0.9764278585128353  0.014305420948325317  1.0000
  H   H24       1.0  0.7384475471570014  0.5235722981796443  0.9856948920130076  1.0000
  H   H25       1.0  0.0669634069812304  0.27473221358257394  0.014043420682725086  1.0000
  H   H26       1.0  0.5669631046028485  0.22526852904867667  0.9859564055888509  1.0000
  H   H27       1.0  0.9330373443178035  0.7252682874428301  0.9859566995893869  1.0000
  H   H28       1.0  0.43303764669617806  0.7747319719767204  0.01404371468326098  1.0000
  H   H29       1.0  0.6769324543577184  0.1511197923163436  0.10646886320282788  1.0000
  H   H30       1.0  0.17693119950043013  0.3488772880606986  0.8935309091377588  1.0000
  H   H31       1.0  0.3230682969406047  0.8488779191977116  0.8935307816269853  1.0000
  H   H32       1.0  0.8230695517983619  0.6511222831275844  0.10646905265358694  1.0000
  C   C1        1.0  0.483985162772349  0.9272020335428907  0.6408315959230176  1.0000
  C   C2        1.0  0.9839849091126998  0.5727991835695362  0.3591684806175761  1.0000
  C   C3        1.0  0.5160137731391644  0.0728003233170824  0.3591709322626143  1.0000
  C   C4        1.0  0.0160131191007196  0.4272003914572052  0.6408293902206024  1.0000
  C   C5        1.0  0.9936453404430096  0.42866457297454735  0.13987473583129878  1.0000
  C   C6        1.0  0.4936457791890305  0.0713354641117405  0.8601256768451928  1.0000
  C   C7        1.0  0.006354503161688302  0.5713359270908214  0.8601259071786911  1.0000
  C   C8        1.0  0.5063549721097617  0.9286641070765499  0.13987428494615264  1.0000
  C   C9        1.0  0.931082443640804  0.3196620917692456  0.09975809718924467  1.0000
  C   C10       1.0  0.43108296536236407  0.1803388421262966  0.9002424413953346  1.0000
  C   C11       1.0  0.06891649226887608  0.6803384092556827  0.9002420230823984  1.0000
  C   C12       1.0  0.5689177859370034  0.8196616579393137  0.09975820161489678  1.0000
  C   C13       1.0  0.9181156741036605  0.14264512750823846  0.9931657199128235  1.0000
  C   C14       1.0  0.41811508271040754  0.3573548725839188  0.0068330852253452885  1.0000
  C   C15       1.0  0.0818850771953734  0.8573553735171586  0.006834400359288391  1.0000
  C   C16       1.0  0.581883853199038  0.6426446986038883  0.9931668765655313  1.0000
  C   C17       1.0  0.39780951837592227  0.9739393142159047  0.6001817057246439  1.0000
  C   C18       1.0  0.8978102121432983  0.5260599996487301  0.39981696351200197  1.0000
  C   C19       1.0  0.6021894175335306  0.026060256971902597  0.3998182560662327  1.0000
  C   C20       1.0  0.10218872376547244  0.4739395734586651  0.6001819528026358  1.0000
  C   C21       1.0  0.9813042290560788  0.24823437891916458  0.033613243999233974  1.0000
  C   C22       1.0  0.48130394934116777  0.2517647227745528  0.9663864810329197  1.0000
  C   C23       1.0  0.018695614548278203  0.7517661221059977  0.9663868762726361  1.0000
  C   C24       1.0  0.51869589426353  0.7482357772908159  0.03361416197706998  1.0000
  C   C25       1.0  0.2783522868154549  0.9484212153544856  0.491774954956149  1.0000
  C   C26       1.0  0.7783513135194868  0.5515798922412999  0.508225537261822  1.0000
  C   C27       1.0  0.7216484644851704  0.051580211668856214  0.5082274147491928  1.0000
  C   C28       1.0  0.22164943777863036  0.4484196808665715  0.49177337905329904  1.0000
  C   C29       1.0  0.2429802768130145  0.876023550296317  0.42096519623515133  1.0000
  C   C30       1.0  0.7429803238164894  0.6239775405459227  0.5790342320907909  1.0000
  C   C31       1.0  0.757019566791918  0.12397787960617282  0.5790356052556049  1.0000
  C   C32       1.0  0.2570204274817272  0.37602110176504777  0.4209650484816762  1.0000
  C   C33       1.0  0.3388737073418753  0.08755615087972048  0.6330556401708944  1.0000
  C   C34       1.0  0.8388744673174103  0.4124438054601925  0.36694416918737  1.0000
  C   C35       1.0  0.6611243208726663  0.9124424904707311  0.3669441631389744  1.0000
  C   C36       1.0  0.16112446859216334  0.5875576263616366  0.6330555868269199  1.0000
  C   C37       1.0  0.36907729484703106  0.9034828316050111  0.5288635449337205  1.0000
  C   C38       1.0  0.8690771936403222  0.5965173950087675  0.4711363133005974  1.0000
  C   C39       1.0  0.6309225487583419  0.09651766654076968  0.4711381435525082  1.0000
  C   C40       1.0  0.130922649963118  0.40348217809886927  0.528862603014282  1.0000
  C   C41       1.0  0.8210190304670846  0.2850823575215884  0.12577492787146125  1.0000
  C   C42       1.0  0.32101862037923473  0.21491759035205854  0.8742243494525394  1.0000
  C   C43       1.0  0.17898172083136638  0.7149172146264887  0.8742245111817721  1.0000
  C   C44       1.0  0.6789821309196854  0.7850838414702537  0.12577540656221933  1.0000
  C   C45       1.0  0.9634758451243073  0.075020583181427  0.9235423347347831  1.0000
  C   C46       1.0  0.4634762711419498  0.4249822274892808  0.07645853767657938  1.0000
  C   C47       1.0  0.0365249061738098  0.9249789899264513  0.07645658158033798  1.0000
  C   C48       1.0  0.5365244801594785  0.5750210582484954  0.9235446717284075  1.0000
  C   C49       1.0  0.8080153017536987  0.106855260720188  0.018705080745519388  1.0000
  C   C50       1.0  0.3080132659420656  0.3931437485314645  0.9812950768032774  1.0000
  C   C51       1.0  0.1919863572397702  0.8931443104683371  0.981294881046068  1.0000
  C   C52       1.0  0.6919856699677283  0.6068558216965414  0.018705407725718683  1.0000
  C   C53       1.0  0.2191922748322952  0.062134923186960095  0.5240672004587593  1.0000
  C   C54       1.0  0.7191922761678313  0.4378658998082585  0.47593270506921914  1.0000
  C   C55       1.0  0.7808075687725305  0.9378674375124304  0.47593323677465077  1.0000
  C   C56       1.0  0.2808084751309678  0.5621336713800316  0.5240672567221265  1.0000
  C   C57       1.0  0.2511313828481718  0.13143423953552263  0.5944199927589364  1.0000
  C   C58       1.0  0.7511330884365607  0.3685666003212731  0.40557992939824306  1.0000
  C   C59       1.0  0.7488666453670731  0.8685671913262781  0.40558028599323137  1.0000
  C   C60       1.0  0.2488667551675618  0.6314329708667684  0.5944200323928681  1.0000
  C   C61       1.0  0.7609296016539844  0.1783000289544034  0.08518645280414457  1.0000
  C   C62       1.0  0.2609283668354578  0.32169895448042507  0.9148142029683083  1.0000
  C   C63       1.0  0.23907205734015943  0.8216995403145332  0.9148145544636674  1.0000
  C   C64       1.0  0.7390723844633341  0.6783006167078582  0.08518575882303739  1.0000
  N   N1        1.0  0.213619938804122  0.8169795968244175  0.36289574461688534  1.0000
  N   N2        1.0  0.7136191703656182  0.683021478517837  0.6371036684226963  1.0000
  N   N3        1.0  0.7863808124952457  0.1830209032411929  0.637104898393339  1.0000
  N   N4        1.0  0.286381580932499  0.3169780945900342  0.3628952478924176  1.0000
  N   N5        1.0  0.5521058490262334  0.8873414437175883  0.6747551102366243  1.0000
  N   N6        1.0  0.0521046954194162  0.612659545399076  0.3252447414503975  1.0000
  N   N7        1.0  0.4478949022730347  0.1126599871449301  0.325245168516254  1.0000
  N   N8        1.0  0.9478942404895889  0.38734095754543324  0.6747543333450137  1.0000
  N   N9        1.0  0.0466339055925573  0.5180305004760938  0.17055826415856493  1.0000
  N   N10       1.0  0.5466334718791188  0.9819686251180147  0.8294417904563216  1.0000
  N   N11       1.0  0.9533659380119062  0.4819690697521537  0.8294422203706586  1.0000
  N   N12       1.0  0.45336637172500366  0.018030946070034297  0.17055817133478965  1.0000
  N   N13       1.0  0.9997445560931624  0.0224787728426321  0.8656906162224511  1.0000
  N   N14       1.0  0.4997414414634989  0.4775194145069078  0.13430582350027004  1.0000
  N   N15       1.0  0.0002561952055302  0.977521729142559  0.13430898131154825  1.0000
  N   N16       1.0  0.5002547713597637  0.5224783018049164  0.8656912076377876  1.0000
  Cl  Cl1       1.0  0.28399883320317093  0.4808046563434798  0.2517854860890764  1.0000
  Cl  Cl2       1.0  0.7839972554985553  0.019195270066759907  0.7482148174366896  1.0000
  Cl  Cl3       1.0  0.716001010401186  0.5191958446816826  0.7482146341828011  1.0000
  Cl  Cl4       1.0  0.216000772716562  0.9808043001610119  0.251785667092065  1.0000
  Cl  Cl5       1.0  0.7404149579218213  0.5845592771332164  0.2484352030222538  1.0000
  Cl  Cl6       1.0  0.24041444472357654  0.915439949800984  0.7515654752207579  1.0000
  Cl  Cl7       1.0  0.25958488568185356  0.4154412258115343  0.7515638717733918  1.0000
  Cl  Cl8       1.0  0.7595853988809937  0.0845586896303629  0.24843537356581882  1.0000
  Cl  Cl9       1.0  0.4223260917738898  0.7516726993386978  0.24934992469935918  1.0000
  Cl  Cl10      1.0  0.9223254895754707  0.748327554425984  0.7506504839963525  1.0000
  Cl  Cl11      1.0  0.5776737518297851  0.24832780360605258  0.7506491500962864  1.0000
  Cl  Cl12      1.0  0.0776743540293268  0.25167201484246954  0.2493505232709906  1.0000
  Cl  Cl13      1.0  0.5401656742062501  0.3078373428354126  0.24865308840742975  1.0000
  Cl  Cl14      1.0  0.04016509773445881  0.19216245581172586  0.7513465654313547  1.0000
  Cl  Cl15      1.0  0.45983416939844807  0.6921631572299561  0.7513475546025601  1.0000
  Cl  Cl16      1.0  0.9598347458696637  0.807837115376323  0.24865339635975658  1.0000
  Cl  Cl17      1.0  0.51436914043461  0.6267420565438114  0.40818812609153793  1.0000
  Cl  Cl18      1.0  0.014369315061046002  0.873257983774117  0.5918110247297361  1.0000
  Cl  Cl19      1.0  0.48563070316998147  0.37325937431846495  0.5918121526611058  1.0000
  Cl  Cl20      1.0  0.9856314362363676  0.1267387998224123  0.4081874161430789  1.0000
  Cl  Cl21      1.0  0.21236713344520552  0.6842060816217241  0.10482211042075557  1.0000
  Cl  Cl22      1.0  0.7123667384280453  0.8157940622623485  0.8951776662240146  1.0000
  Cl  Cl23      1.0  0.7876345255488388  0.3157944184441206  0.8951785325897103  1.0000
  Cl  Cl24      1.0  0.2876340128706403  0.1842064397228498  0.10482193130997786  1.0000
