data_image0
_chemical_formula_structural       Zn4H48C56N8O16
_chemical_formula_sum              "Zn4 H48 C56 N8 O16"
_cell_length_a       8.070381963231569
_cell_length_b       12.894820713
_cell_length_c       13.1815
_cell_angle_alpha    90.0
_cell_angle_beta     104.08304594870566
_cell_angle_gamma    90.0

_space_group_name_H-M_alt    "P 1"
_space_group_IT_number       1

loop_
  _space_group_symop_operation_xyz
  'x, y, z'

loop_
  _atom_site_type_symbol
  _atom_site_label
  _atom_site_symmetry_multiplicity
  _atom_site_fract_x
  _atom_site_fract_y
  _atom_site_fract_z
  _atom_site_occupancy
  Zn  Zn1       1.0  0.2409815543304958  0.9365155412998688  0.1632589255635963  1.0000
  Zn  Zn2       1.0  0.2590172293026001  0.436516344451789  0.33674051390531895  1.0000
  Zn  Zn3       1.0  0.759021122915861  0.063485178911769  0.8367422319255055  1.0000
  Zn  Zn4       1.0  0.7409816154586366  0.5634836002546919  0.6632585553508221  1.0000
  H   H1        1.0  0.9786378502004922  0.07521934748749  0.065947735715298  1.0000
  H   H2        1.0  0.5213610556888779  0.575220095345891  0.4340517219670801  1.0000
  H   H3        1.0  0.021362272055782193  0.9247798217138338  0.9340522824981647  1.0000
  H   H4        1.0  0.4786377890723584  0.4247798493605898  0.5659473472890681  1.0000
  H   H5        1.0  0.131348207508637  0.1342096984919934  0.1477513972230113  1.0000
  H   H6        1.0  0.3686518536195037  0.6342096708452303  0.3522489912032256  1.0000
  H   H7        1.0  0.8686531922426821  0.8657902462144944  0.852248052669772  1.0000
  H   H8        1.0  0.6313469911417329  0.36579027386125057  0.6477515953309235  1.0000
  H   H9        1.0  0.1144035133005303  0.8078437251553295  0.827807904961034  1.0000
  H   H10       1.0  0.3855952703325656  0.3078460793175637  0.6721900172298731  1.0000
  H   H11       1.0  0.8855953314607061  0.1921531175305162  0.17219268157310808  1.0000
  H   H12       1.0  0.6144010194385883  0.6921530898837531  0.32780715411163897  1.0000
  H   H13       1.0  0.3130348295661277  0.7332339247235851  0.7308198722877108  1.0000
  H   H14       1.0  0.18696650905705064  0.23323317686518405  0.7691791891788354  1.0000
  H   H15       1.0  0.6869665701851841  0.2667660199828958  0.2691818535220705  1.0000
  H   H16       1.0  0.8130348906942686  0.7667652168309756  0.2308195020749437  1.0000
  H   H17       1.0  0.7411911246451622  0.8209327012455389  0.9783093025089684  1.0000
  H   H18       1.0  0.758807781244208  0.32093272889229496  0.5216901551734097  1.0000
  H   H19       1.0  0.2588115526011875  0.17906956997642703  0.021689579063128395  1.0000
  H   H20       1.0  0.2411910635170287  0.6790687668245068  0.47831118999973643  1.0000
  H   H21       1.0  0.7183929481646274  0.9035340823509159  0.12271093213657741  1.0000
  H   H22       1.0  0.7816021252396226  0.4035348855028289  0.37728567867385004  1.0000
  H   H23       1.0  0.2816084515866848  0.09646431134525098  0.8772870004781977  1.0000
  H   H24       1.0  0.2183916095414489  0.5964642836984878  0.622713387948032  1.0000
  H   H25       1.0  0.7122277571024824  0.021226351733922393  0.2621619131365946  1.0000
  H   H26       1.0  0.7877724262819328  0.5212255485820023  0.2378339416690949  1.0000
  H   H27       1.0  0.2877749201438746  0.9787743684777226  0.7378369684355022  1.0000
  H   H28       1.0  0.21222514098426606  0.4787736206193216  0.7621634199907348  1.0000
  H   H29       1.0  0.6652159396372994  0.9056062321383891  0.3229137656156524  1.0000
  H   H30       1.0  0.8347829662520707  0.40560315776451006  0.17708341614972056  1.0000
  H   H31       1.0  0.3347854601140128  0.09439526357841287  0.6770856842771238  1.0000
  H   H32       1.0  0.16521587850916566  0.5943944604264928  0.8229156531064276  1.0000
  H   H33       1.0  0.7124244913386164  0.11237379970231838  0.437836634287919  1.0000
  H   H34       1.0  0.7875731370557162  0.6123753230658835  0.062161874437137485  1.0000
  H   H35       1.0  0.2875717984325377  0.8876253694989982  0.5621643302485992  1.0000
  H   H36       1.0  0.2124257077055205  0.3876238461354404  0.9378364361800067  1.0000
  H   H37       1.0  0.5254056049849325  0.197183043998173  0.5391127911686198  1.0000
  H   H38       1.0  0.9745996883796408  0.6971861183720518  0.96088913538334  1.0000
  H   H39       1.0  0.4745945172713419  0.8028137986876729  0.46088950296184805  1.0000
  H   H40       1.0  0.0254029888667162  0.3028130508292719  0.0391120221057548  1.0000
  H   H41       1.0  0.20898796855337304  0.16178976400166076  0.4879156486929901  1.0000
  H   H42       1.0  0.2910159250598809  0.6617905118600618  0.0120883452441944  1.0000
  H   H43       1.0  0.7910095987128185  0.8382094051996631  0.5120870234398467  1.0000
  H   H44       1.0  0.7089854746914312  0.3382086573412622  0.987914897843595  1.0000
  H   H45       1.0  0.09521426030747188  0.0424945807464852  0.3355579413328372  1.0000
  H   H46       1.0  0.4047858008206617  0.5424937775945651  0.1644447230103978  1.0000
  H   H47       1.0  0.9047845844537645  0.9575038129496816  0.6644418865623081  1.0000
  H   H48       1.0  0.5952143214356127  0.4575030650912807  0.8355575711200699  1.0000
  C   C1        1.0  0.4951519674520384  0.8579421339954507  0.0048404715763724  1.0000
  C   C2        1.0  0.0048468161810575  0.3579444881576918  0.4951582092535389  1.0000
  C   C3        1.0  0.5048494322992738  0.1420562597007091  0.9951589783164038  1.0000
  C   C4        1.0  0.9951507510851412  0.6420585585694312  0.5048429456012897  1.0000
  C   C5        1.0  0.31289686010183  0.8561871658184115  0.9619535871505462  1.0000
  C   C6        1.0  0.1871006460362281  0.3561887444754888  0.5380441447220434  1.0000
  C   C7        1.0  0.687104539649489  0.1438120033829122  0.03804510410322589  1.0000
  C   C8        1.0  0.8128969212299637  0.6438135267464701  0.46195625149378833  1.0000
  C   C9        1.0  0.2518147122681285  0.8109310111972263  0.8610105937273076  1.0000
  C   C10       1.0  0.24818151637489183  0.3109325898543034  0.6389869478269717  1.0000
  C   C11       1.0  0.7481854099881531  0.1890666069937765  0.1389894244861551  1.0000
  C   C12       1.0  0.7518134959012244  0.6890681303573414  0.361010791835227  1.0000
  C   C13       1.0  0.36220689114363575  0.768836591113292  0.807176253270363  1.0000
  C   C14       1.0  0.1377944474795356  0.268836618760055  0.6928228081961834  1.0000
  C   C15       1.0  0.6377957861027139  0.23116490460351  0.1928256628577358  1.0000
  C   C16       1.0  0.8622031197866562  0.7311648769567467  0.3071760707416473  1.0000
  C   C17       1.0  0.5407432104329499  0.7715927364518791  0.8477528717890762  1.0000
  C   C18       1.0  0.9592582504465028  0.2715943151089562  0.6522477251689338  1.0000
  C   C19       1.0  0.4592607443084446  0.22840798375976584  0.152247717379332  1.0000
  C   C20       1.0  0.04073803932465129  0.7284071806078458  0.3477524807285803  1.0000
  C   C21       1.0  0.6035218716795256  0.8169776249296203  0.9454019706035482  1.0000
  C   C22       1.0  0.8964808666949649  0.3169768770712196  0.5545980580337755  1.0000
  C   C23       1.0  0.3964820830618692  0.1830261973026595  0.054597859925863204  1.0000
  C   C24       1.0  0.1035192555613094  0.6830261696559032  0.4454034774576883  1.0000
  C   C25       1.0  0.5775848898861682  0.9006096523926101  0.10580604085377132  1.0000
  C   C26       1.0  0.9224152934982468  0.40061123104969437  0.39418905531291404  1.0000
  C   C27       1.0  0.4224152323701062  0.09939029231387049  0.8941924600816905  1.0000
  C   C28       1.0  0.07758482875802737  0.5993910401722715  0.6058071697055425  1.0000
  C   C29       1.0  0.6556104544329315  0.7247025924586055  0.7870640693314641  1.0000
  C   C30       1.0  0.8443948389316416  0.22470417111568247  0.7129378572204956  1.0000
  C   C31       1.0  0.3443909453183807  0.27529812775303947  0.2129353805613121  1.0000
  C   C32       1.0  0.1556078383147153  0.7752973246011193  0.2870648175466002  1.0000
  C   C33       1.0  0.6068880711094378  0.9723151860002162  0.27452690889816717  1.0000
  C   C34       1.0  0.8931095572848946  0.4723113361211729  0.22546856527088718  1.0000
  C   C35       1.0  0.3931133286418741  0.0276870852217499  0.7254717823556119  1.0000
  C   C36       1.0  0.1068880099812972  0.5276862820698298  0.7745303136669435  1.0000
  C   C37       1.0  0.5017987741441985  0.0314296731238315  0.33576886869671085  1.0000
  C   C38       1.0  0.9981988542501341  0.5314288699719114  0.1642266054723436  1.0000
  C   C39       1.0  0.4982013481120759  0.9685702715826492  0.6642288735997468  1.0000
  C   C40       1.0  0.0017987130160576998  0.4685695237242484  0.8357722734654871  1.0000
  C   C41       1.0  0.5751448743601202  0.0980122196445805  0.41809207958310424  1.0000
  C   C42       1.0  0.9248540315292499  0.5980083144720183  0.0819066194602698  1.0000
  C   C43       1.0  0.42485269290607147  0.9019885005670645  0.5819083166327275  1.0000
  C   C44       1.0  0.07514609072702429  0.40198852821382036  0.918091881475185  1.0000
  C   C45       1.0  0.470392836085388  0.1457864395202293  0.4739015993523239  1.0000
  C   C46       1.0  0.029605947547708  0.6457848608631522  0.0260963228385833  1.0000
  C   C47       1.0  0.5296034536857659  0.8542135051862516  0.5260986065451903  1.0000
  C   C48       1.0  0.9703941747085665  0.3542127573278506  0.9739029367358756  1.0000
  C   C49       1.0  0.2949148399213968  0.1256349379380453  0.4462867668243859  1.0000
  C   C50       1.0  0.20508905369186434  0.6256333592809682  0.0537134339177925  1.0000
  C   C51       1.0  0.7050852823348777  0.8743665577787567  0.5537124927500727  1.0000
  C   C52       1.0  0.7949123460594549  0.3743665854255127  0.9462890505309929  1.0000
  C   C53       1.0  0.23120871727591205  0.059699162720725986  0.3628870855783147  1.0000
  C   C54       1.0  0.2687875113671012  0.5596999105791269  0.1371112146149613  1.0000
  C   C55       1.0  0.7687901274853244  0.940300781985755  0.6371127423168303  1.0000
  C   C56       1.0  0.7312113333941284  0.4402992586221899  0.8628908891971888  1.0000
  N   N1        1.0  0.5020478856769586  0.9339579252822431  0.17569142627911558  1.0000
  N   N2        1.0  0.9979471877272914  0.43395640191868506  0.3243089777263179  1.0000
  N   N3        1.0  0.4979535140743535  0.06604279492939469  0.8243072649746637  1.0000
  N   N4        1.0  0.00204654705378  0.5660419917774745  0.6756938820905702  1.0000
  N   N5        1.0  0.3330595643152279  0.014091704262071396  0.3092679679417358  1.0000
  N   N6        1.0  0.16694177430795065  0.5140893500998303  0.1907310935248034  1.0000
  N   N7        1.0  0.6669392804460088  0.9859090159495736  0.6907303426754083  1.0000
  N   N8        1.0  0.8330583479483236  0.4859090435963295  0.8092712006056644  1.0000
  O   O1        1.0  0.2027678452045194  0.8932640675172435  0.010587972235356298  1.0000
  O   O2        1.0  0.2972296609335388  0.3932679726898058  0.4894127941932425  1.0000
  O   O3        1.0  0.7972309995567173  0.1067343261789162  0.9894141315767939  1.0000
  O   O4        1.0  0.7027679063326528  0.6067350740373171  0.5105876020225892  1.0000
  O   O5        1.0  0.5851348855714704  0.6592879567087948  0.7156278596169585  1.0000
  O   O6        1.0  0.9148678528030203  0.15928798435555078  0.784371410381361  1.0000
  O   O7        1.0  0.414865236684804  0.34071276350285007  0.2843721585965042  1.0000
  O   O8        1.0  0.0851373794334123  0.8407119603509299  0.2156293691053648  1.0000
  O   O9        1.0  0.8126401447269627  0.7488200274289482  0.8076798607296283  1.0000
  O   O10       1.0  0.6873625936475276  0.2488208305808683  0.6923239611027086  1.0000
  O   O11       1.0  0.1873625325193942  0.2511806927826967  0.1923212967594736  1.0000
  O   O12       1.0  0.3126400835988292  0.7511798896307766  0.3076794723033913  1.0000
  O   O13       1.0  0.0874790278413968  0.06376436076936189  0.12125759139123461  1.0000
  O   O14       1.0  0.4125223107817816  0.5637643331226058  0.3787414700753117  1.0000
  O   O15       1.0  0.9125236494049602  0.9362355839371188  0.8787420488198593  1.0000
  O   O16       1.0  0.5874778114744927  0.436235611583875  0.6212577894991469  1.0000
