data_image0
_chemical_formula_structural       Zn8H96C108N32
_chemical_formula_sum              "Zn8 H96 C108 N32"
_cell_length_a       14.945416325533007
_cell_length_b       15.008903897524824
_cell_length_c       22.791863952013816
_cell_angle_alpha    89.29711116096195
_cell_angle_beta     90.47527000928946
_cell_angle_gamma    100.56962223250176

_space_group_name_H-M_alt    "P 1"
_space_group_IT_number       1

loop_
  _space_group_symop_operation_xyz
  'x, y, z'

loop_
  _atom_site_type_symbol
  _atom_site_label
  _atom_site_symmetry_multiplicity
  _atom_site_fract_x
  _atom_site_fract_y
  _atom_site_fract_z
  _atom_site_occupancy
  Zn  Zn1       1.0  0.5746016944410355  0.45099179842934217  0.9396911762280312  1.0000
  Zn  Zn2       1.0  0.575458894456972  0.4499477625986897  0.08155973083228221  1.0000
  Zn  Zn3       1.0  0.07329186892435766  0.9494632386905122  0.4413370209105097  1.0000
  Zn  Zn4       1.0  0.07357395905184215  0.9475658872819962  0.583253075444958  1.0000
  Zn  Zn5       1.0  0.4336041452229082  0.5931678604966846  0.0825679793667717  1.0000
  Zn  Zn6       1.0  0.42766691068495527  0.5859213486274937  0.9395372428903814  1.0000
  Zn  Zn7       1.0  0.9325126551692973  0.0911009883775051  0.5836456691810668  1.0000
  Zn  Zn8       1.0  0.9270297650585845  0.08524908541802026  0.4403835049734043  1.0000
  H   H1        1.0  0.43999501033763977  0.25882789090560715  0.9265291409736349  1.0000
  H   H2        1.0  0.4607983280940857  0.9203299563207707  0.013819027471185998  1.0000
  H   H3        1.0  0.0366370516295333  0.4276800316590012  0.5907602117900767  1.0000
  H   H4        1.0  0.9560415264349301  0.4183133191558283  0.5052643870998423  1.0000
  H   H5        1.0  0.6781139153458327  0.9334418213618817  0.08837976657884641  1.0000
  H   H6        1.0  0.4954590401278907  0.9322363945766694  0.940598573238667  1.0000
  H   H7        1.0  0.15422878565546944  0.4297537298842968  0.5974823483007725  1.0000
  H   H8        1.0  0.0035113693067430314  0.42859140907477666  0.4350808123824804  1.0000
  H   H9        1.0  0.7550796279105114  0.11411793436801781  0.9741121928990494  1.0000
  H   H10       1.0  0.6681345987317115  0.09847669200701152  0.9206562116587662  1.0000
  H   H11       1.0  0.25658663040523777  0.6109287764605256  0.49166148635014656  1.0000
  H   H12       1.0  0.4325281872264952  0.262845142060641  0.0996546678210564  1.0000
  H   H13       1.0  0.1857191220082512  0.5993782768896948  0.42931964792492044  1.0000
  H   H14       1.0  0.3333161289521129  0.16408392054491117  0.15819794785333843  1.0000
  H   H15       1.0  0.35376252910343436  0.17394121440594282  0.8534135728300285  1.0000
  H   H16       1.0  0.8170624034838738  0.6529882772338809  0.6461628495676238  1.0000
  H   H17       1.0  0.8540566803713929  0.6753246143231876  0.3530089274778945  1.0000
  H   H18       1.0  0.7235513169335945  0.5599141354899045  0.7197201326525188  1.0000
  H   H19       1.0  0.7626902794054756  0.5842843583420673  0.27801826821826847  1.0000
  H   H20       1.0  0.2399744717512888  0.07080735668974819  0.23157204780355303  1.0000
  H   H21       1.0  0.2614374290087369  0.08219933814544327  0.7791952863038462  1.0000
  H   H22       1.0  0.5442452162647554  0.754271443281034  0.7242719896018314  1.0000
  H   H23       1.0  0.9379776648996198  0.7576380380713343  0.428625922669049  1.0000
  H   H24       1.0  0.5322297188570673  0.7052842176661969  0.32184467479354595  1.0000
  H   H25       1.0  0.04183935702857162  0.24599870428110657  0.2197640066251054  1.0000
  H   H26       1.0  0.033147872987853995  0.20758782399139614  0.821314714728466  1.0000
  H   H27       1.0  0.13508802682992635  0.33913752738564534  0.14594253352026243  1.0000
  H   H28       1.0  0.1260762880445512  0.3001355459335501  0.8958804951499175  1.0000
  H   H29       1.0  0.6373478026889359  0.8469544610931407  0.6504355263460299  1.0000
  H   H30       1.0  0.6241817189156009  0.7970242528598844  0.39728775925969023  1.0000
  H   H31       1.0  0.9144717418377796  0.6893404764487768  0.0978189686127209  1.0000
  H   H32       1.0  0.9079175727946237  0.6218962386515158  0.9144453879475235  1.0000
  H   H33       1.0  0.4136360590708819  0.1807053404892685  0.6016524316136086  1.0000
  H   H34       1.0  0.92854912178948  0.7607438306490764  0.6006974361410897  1.0000
  H   H35       1.0  0.4080920457639009  0.1294500511489431  0.4159012588928803  1.0000
  H   H36       1.0  0.2466741784956028  0.45319898845990986  0.10412729950548538  1.0000
  H   H37       1.0  0.2420157783897565  0.4368365491315983  0.9196335275875996  1.0000
  H   H38       1.0  0.7435220871029317  0.9521830947036632  0.6002805374333634  1.0000
  H   H39       1.0  0.7409822827703961  0.9364860881581546  0.41867130377640654  1.0000
  H   H40       1.0  0.08067509852515546  0.702981652111184  0.09861258912714993  1.0000
  H   H41       1.0  0.07314046199448399  0.6360507865043271  0.9150406002296451  1.0000
  H   H42       1.0  0.5796599712104252  0.19506479194159704  0.6021114169332904  1.0000
  H   H43       1.0  0.5733419970247766  0.1443253337069592  0.41625322596816977  1.0000
  H   H44       1.0  0.22610564974015554  0.6425629666485548  0.9150933563041619  1.0000
  H   H45       1.0  0.5941773792512918  0.08697935843542835  0.10249727896173512  1.0000
  H   H46       1.0  0.22896237533164757  0.6573764529124586  0.10457874078132791  1.0000
  H   H47       1.0  0.7252835203264425  0.14298271733668597  0.41664498007683193  1.0000
  H   H48       1.0  0.7295584291074275  0.15675060020517148  0.6061836461367349  1.0000
  H   H49       1.0  0.6205767736448706  0.24384953564788242  0.10539721054216501  1.0000
  H   H50       1.0  0.6302534799869548  0.2509966236499892  0.9159041048017612  1.0000
  H   H51       1.0  0.11644153627258189  0.7410103303218774  0.607121549889861  1.0000
  H   H52       1.0  0.12472447758987931  0.7476619622581424  0.41759540766079084  1.0000
  H   H53       1.0  0.750394722847048  0.604383222957523  0.9138135183764645  1.0000
  H   H54       1.0  0.7612152153846522  0.5952790609468364  0.10394371946116372  1.0000
  H   H55       1.0  0.250233437607605  0.10278605854039571  0.4160197037612861  1.0000
  H   H56       1.0  0.4725090097258046  0.07704233688287589  0.020419915589584996  1.0000
  H   H57       1.0  0.2602749540854461  0.0924919031971143  0.6061567860596142  1.0000
  H   H58       1.0  0.5729356084650236  0.7813214704626147  0.10071560751399741  1.0000
  H   H59       1.0  0.5588666027161011  0.7750630197999014  0.9109761481315957  1.0000
  H   H60       1.0  0.0721783160570126  0.27727532023529716  0.6029450192219912  1.0000
  H   H61       1.0  0.05778885146645509  0.2742601818186613  0.41319101455925994  1.0000
  H   H62       1.0  0.47039240607514904  0.6791963326699528  0.805656554380498  1.0000
  H   H63       1.0  0.4880609496017458  0.6828250583758971  0.21612093992585102  1.0000
  H   H64       1.0  0.9752215318147746  0.18132113075553485  0.30733660693238113  1.0000
  H   H65       1.0  0.9868932620212689  0.18151333602463635  0.716858366679091  1.0000
  H   H66       1.0  0.6659462093041029  0.4856965906057694  0.21437130978240762  1.0000
  H   H67       1.0  0.06806135421241075  0.5830129992773792  0.6012186735104734  1.0000
  H   H68       1.0  0.6638903728783064  0.4970784588037985  0.8074119034829081  1.0000
  H   H69       1.0  0.1643257414269073  0.9839210076050475  0.7156990183544707  1.0000
  H   H70       1.0  0.16488021829115954  0.9953385607118219  0.309985678336986  1.0000
  H   H71       1.0  0.7089391636084558  0.09250582378393091  0.08242404135026501  1.0000
  H   H72       1.0  0.5076413389358265  0.08909211451133808  0.946697567972258  1.0000
  H   H73       1.0  0.18626617436324008  0.5884947734207057  0.5922167476303529  1.0000
  H   H74       1.0  0.018560468286800417  0.5858159493069692  0.43833164389085516  1.0000
  H   H75       1.0  0.7556526461392251  0.8261577935589058  0.033896279636636  1.0000
  H   H76       1.0  0.7949315407694042  0.8273872405024604  0.9611301907781141  1.0000
  H   H77       1.0  0.8714038993024217  0.8703415323872362  0.017835338454119703  1.0000
  H   H78       1.0  0.9661992800057463  0.5751684667948993  0.5076577057488194  1.0000
  H   H79       1.0  0.8332031408486527  0.0005124225787155981  0.9642869245115621  1.0000
  H   H80       1.0  0.7892403176663477  0.9973666237842519  0.0351147817242321  1.0000
  H   H81       1.0  0.548997417113469  0.8988188231646959  0.866506807730808  1.0000
  H   H82       1.0  0.5927305039571991  0.01631963112433966  0.8603255544941105  1.0000
  H   H83       1.0  0.6325340578987664  0.93909446995292  0.8134385459696957  1.0000
  H   H84       1.0  0.752167284122379  0.9772994730992365  0.882496869706216  1.0000
  H   H85       1.0  0.6975515859173597  0.8676756511959665  0.9017049230329521  1.0000
  H   H86       1.0  0.3831021286432659  0.45191389625083633  0.446301250460195  1.0000
  H   H87       1.0  0.3765903036170144  0.5603819701767347  0.47419423592511833  1.0000
  H   H88       1.0  0.42135305672865536  0.48121753454773836  0.5182605102296236  1.0000
  H   H89       1.0  0.5603765089346738  0.9318864867330207  0.09344776252721232  1.0000
  H   H90       1.0  0.27167696280852743  0.4794963647329026  0.5549241911398896  1.0000
  H   H91       1.0  0.26671360697736907  0.37655308578279534  0.5175240637106883  1.0000
  H   H92       1.0  0.06935026607425242  0.3989604334167466  0.36645203224872364  1.0000
  H   H93       1.0  0.1143416836008626  0.5165190157809292  0.36423579620286267  1.0000
  H   H94       1.0  0.16213998042956493  0.4409527744984985  0.32040276619112973  1.0000
  H   H95       1.0  0.26821178349624825  0.4745192158323943  0.39690161228695336  1.0000
  H   H96       1.0  0.20963578980649794  0.3653744203040289  0.414039840361994  1.0000
  C   C1        1.0  0.40207779928830695  0.3139549020220969  0.927758692960751  1.0000
  C   C2        1.0  0.6100289841993956  0.5351808925299009  0.8151582974311823  1.0000
  C   C3        1.0  0.0552941949374812  0.2608267879580737  0.4600967016404951  1.0000
  C   C4        1.0  0.7807087645190477  0.9615113833996386  0.9930297743363994  1.0000
  C   C5        1.0  0.8011563926056409  0.8662387797251011  0.0019248812244825005  1.0000
  C   C6        1.0  0.6886543880490948  0.9387769443107671  0.9012781319046612  1.0000
  C   C7        1.0  0.6112885400023058  0.9487972333492678  0.8586311080013972  1.0000
  C   C8        1.0  0.2740897866037457  0.4504663869749804  0.5110201816963169  1.0000
  C   C9        1.0  0.36833807349875514  0.4878809194785844  0.4856702263734364  1.0000
  C   C10       1.0  0.20190998675607122  0.4369587120248751  0.411778749914987  1.0000
  C   C11       1.0  0.13278210316131123  0.44887929296780266  0.36366489582646727  1.0000
  C   C12       1.0  0.11448218842393489  0.02698885690531229  0.7073766881498146  1.0000
  C   C13       1.0  0.11181696078023862  0.034531395989176886  0.3174857835779576  1.0000
  C   C14       1.0  0.7982186720612815  0.6201450226636352  0.0083053517454204  1.0000
  C   C15       1.0  0.2976513548626372  0.1184031520481454  0.5106140556817637  1.0000
  C   C16       1.0  0.5826084911959484  0.8221252664551527  0.004844864470477701  1.0000
  C   C17       1.0  0.08115080433393024  0.31967905952502923  0.5073937751476478  1.0000
  C   C18       1.0  0.5839553472698212  0.6057329863733895  0.7818107250118659  1.0000
  C   C19       1.0  0.5944336146913686  0.5994003860561747  0.23997904596867412  1.0000
  C   C20       1.0  0.0880494971854446  0.1064214772792127  0.2843346345628035  1.0000
  C   C21       1.0  0.39770088206768145  0.32023879689795354  0.09740898830183649  1.0000
  C   C22       1.0  0.0934610892069756  0.09839490193478177  0.7408122662979366  1.0000
  C   C23       1.0  0.6383326096648358  0.0644533995424013  0.06951574498376799  1.0000
  C   C24       1.0  0.5222311455258435  0.05930409595537607  0.9893163181729393  1.0000
  C   C25       1.0  0.11913764363363548  0.5607091148632504  0.573131196543173  1.0000
  C   C26       1.0  0.022537887754069223  0.5565245743027204  0.4826016023094438  1.0000
  C   C27       1.0  0.6214083389929214  0.9598004691906324  0.06784759347547721  1.0000
  C   C28       1.0  0.5147294080779686  0.9558923868612296  0.9849324627514875  1.0000
  C   C29       1.0  0.10292939463142403  0.45629413458396323  0.5712046181057602  1.0000
  C   C30       1.0  0.015002391115721991  0.45289323371754614  0.4800144779626764  1.0000
  C   C31       1.0  0.6862232896893231  0.07625709622517009  0.9646945251050242  1.0000
  C   C32       1.0  0.9003621862256567  0.8130299826735623  0.42909926773563006  1.0000
  C   C33       1.0  0.19125675226531771  0.5741883402012107  0.47453157950191394  1.0000
  C   C34       1.0  0.6192864481767586  0.10366082742781656  0.0090205776673145  1.0000
  C   C35       1.0  0.11396464278453779  0.6005828578083977  0.5110247798484195  1.0000
  C   C36       1.0  0.6047177022964547  0.9248055713827622  0.0043482443352758  1.0000
  C   C37       1.0  0.100609232826173  0.4222615435831328  0.5071933402152666  1.0000
  C   C38       1.0  0.3028361042096535  0.4171391011170726  0.09938771022923021  1.0000
  C   C39       1.0  0.30092422236165817  0.4045556134330325  0.925021241648537  1.0000
  C   C40       1.0  0.7997137120441521  0.9158064095901961  0.5971242676216023  1.0000
  C   C41       1.0  0.7996855933251653  0.9040968704113155  0.4248474341802151  1.0000
  C   C42       1.0  0.6874597480641782  0.9722011332470044  0.9654291075695624  1.0000
  C   C43       1.0  0.8941130705708177  0.8183190707779814  0.5973164816496422  1.0000
  C   C44       1.0  0.19057245696184574  0.46991870697629423  0.4750476572213032  1.0000
  C   C45       1.0  0.26896906171919  0.18240215915934496  0.171010162328507  1.0000
  C   C46       1.0  0.2829134198452365  0.18097255506412321  0.84739842383474  1.0000
  C   C47       1.0  0.7570732953414561  0.675886016759506  0.662912048923154  1.0000
  C   C48       1.0  0.7828792792721873  0.6813465742875239  0.3472595406263537  1.0000
  C   C49       1.0  0.7040857126388573  0.6231094477812887  0.704833149113732  1.0000
  C   C50       1.0  0.7311153407350305  0.6298185313332921  0.30466129948267456  1.0000
  C   C51       1.0  0.21603090699947813  0.1295077135911455  0.21284411614736604  1.0000
  C   C52       1.0  0.2305693696258544  0.12897090561608587  0.805231653832024  1.0000
  C   C53       1.0  0.6287629239497078  0.6516806779425436  0.7302307300055092  1.0000
  C   C54       1.0  0.5117429286494614  0.6280376839521579  0.8144090501035423  1.0000
  C   C55       1.0  0.6413784263075685  0.6406615507090834  0.29209090345735694  1.0000
  C   C56       1.0  0.1350001973634463  0.1528519064234075  0.23355315866196952  1.0000
  C   C57       1.0  0.1411296060394776  0.1405839168957783  0.7924444662117056  1.0000
  C   C58       1.0  0.6039528136524766  0.7311383682145801  0.7071946720674376  1.0000
  C   C59       1.0  0.6032827590793418  0.6990045821821836  0.3282498742678044  1.0000
  C   C60       1.0  0.10587411942527318  0.22735738596625762  0.2064516450011524  1.0000
  C   C61       1.0  0.10394760995904312  0.20048757330688718  0.8279040741239926  1.0000
  C   C62       1.0  0.15881852232570987  0.2802352836920362  0.1644949210481172  1.0000
  C   C63       1.0  0.15649322654033426  0.2527042171338323  0.870168216104041  1.0000
  C   C64       1.0  0.6568879124026664  0.7838140288661889  0.6652139169661667  1.0000
  C   C65       1.0  0.5245600157183503  0.6282115503074762  0.2072604030965834  1.0000
  C   C66       1.0  0.6552205755715478  0.7507020952009569  0.3709961487954417  1.0000
  C   C67       1.0  0.2438415085937393  0.2615525409246473  0.1475945380639487  1.0000
  C   C68       1.0  0.24874410516781603  0.24752941608605275  0.878869090182647  1.0000
  C   C69       1.0  0.7376225476405764  0.7600772900534879  0.6442257765096359  1.0000
  C   C70       1.0  0.7477756068694177  0.7466031279099852  0.3794089825804435  1.0000
  C   C71       1.0  0.9488163813725308  0.6768792983743239  0.05749348396424381  1.0000
  C   C72       1.0  0.9452244959712386  0.6408727376007801  0.9550718981581526  1.0000
  C   C73       1.0  0.4481023455563574  0.1720821890827153  0.5606602788394923  1.0000
  C   C74       1.0  0.4450446136313033  0.1447833222907633  0.45707486552143456  1.0000
  C   C75       1.0  0.04311564413844593  0.6845427070534953  0.057932833784406106  1.0000
  C   C76       1.0  0.015163103003772006  0.1289995290352195  0.3161492933694631  1.0000
  C   C77       1.0  0.03918351547877559  0.6485953288686515  0.9554958137834079  1.0000
  C   C78       1.0  0.5424331962184823  0.18013323393821412  0.5609282113718522  1.0000
  C   C79       1.0  0.5391114657195786  0.15289653715517196  0.45734846122099526  1.0000
  C   C80       1.0  0.09027758462990935  0.6662213825070396  0.007598889317172601  1.0000
  C   C81       1.0  0.5899775606227776  0.16618424671996473  0.5098023166213537  1.0000
  C   C82       1.0  0.24122972429042727  0.6438522929192912  0.9617890910530421  1.0000
  C   C83       1.0  0.2430485098411453  0.6520030001533853  0.05819274057711251  1.0000
  C   C84       1.0  0.74071773110591  0.14405750825101646  0.4632954579232447  1.0000
  C   C85       1.0  0.743174678172103  0.1515694242462899  0.5597231206958213  1.0000
  C   C86       1.0  0.8969653898953566  0.6501762279249375  0.006747043056790901  1.0000
  C   C87       1.0  0.02319405965937451  0.1266888424259491  0.7081981114498249  1.0000
  C   C88       1.0  0.3964003602872737  0.14930509426903876  0.5092915141335865  1.0000
  C   C89       1.0  0.6218207688322863  0.2605056177326688  0.05886988302007981  1.0000
  C   C90       1.0  0.6269563207147398  0.2642186859128798  0.962529392080171  1.0000
  C   C91       1.0  0.11768756204050851  0.7576537863357939  0.5605969178179678  1.0000
  C   C92       1.0  0.12214531912132291  0.7611232161222217  0.46423098026327375  1.0000
  C   C93       1.0  0.31096432473894  0.3153181000653759  0.9122617663552931  1.0000
  C   C94       1.0  0.30835008589783536  0.32671170248858056  0.11356869002156601  1.0000
  C   C95       1.0  0.8095684664780121  0.8145427632513458  0.41294630822878287  1.0000
  C   C96       1.0  0.8039755651741202  0.8251130995457739  0.6113618658708262  1.0000
  C   C97       1.0  0.18618377142136217  0.6579602336710692  0.009296522428812203  1.0000
  C   C98       1.0  0.6160707861671142  0.5287336780035118  0.2061037064613771  1.0000
  C   C99       1.0  0.6859475488507698  0.15790040636044  0.5110376420155802  1.0000
  C   C100      1.0  0.6256352316130388  0.20459094811189965  0.010508224377389302  1.0000
  C   C101      1.0  0.12017602330278983  0.7014625229469046  0.5122471258851817  1.0000
  C   C102      1.0  0.7389630193521979  0.5944912707324904  0.9606248932644873  1.0000
  C   C103      1.0  0.7440493900477559  0.5905825044229471  0.057567713927205895  1.0000
  C   C104      1.0  0.23866850606139414  0.092595537617207  0.46279295427275013  1.0000
  C   C105      1.0  0.24342255936768  0.08788935468471239  0.5597458700421711  1.0000
  C   C106      1.0  0.562778102955292  0.765670192892678  0.05450952803538911  1.0000
  C   C107      1.0  0.5559812770570431  0.7627098329539802  0.9579693319772319  1.0000
  C   C108      1.0  0.06250086103008809  0.2621994674855229  0.5566258897346971  1.0000
  N   N1        1.0  0.44251137583051303  0.3962649257146253  0.9467389863517468  1.0000
  N   N2        1.0  0.32458080787558424  0.6356761128182739  0.04101528670137361  1.0000
  N   N3        1.0  0.8228549111196771  0.13073197562282238  0.4820362198068224  1.0000
  N   N4        1.0  0.8245918339761147  0.1353667207499782  0.5422040626063734  1.0000
  N   N5        1.0  0.6203692600143071  0.3464275301523685  0.0410494171806945  1.0000
  N   N6        1.0  0.6235615902172923  0.3486675122041874  0.9809113624273422  1.0000
  N   N7        1.0  0.11764053049326154  0.8438200245063  0.5427476830350743  1.0000
  N   N8        1.0  0.12039305795538985  0.8459125322635614  0.4825952807426503  1.0000
  N   N9        1.0  0.6575763194334739  0.5512602959033757  0.9804166244358613  1.0000
  N   N10       1.0  0.6607086047035579  0.5487964386104378  0.0399913630021871  1.0000
  N   N11       1.0  0.1574999853735548  0.048511292973238085  0.482371796825703  1.0000
  N   N12       1.0  0.4414097980563199  0.40087748246108373  0.0767968979817226  1.0000
  N   N13       1.0  0.16040963470246788  0.04561858878876279  0.5419417461193207  1.0000
  N   N14       1.0  0.5262221643682351  0.6803118978612732  0.03811390475206619  1.0000
  N   N15       1.0  0.5222031968490342  0.6785847646195862  0.9786844686047756  1.0000
  N   N16       1.0  0.026775461932373908  0.1769246553587038  0.5396907321860808  1.0000
  N   N17       1.0  0.022505100239236197  0.17620246566630018  0.4802006574028895  1.0000
  N   N18       1.0  0.4965142720580856  0.5752761488517775  0.8628065671096224  1.0000
  N   N19       1.0  0.5065924978631031  0.5789496532249032  0.15813261775330292  1.0000
  N   N20       1.0  0.997579199288424  0.07532034312051653  0.3639966678987321  1.0000
  N   N21       1.0  0.0044264453020304104  0.07647336414120082  0.6595189053221162  1.0000
  N   N22       1.0  0.5635620490014404  0.5168152337433225  0.15759976582234  1.0000
  N   N23       1.0  0.9408458076167036  0.8955689486714392  0.4476998234102822  1.0000
  N   N24       1.0  0.5578242080070908  0.5174431314533904  0.8632143829305364  1.0000
  N   N25       1.0  0.06130964875487169  0.014247998822305902  0.6591939754635519  1.0000
  N   N26       1.0  0.0579036338552399  0.016446743068080093  0.3647535099472848  1.0000
  N   N27       1.0  0.9393250369314287  0.8990092809587008  0.5778086474626319  1.0000
  N   N28       1.0  0.38313309181219074  0.46041236294453813  0.07798432771111412  1.0000
  N   N29       1.0  0.38048599325234983  0.452055000501808  0.9450002050765604  1.0000
  N   N30       1.0  0.8813504348944291  0.9588857042403162  0.5776633957195116  1.0000
  N   N31       1.0  0.8791083304258576  0.9516232954313465  0.44501133270359367  1.0000
  N   N32       1.0  0.32320084933829923  0.6306769982012453  0.9808747588951477  1.0000
