data_image0
_chemical_formula_structural       Cu8H96C144N24O24
_chemical_formula_sum              "Cu8 H96 C144 N24 O24"
_cell_length_a       15.307837386133498
_cell_length_b       19.373614486037543
_cell_length_c       20.89910552106774
_cell_angle_alpha    90.00006970411972
_cell_angle_beta     99.66881120029545
_cell_angle_gamma    89.99977691647037

_space_group_name_H-M_alt    "P 1"
_space_group_IT_number       1

loop_
  _space_group_symop_operation_xyz
  'x, y, z'

loop_
  _atom_site_type_symbol
  _atom_site_label
  _atom_site_symmetry_multiplicity
  _atom_site_fract_x
  _atom_site_fract_y
  _atom_site_fract_z
  _atom_site_occupancy
  Cu  Cu1       1.0  0.6773200102323076  0.5348831300938245  0.7616866113962291  1.0000
  Cu  Cu2       1.0  0.5457170358443266  0.4602524910576377  0.8283738192310752  1.0000
  Cu  Cu3       1.0  0.6773192345902715  0.9651246640647955  0.26168627707022557  1.0000
  Cu  Cu4       1.0  0.545714974858477  0.03975757562157161  0.32837046975960504  1.0000
  Cu  Cu5       1.0  0.32266438058340446  0.0348602900270265  0.7383049084129994  1.0000
  Cu  Cu6       1.0  0.4542819939706605  0.9602082803196905  0.6716357042286705  1.0000
  Cu  Cu7       1.0  0.3226602879711749  0.46513021312941316  0.23830370050626473  1.0000
  Cu  Cu8       1.0  0.4542759424914565  0.5397871766181126  0.17162996548588444  1.0000
  H   H1        1.0  0.627184451610063  0.9504995991034658  0.11577342814919693  1.0000
  H   H2        1.0  0.615962619536859  0.8636536054195074  0.026857981858000802  1.0000
  H   H3        1.0  0.6987416401643716  0.7091847227424991  0.17422886405513086  1.0000
  H   H4        1.0  0.6995474848605526  0.8023418890319433  0.2564760318934063  1.0000
  H   H5        1.0  0.6754439425867961  0.8025024056301145  0.9666511498577464  1.0000
  H   H6        1.0  0.6787075286960871  0.7167418879370687  0.8796721478027366  1.0000
  H   H7        1.0  0.6568759965871607  0.5522134564632353  0.01409190566518961  1.0000
  H   H8        1.0  0.6518728824852718  0.6372389567948673  0.10147809324413262  1.0000
  H   H9        1.0  0.8296826661513851  0.6220597390032553  0.8047769202584477  1.0000
  H   H10       1.0  0.9942808260236832  0.6150809326734147  0.8202817900445966  1.0000
  H   H11       1.0  0.9661696024210259  0.3966008096596099  0.780092337215578  1.0000
  H   H12       1.0  0.8026530735621692  0.4139519672548603  0.76199845194148  1.0000
  H   H13       1.0  0.11470622830557184  0.5763461390228314  0.8867380521868141  1.0000
  H   H14       1.0  0.2791724237828463  0.5687334805151637  0.9013295435219036  1.0000
  H   H15       1.0  0.2595712751340643  0.4125534710646265  0.754328949011395  1.0000
  H   H16       1.0  0.09457563737702661  0.4194889196955814  0.7382618716304492  1.0000
  H   H17       1.0  0.5552489658841752  0.0342264178318032  0.4666024940719923  1.0000
  H   H18       1.0  0.5717296915047074  0.11492022377134253  0.558884697407578  1.0000
  H   H19       1.0  0.5623940200291602  0.28176820619236764  0.4188059425883496  1.0000
  H   H20       1.0  0.5511551895147309  0.19190625681147114  0.33274987818343504  1.0000
  H   H21       1.0  0.5296238995574146  0.19162723310277133  0.6194434195983052  1.0000
  H   H22       1.0  0.556496715563654  0.27518212956998417  0.70971687770016  1.0000
  H   H23       1.0  0.6688048728709718  0.41832191982089756  0.5889839418228817  1.0000
  H   H24       1.0  0.6435928500448471  0.3346968216187207  0.4977790571781143  1.0000
  H   H25       1.0  0.6271745578680666  0.5495107376638586  0.615772986236614  1.0000
  H   H26       1.0  0.6159489911977901  0.6363535516379812  0.5268567124702771  1.0000
  H   H27       1.0  0.6987338632596974  0.7908239226096397  0.6742241557097446  1.0000
  H   H28       1.0  0.6995401882589933  0.6976689269342488  0.7564755843923907  1.0000
  H   H29       1.0  0.6754424446285088  0.6975020513352989  0.4666475630906035  1.0000
  H   H30       1.0  0.6787049520102288  0.7832619281678462  0.37966804871679477  1.0000
  H   H31       1.0  0.6568648212218381  0.947790460992771  0.5140879227823946  1.0000
  H   H32       1.0  0.6518594510792187  0.8627645750772643  0.6014718337890346  1.0000
  H   H33       1.0  0.8296823456423825  0.8779455789247737  0.3047813288743769  1.0000
  H   H34       1.0  0.9942817793615008  0.8849233835375615  0.3202839656158717  1.0000
  H   H35       1.0  0.9661712542887745  0.10340273920575528  0.2800952422170937  1.0000
  H   H36       1.0  0.8026548160456459  0.0860536089184123  0.2620023055767363  1.0000
  H   H37       1.0  0.11470695592154102  0.9236589040105658  0.38673498017058  1.0000
  H   H38       1.0  0.2791737631204328  0.9312690115061955  0.401324638787365  1.0000
  H   H39       1.0  0.25956964382622527  0.0874501513123747  0.2543252248754939  1.0000
  H   H40       1.0  0.09457339467753914  0.08051570487823771  0.23826045949524405  1.0000
  H   H41       1.0  0.5552423856495283  0.4657791562878799  0.9666048203500993  1.0000
  H   H42       1.0  0.5717200307059546  0.3850816652031028  0.05888417336574749  1.0000
  H   H43       1.0  0.5623912057923663  0.21823986377067686  0.9187983957706294  1.0000
  H   H44       1.0  0.5511566175395759  0.30810586357853254  0.8327477208453617  1.0000
  H   H45       1.0  0.5296179030833273  0.30838054296037853  0.11944085487672142  1.0000
  H   H46       1.0  0.5564957667721162  0.22482723138148233  0.2097157789900521  1.0000
  H   H47       1.0  0.6687986163204446  0.08168487206680912  0.08897774640094981  1.0000
  H   H48       1.0  0.6435737381275148  0.16530800587141672  0.9977714246227907  1.0000
  H   H49       1.0  0.372813119232582  0.4504979600630109  0.38423016700803464  1.0000
  H   H50       1.0  0.3840386715729452  0.36365359758981  0.47314452508111776  1.0000
  H   H51       1.0  0.30126171563264154  0.20918683976505997  0.3257732398066296  1.0000
  H   H52       1.0  0.3004567482089655  0.30234286777319147  0.243526279299175  1.0000
  H   H53       1.0  0.32455849294650113  0.302492709892384  0.5333581266569852  1.0000
  H   H54       1.0  0.32130457869863005  0.2167302522156902  0.6203357936199724  1.0000
  H   H55       1.0  0.3431446664711829  0.052207913378367714  0.48591017247748886  1.0000
  H   H56       1.0  0.34814143989902396  0.13723534780582008  0.3985276299581742  1.0000
  H   H57       1.0  0.17031519621924224  0.12203937514767917  0.695212950971694  1.0000
  H   H58       1.0  0.005713849756936903  0.11506311904214073  0.6797201348190144  1.0000
  H   H59       1.0  0.03384084110280132  0.8965770531838333  0.7198974216913712  1.0000
  H   H60       1.0  0.1973565557530605  0.9139308289603606  0.7379821377053588  1.0000
  H   H61       1.0  0.8852919435219136  0.07632450156491899  0.6132637678500076  1.0000
  H   H62       1.0  0.7208245632247455  0.06872265273310768  0.5986860033826745  1.0000
  H   H63       1.0  0.7404405889713037  0.9125389320779504  0.7456839645487819  1.0000
  H   H64       1.0  0.9054361073801619  0.9194697653455536  0.7617395514540564  1.0000
  H   H65       1.0  0.4447566391562248  0.5342279929318536  0.03341068998917512  1.0000
  H   H66       1.0  0.42828951790879455  0.61491516067548  0.9411220635883099  1.0000
  H   H67       1.0  0.4376155989628786  0.7817719309160722  0.08119507345188032  1.0000
  H   H68       1.0  0.44885221818784526  0.6919141897641268  0.16725173225690074  1.0000
  H   H69       1.0  0.47038164464052573  0.6916235092506327  0.8805560563895156  1.0000
  H   H70       1.0  0.4434964916597225  0.775173207678563  0.7902802640121038  1.0000
  H   H71       1.0  0.3311982592493835  0.9183186639802655  0.9110159755938412  1.0000
  H   H72       1.0  0.3564311001408171  0.8347022403222514  0.0022246813395412  1.0000
  H   H73       1.0  0.3728118222314407  0.04949671062664151  0.8842283566052488  1.0000
  H   H74       1.0  0.38403495813529537  0.13634115580897094  0.9731410872227855  1.0000
  H   H75       1.0  0.3012545978566692  0.2908059091591255  0.8257681314657007  1.0000
  H   H76       1.0  0.30044877466219333  0.19764822670559573  0.7435238371665492  1.0000
  H   H77       1.0  0.3245602796133582  0.19750319507506484  0.03335110317208031  1.0000
  H   H78       1.0  0.3212993262393341  0.28326474509458427  0.12032802634335131  1.0000
  H   H79       1.0  0.3431301634425381  0.44778956340498866  0.9859038792380304  1.0000
  H   H80       1.0  0.348131303893176  0.36276148224777677  0.898519370552215  1.0000
  H   H81       1.0  0.17031486848259192  0.37795050719981305  0.19521640174792051  1.0000
  H   H82       1.0  0.005713456204816202  0.3849313782035324  0.17971927899185403  1.0000
  H   H83       1.0  0.0338431627079743  0.603417695175395  0.21990136348259173  1.0000
  H   H84       1.0  0.19735897158965096  0.5860577627551038  0.23798750704997934  1.0000
  H   H85       1.0  0.8852893648980713  0.4236739143400924  0.11326125902486696  1.0000
  H   H86       1.0  0.7208239360170765  0.4312808950304047  0.09868373539440263  1.0000
  H   H87       1.0  0.7404423175117005  0.5874583236264075  0.24568686108571572  1.0000
  H   H88       1.0  0.9054378728477916  0.5805239073202132  0.2617429232330721  1.0000
  H   H89       1.0  0.44475602651553475  0.9657652464012401  0.5334142055834762  1.0000
  H   H90       1.0  0.42828648014873494  0.8850827960885895  0.4411218499550174  1.0000
  H   H91       1.0  0.4376108003742518  0.7182203610301272  0.5811877687521729  1.0000
  H   H92       1.0  0.4488509849044747  0.8080735355905374  0.6672478224064662  1.0000
  H   H93       1.0  0.47037961342695683  0.8083649472848152  0.38055252849321164  1.0000
  H   H94       1.0  0.44349686104241937  0.7248126316621253  0.2902783653200914  1.0000
  H   H95       1.0  0.3311959930407725  0.5816707767368072  0.41101216945993724  1.0000
  H   H96       1.0  0.35641795942071763  0.6652896809334691  0.5022187170214283  1.0000
  C   C1        1.0  0.6423506233086372  0.8961385339398763  0.1261172449576833  1.0000
  C   C2        1.0  0.6376526553036685  0.8474356711327077  0.07691702897353282  1.0000
  C   C3        1.0  0.660570435016844  0.7783065734550547  0.09213032795422293  1.0000
  C   C4        1.0  0.6820377150454321  0.761854310877702  0.15843076116862423  1.0000
  C   C5        1.0  0.6835756967599665  0.8136417842456041  0.20463528877778717  1.0000
  C   C6        1.0  0.6634057195216628  0.7264922493774294  0.04083013033697111  1.0000
  C   C7        1.0  0.6710341429417641  0.7477790224895955  0.9776418197708169  1.0000
  C   C8        1.0  0.6738253095536068  0.6999014976693021  0.9286757380072007  1.0000
  C   C9        1.0  0.6684743027161775  0.6290979994072856  0.9412888367556678  1.0000
  C   C10       1.0  0.6616079680222527  0.607205762300694  0.004217185141634212  1.0000
  C   C11       1.0  0.659524511614329  0.6553171093182614  0.05335417359078323  1.0000
  C   C12       1.0  0.8630808320381721  0.5733857514940653  0.7989062161812016  1.0000
  C   C13       1.0  0.954717414718438  0.5686425681208647  0.8085104006852648  1.0000
  C   C14       1.0  0.9956342184255009  0.5047752237590685  0.8015026161712273  1.0000
  C   C15       1.0  0.9391996951488439  0.4480713735710039  0.7847506391428922  1.0000
  C   C16       1.0  0.8478526150864883  0.4569805319039161  0.7752598928672755  1.0000
  C   C17       1.0  0.09282399763462483  0.4985645607519586  0.8113158489764771  1.0000
  C   C18       1.0  0.14591090670214876  0.540766752957083  0.8569750567379446  1.0000
  C   C19       1.0  0.23774814057095747  0.5364060477185505  0.8657887411377774  1.0000
  C   C20       1.0  0.278967781725406  0.49002948236604044  0.828914364787636  1.0000
  C   C21       1.0  0.22661421627444872  0.44766624535542837  0.7834008855248414  1.0000
  C   C22       1.0  0.13458057802466786  0.4516067920131093  0.7748834418152059  1.0000
  C   C23       1.0  0.3785967952399434  0.48709802939331576  0.8388576127109745  1.0000
  C   C24       1.0  0.6663372817135382  0.5784755081409828  0.8869622538936355  1.0000
  C   C25       1.0  0.5581860274419129  0.08961514326998102  0.4588476003696798  1.0000
  C   C26       1.0  0.566835530241562  0.1359549936217235  0.5100315066003915  1.0000
  C   C27       1.0  0.5707319231709037  0.20700986716391154  0.497767181585573  1.0000
  C   C28       1.0  0.563161079758281  0.22747168608959364  0.4324660024091146  1.0000
  C   C29       1.0  0.5553627309107654  0.17809574795847283  0.3837223697548638  1.0000
  C   C30       1.0  0.5836372349656431  0.25730509223349424  0.5514303816096487  1.0000
  C   C31       1.0  0.560069622869584  0.24117549879861144  0.6119769997498993  1.0000
  C   C32       1.0  0.5746371774200584  0.2881734514961636  0.6629547764091159  1.0000
  C   C33       1.0  0.6132792902052345  0.35245308015093  0.6547751047487511  1.0000
  C   C34       1.0  0.6373766005705408  0.36876384731297657  0.5946762926616247  1.0000
  C   C35       1.0  0.6225825831183373  0.3219057759312421  0.5436940303408448  1.0000
  C   C36       1.0  0.6290777613782979  0.4031767193728584  0.7097523565730129  1.0000
  C   C37       1.0  0.6423431115982439  0.6038702213396833  0.6261161897952405  1.0000
  C   C38       1.0  0.6376415924467694  0.652572517567684  0.5769151260831933  1.0000
  C   C39       1.0  0.6605643266498266  0.7217000163435329  0.5921271775412507  1.0000
  C   C40       1.0  0.6820302057965437  0.7381553973298836  0.6584279405495793  1.0000
  C   C41       1.0  0.6835717642450876  0.6863679801409789  0.7046347510182543  1.0000
  C   C42       1.0  0.6633993511897318  0.7735158125741534  0.5408255706674083  1.0000
  C   C43       1.0  0.671033699939926  0.752225978684571  0.477637462080736  1.0000
  C   C44       1.0  0.6738226446948943  0.8001060112058839  0.42867069001781744  1.0000
  C   C45       1.0  0.6684706418221822  0.870907477883364  0.4412847052747892  1.0000
  C   C46       1.0  0.6615977198132372  0.8927996760875769  0.5042132519921338  1.0000
  C   C47       1.0  0.6595158093857382  0.8446873679162864  0.5533489359909893  1.0000
  C   C48       1.0  0.8630796219230066  0.9266204883599799  0.2989115295559657  1.0000
  C   C49       1.0  0.9547168193754274  0.931361338029383  0.3085124430485138  1.0000
  C   C50       1.0  0.9956339570598306  0.9952300958669581  0.3015018978412273  1.0000
  C   C51       1.0  0.9391989439193227  0.05193226434639801  0.2847532010822604  1.0000
  C   C52       1.0  0.84785322844445  0.043025955137402094  0.2752621290195806  1.0000
  C   C53       1.0  0.09282611124562833  0.0014406816722357  0.3113148684514755  1.0000
  C   C54       1.0  0.1459127921069552  0.9592366064153312  0.3569726404026313  1.0000
  C   C55       1.0  0.237749342340294  0.9635965247930826  0.3657862481847189  1.0000
  C   C56       1.0  0.2789671785516391  0.009973662541497699  0.32890972059956175  1.0000
  C   C57       1.0  0.2266134308466335  0.052337000493373885  0.28339913737032424  1.0000
  C   C58       1.0  0.13457714297840798  0.048396209362167  0.27487898122015514  1.0000
  C   C59       1.0  0.37860149719911373  0.012902757685012  0.3388559961589692  1.0000
  C   C60       1.0  0.6663333988364288  0.921531968766992  0.38696102283235945  1.0000
  C   C61       1.0  0.5581790366079248  0.41039247626083863  0.9588479026118648  1.0000
  C   C62       1.0  0.5668286105096529  0.3640504591518265  0.010029850352751233  1.0000
  C   C63       1.0  0.5707194864158611  0.29299621661298403  0.9977604850936147  1.0000
  C   C64       1.0  0.5631547053905737  0.2725348510319989  0.9324600054494426  1.0000
  C   C65       1.0  0.5553561441400703  0.32191229737810545  0.8837197514759794  1.0000
  C   C66       1.0  0.5836242650857033  0.24270087963999032  0.05142691375048263  1.0000
  C   C67       1.0  0.560064534539592  0.25883165766245503  0.11197544549816744  1.0000
  C   C68       1.0  0.5746389525206297  0.21183475970927654  0.16295542330217935  1.0000
  C   C69       1.0  0.6132840072080797  0.147555517642509  0.15477363862634524  1.0000
  C   C70       1.0  0.6373714453165962  0.13124511335530542  0.09467219711374501  1.0000
  C   C71       1.0  0.6225692505368913  0.17809903369012398  0.04368901247669752  1.0000
  C   C72       1.0  0.6290813755246987  0.0968293215006568  0.2097478321111268  1.0000
  C   C73       1.0  0.3576472269062023  0.3961389925501919  0.3738887159512246  1.0000
  C   C74       1.0  0.36234475574431013  0.3474356639948581  0.4230873903720891  1.0000
  C   C75       1.0  0.33942930726227877  0.2783066167102389  0.40787572825352925  1.0000
  C   C76       1.0  0.3179634137757078  0.2618538165523674  0.3415730495530411  1.0000
  C   C77       1.0  0.31642452748119615  0.3136417499052158  0.29536942835581215  1.0000
  C   C78       1.0  0.33659955896051497  0.226485658810283  0.45917461412760485  1.0000
  C   C79       1.0  0.3289678752136639  0.24776929870591866  0.5223649541375153  1.0000
  C   C80       1.0  0.3261855535160123  0.1998877176767948  0.5713320366069184  1.0000
  C   C81       1.0  0.3315368650540051  0.12908779949562904  0.5587141110316622  1.0000
  C   C82       1.0  0.3384097906389202  0.10719869828739796  0.4957860432383471  1.0000
  C   C83       1.0  0.3404857370869081  0.15531358729710118  0.44664964884308483  1.0000
  C   C84       1.0  0.13691392962400786  0.0733639495510943  0.7010803609990646  1.0000
  C   C85       1.0  0.04527611967440491  0.06862361605293898  0.6914860734985951  1.0000
  C   C86       1.0  0.004371554691950103  0.0047512450338445  0.6984957238160732  1.0000
  C   C87       1.0  0.060808502074870305  0.948048044214964  0.7152374735256259  1.0000
  C   C88       1.0  0.15215023081606202  0.9569548695947747  0.7247266352207546  1.0000
  C   C89       1.0  0.907180754504573  0.9985391107312865  0.6886867424571221  1.0000
  C   C90       1.0  0.8540934288854275  0.0407478314842038  0.6430312861902436  1.0000
  C   C91       1.0  0.7622516382406134  0.03639617177454821  0.6342251886408476  1.0000
  C   C92       1.0  0.721034443201191  0.9900154208616954  0.6710989216187928  1.0000
  C   C93       1.0  0.7733881873227875  0.9476520829095139  0.7166090259248181  1.0000
  C   C94       1.0  0.8654270864394606  0.951588228539947  0.7251242296504756  1.0000
  C   C95       1.0  0.621401478542204  0.9870889065484503  0.6611566353117768  1.0000
  C   C96       1.0  0.3336734238805619  0.0784612439473378  0.6130348410012658  1.0000
  C   C97       1.0  0.44182256717696344  0.5896177699444963  0.04115834499604891  1.0000
  C   C98       1.0  0.4331756081108153  0.6359535930552126  0.9899719237534511  1.0000
  C   C99       1.0  0.42928338895269763  0.7070109325901015  0.0022387365313392173  1.0000
  C   C100      1.0  0.436848152048512  0.727477459828968  0.06753682156082162  1.0000
  C   C101      1.0  0.4446447503781388  0.6781056913133129  0.11628019119923755  1.0000
  C   C102      1.0  0.416371962152823  0.7573031725752345  0.9485686450042794  1.0000
  C   C103      1.0  0.439936338512908  0.7411718783806835  0.8880216236339465  1.0000
  C   C104      1.0  0.4253572890589938  0.7881661955115291  0.8370420511446001  1.0000
  C   C105      1.0  0.38671155020738024  0.8524454375774017  0.845220883348155  1.0000
  C   C106      1.0  0.36262543025198823  0.8687589388577167  0.905321524881181  1.0000
  C   C107      1.0  0.37743227442410915  0.8219065670148922  0.9563066988193469  1.0000
  C   C108      1.0  0.3709062263603188  0.9031644074073385  0.7902452637421149  1.0000
  C   C109      1.0  0.3576423479745189  0.10385364646845117  0.8738855819002468  1.0000
  C   C110      1.0  0.36233831723443194  0.15255805777541553  0.923084124316141  1.0000
  C   C111      1.0  0.33942383292518497  0.2216861231147932  0.9078688253841707  1.0000
  C   C112      1.0  0.3179565421451259  0.23813890185716247  0.8415669554002819  1.0000
  C   C113      1.0  0.3164159312824566  0.1863488476652719  0.7953649855976579  1.0000
  C   C114      1.0  0.336594519544363  0.2735071573416121  0.959170691246726  1.0000
  C   C115      1.0  0.32896610327866693  0.25222554588950175  0.022359959660676124  1.0000
  C   C116      1.0  0.3261802236378202  0.30010513536458916  0.0713247571960736  1.0000
  C   C117      1.0  0.3315305319848819  0.37090553662881126  0.05870679028166852  1.0000
  C   C118      1.0  0.33839686309912054  0.3927962252372624  0.9957779629720777  1.0000
  C   C119      1.0  0.34047769393860255  0.34468384589384726  0.9466440112530922  1.0000
  C   C120      1.0  0.13691335701914653  0.42662759170670483  0.2010824008520444  1.0000
  C   C121      1.0  0.04527881607992161  0.4313712912476006  0.19148563699530297  1.0000
  C   C122      1.0  0.004371966649600302  0.4952437972555686  0.1984965211987202  1.0000
  C   C123      1.0  0.06081041216101822  0.5519460989353533  0.21524178797653803  1.0000
  C   C124      1.0  0.15215218374942208  0.5430359082776731  0.22473094494137774  1.0000
  C   C125      1.0  0.9071795367757434  0.501458589594094  0.18868297266251946  1.0000
  C   C126      1.0  0.8540906863188414  0.45924917107269875  0.14302975410185337  1.0000
  C   C127      1.0  0.7622515110470048  0.4636083278203317  0.1342220589043137  1.0000
  C   C128      1.0  0.7210338722135817  0.5099864416690068  0.1710985877467408  1.0000
  C   C129      1.0  0.7733913885653438  0.5523486463397663  0.21660918814485092  1.0000
  C   C130      1.0  0.8654283293846351  0.5484075835103825  0.22512558974976574  1.0000
  C   C131      1.0  0.62140023440044  0.5129122168243684  0.16115670298366785  1.0000
  C   C132      1.0  0.33366554707066604  0.4215316410580669  0.11303074172957392  1.0000
  C   C133      1.0  0.4418182342142459  0.9103744562943631  0.5411599208112179  1.0000
  C   C134      1.0  0.4331673594867098  0.8640413160977829  0.48996963071452637  1.0000
  C   C135      1.0  0.42927029673677464  0.7929823132283998  0.5022329189488205  1.0000
  C   C136      1.0  0.43683978974928567  0.7725158488089859  0.5675305877955453  1.0000
  C   C137      1.0  0.44464147343315125  0.8218845606139311  0.6162774886521944  1.0000
  C   C138      1.0  0.4163636237743163  0.7426896689873673  0.4485647718272929  1.0000
  C   C139      1.0  0.4399292407124521  0.7588192624245239  0.38801695904159333  1.0000
  C   C140      1.0  0.4253570654331186  0.711821309735292  0.33704102446735373  1.0000
  C   C141      1.0  0.38671297182243347  0.6475421972499902  0.3452214171752531  1.0000
  C   C142      1.0  0.362622947179382  0.6312293654132192  0.405320618601735  1.0000
  C   C143      1.0  0.37742358410550036  0.6780858882868445  0.4563027124057868  1.0000
  C   C144      1.0  0.3709105174854416  0.5968247520245599  0.2902427339081441  1.0000
  N   N1        1.0  0.6663657224272798  0.8802370144227893  0.18925397654464862  1.0000
  N   N2        1.0  0.8098774505359573  0.5186887494314976  0.7820079858790835  1.0000
  N   N3        1.0  0.544644896567114  0.5300881517367912  0.7606719352812378  1.0000
  N   N4        1.0  0.5033072360851066  0.5839341279126485  0.7569993085793174  1.0000
  N   N5        1.0  0.46416262257037033  0.635484708748116  0.7502637905077378  1.0000
  N   N6        1.0  0.5541666044419532  0.11007902356410433  0.3968284635266103  1.0000
  N   N7        1.0  0.6663594452241812  0.619773814925594  0.6892511719994092  1.0000
  N   N8        1.0  0.8098779366683219  0.9813176316921925  0.2820097337105452  1.0000
  N   N9        1.0  0.5446420991228537  0.969919016607946  0.26066992993246174  1.0000
  N   N10       1.0  0.503306012195516  0.9160752273261894  0.2569959957360766  1.0000
  N   N11       1.0  0.4641596514701691  0.8645226932830712  0.25025925564592205  1.0000
  N   N12       1.0  0.5541636808510335  0.3899274942251978  0.896828270654119  1.0000
  N   N13       1.0  0.3336335331860738  0.38023488279354467  0.31075261270932947  1.0000
  N   N14       1.0  0.19011756703692845  0.0186662900469301  0.7179776044112671  1.0000
  N   N15       1.0  0.45534758038819945  0.030054065667158594  0.7393353757946102  1.0000
  N   N16       1.0  0.4966863036540731  0.0838906286206011  0.743007710028273  1.0000
  N   N17       1.0  0.5358359275227117  0.1354462596502088  0.7497381398593534  1.0000
  N   N18       1.0  0.4458359134249009  0.6100899783043802  0.10317486661741535  1.0000
  N   N19       1.0  0.3336285741795565  0.11975671448142583  0.8107490081797124  1.0000
  N   N20       1.0  0.1901167456906735  0.4813235614380035  0.21798158900030987  1.0000
  N   N21       1.0  0.45533880449547587  0.46994377346332783  0.23933074437152163  1.0000
  N   N22       1.0  0.4966757843731458  0.41610760443981587  0.24300089752697576  1.0000
  N   N23       1.0  0.5358223428929351  0.3645508296064008  0.24973090531740644  1.0000
  N   N24       1.0  0.44583366333728247  0.8899012850175014  0.6031761894377041  1.0000
  O   O1        1.0  0.42307440104499966  0.5258284998627045  0.8802193654822119  1.0000
  O   O2        1.0  0.4124801651396127  0.44338644085614487  0.803155908822447  1.0000
  O   O3        1.0  0.6867908377121384  0.6025809075100242  0.8339844005229297  1.0000
  O   O4        1.0  0.643490126163286  0.5168153974202028  0.895215101335289  1.0000
  O   O5        1.0  0.6090677224473424  0.3873237812386209  0.7639620589814414  1.0000
  O   O6        1.0  0.6644524669008406  0.4608793631484859  0.6963396661423218  1.0000
  O   O7        1.0  0.42307753634483464  0.9741750704599781  0.3802166360217569  1.0000
  O   O8        1.0  0.4124800182013858  0.05661935666347521  0.3031537629509273  1.0000
  O   O9        1.0  0.6867857382795183  0.8974269528491374  0.33398204094969947  1.0000
  O   O10       1.0  0.6434925841080883  0.9831916444271371  0.39521612911426734  1.0000
  O   O11       1.0  0.6090719409251266  0.1126829087779555  0.26396001648647893  1.0000
  O   O12       1.0  0.664459009229539  0.0391286159581057  0.19633542677372876  1.0000
  O   O13       1.0  0.5769274524776692  0.025814012943037295  0.6197995847098099  1.0000
  O   O14       1.0  0.5875289143637943  0.9433650812374597  0.6968586210685785  1.0000
  O   O15       1.0  0.3132197734424765  0.10256677603430829  0.6660155807108836  1.0000
  O   O16       1.0  0.3565122577784124  0.016804149120424897  0.6047804557674398  1.0000
  O   O17       1.0  0.3909169862872872  0.887310820128107  0.7360332372327889  1.0000
  O   O18       1.0  0.3355299072363637  0.9608635644491983  0.8036563901754903  1.0000
  O   O19       1.0  0.576927342500376  0.4741786493590611  0.11980556013011075  1.0000
  O   O20       1.0  0.587527456339956  0.5566361933277831  0.19685823303401415  1.0000
  O   O21       1.0  0.31321400414705647  0.3974262416883008  0.16601218436178306  1.0000
  O   O22       1.0  0.3565100448092268  0.4831876224545511  0.10477662070835692  1.0000
  O   O23       1.0  0.3909192274993814  0.6126802709901397  0.23603239471116672  1.0000
  O   O24       1.0  0.3355344866292925  0.5391246890805805  0.30365526647349844  1.0000
