data_image0
_chemical_formula_structural       Zn2H40C58N4O16
_chemical_formula_sum              "Zn2 H40 C58 N4 O16"
_cell_length_a       9.59588270373304
_cell_length_b       11.578187011850593
_cell_length_c       13.190176268164166
_cell_angle_alpha    112.50087543315499
_cell_angle_beta     96.80988537545122
_cell_angle_gamma    97.1158179846539

_space_group_name_H-M_alt    "P 1"
_space_group_IT_number       1

loop_
  _space_group_symop_operation_xyz
  'x, y, z'

loop_
  _atom_site_type_symbol
  _atom_site_label
  _atom_site_symmetry_multiplicity
  _atom_site_fract_x
  _atom_site_fract_y
  _atom_site_fract_z
  _atom_site_occupancy
  Zn  Zn1       1.0  0.9558244477420386  0.8976515566418897  0.746480036374294  1.0000
  Zn  Zn2       1.0  0.04417607770652408  0.10234685691558812  0.2535205267555298  1.0000
  H   H1        1.0  0.7019469092096741  0.7082028459628589  0.40912480388707456  1.0000
  H   H2        1.0  0.2980529455633771  0.2917974579519083  0.5908748152036054  1.0000
  H   H3        1.0  0.2583292451269301  0.5328626649595806  0.2791532161589886  1.0000
  H   H4        1.0  0.7416714667471425  0.4671366912902499  0.720846160094581  1.0000
  H   H5        1.0  0.42818337289953223  0.6576161016730637  0.6289397436426541  1.0000
  H   H6        1.0  0.5718175321082483  0.34238420575130146  0.3710599654234059  1.0000
  H   H7        1.0  0.6254025134428501  0.6122614347442052  0.21524408305264592  1.0000
  H   H8        1.0  0.37459819843121517  0.38773792150563224  0.7847552932009236  1.0000
  H   H9        1.0  0.4661283724243718  0.49935376909014906  0.1575534624984343  1.0000
  H   H10       1.0  0.5338723394496937  0.5006455871596885  0.8424459137551424  1.0000
  H   H11       1.0  0.5854118130274059  0.6438601329378741  0.0385241641853469  1.0000
  H   H12       1.0  0.4145887057129442  0.3561382721374288  0.9614748792557322  1.0000
  H   H13       1.0  0.29798288526485095  0.8959768116058415  0.02224699697492143  1.0000
  H   H14       1.0  0.7020164919664039  0.10402633384074988  0.9777520108891053  1.0000
  H   H15       1.0  0.29616323840477315  0.7445506432279317  0.27209909859877274  1.0000
  H   H16       1.0  0.7038368162101987  0.25545062034353805  0.7279023729931425  1.0000
  H   H17       1.0  0.2733857636365613  0.9481154192236974  0.8247373660000508  1.0000
  H   H18       1.0  0.7266149549457167  0.05188394550830821  0.17526352994227065  1.0000
  H   H19       1.0  0.48897516690840337  0.9774114883302119  0.7467220394718128  1.0000
  H   H20       1.0  0.5110246912187506  0.0225888198256428  0.2532783394632432  1.0000
  H   H21       1.0  0.21097243419747255  0.9469186201096845  0.4485643910557826  1.0000
  H   H22       1.0  0.789027427283784  0.0530816922872503  0.5514367477236419  1.0000
  H   H23       1.0  0.006541197247173634  0.9164353026813858  0.5396900019661006  1.0000
  H   H24       1.0  0.9934586608799802  0.08356500547446903  0.4603103769689554  1.0000
  H   H25       1.0  0.5991367154240377  0.9899908431279485  0.596116729955753  1.0000
  H   H26       1.0  0.4008633391909341  0.0100104204435212  0.4038847416361619  1.0000
  H   H27       1.0  0.871432584130318  0.8643495838808305  0.9414808742252562  1.0000
  H   H28       1.0  0.12856813445196016  0.1356497808511747  0.0585200217170652  1.0000
  H   H29       1.0  0.8814561205202903  0.7070624279928808  0.025793716116140827  1.0000
  H   H30       1.0  0.11854545180889886  0.29293598483310745  0.9742061771446942  1.0000
  H   H31       1.0  0.17599338124686167  0.5464638494177835  0.8090420514049087  1.0000
  H   H32       1.0  0.8240060839046491  0.4535345479068411  0.19095614221642176  1.0000
  H   H33       1.0  0.15658318422553924  0.7132934338882536  0.7364219728256458  1.0000
  H   H34       1.0  0.8434164774137967  0.2867059188519789  0.2635773134525436  1.0000
  H   H35       1.0  0.11035426827032778  0.4463846613665013  0.9272554306598052  1.0000
  H   H36       1.0  0.8896472973506562  0.5536137429773123  0.07274294291228513  1.0000
  H   H37       1.0  0.07716115963971498  0.5106943689656731  0.5757076790587803  1.0000
  H   H38       1.0  0.922839752076271  0.4893059469408599  0.42429354969602434  1.0000
  H   H39       1.0  0.6212769524799242  0.7245527760846855  0.8141571151048695  1.0000
  H   H40       1.0  0.3787239525278636  0.2754475313396796  0.18584259396119057  1.0000
  C   C1        1.0  0.576901398987708  0.6885236719698823  0.5279970410320941  1.0000
  C   C2        1.0  0.4230995060200796  0.3114766354544828  0.47200266803396573  1.0000
  C   C3        1.0  0.5958326429635789  0.6752892558421735  0.42062739085310613  1.0000
  C   C4        1.0  0.4041680689104936  0.324710100407664  0.5793719854004635  1.0000
  C   C5        1.0  0.48322060583404886  0.618980096892244  0.32934970784288004  1.0000
  C   C6        1.0  0.5167786728919594  0.38101735774001366  0.6706496726547045  1.0000
  C   C7        1.0  0.34861800544960175  0.5785700862315153  0.34814390442185333  1.0000
  C   C8        1.0  0.6513837600133029  0.4214292777690006  0.6518563216514722  1.0000
  C   C9        1.0  0.327820146881713  0.5935157426955868  0.45573176118697495  1.0000
  C   C10       1.0  0.6721805649923523  0.4064836135542507  0.5442676150666017  1.0000
  C   C11       1.0  0.44263403475932256  0.6470360972792336  0.5454686329541334  1.0000
  C   C12       1.0  0.5573658233678316  0.35296421087662117  0.45453174598092266  1.0000
  C   C13       1.0  0.509429270516911  0.5994198942778155  0.21374390350224812  1.0000
  C   C14       1.0  0.4905724949459937  0.40057946972270037  0.7862563225710772  1.0000
  C   C15       1.0  0.4483986680588998  0.6836165621624063  0.16219663138254975  1.0000
  C   C16       1.0  0.5516008038008237  0.3163818436443862  0.8378030819275182  1.0000
  C   C17       1.0  0.5005214385759444  0.6942063357899642  0.07040668621080219  1.0000
  C   C18       1.0  0.4994759261061005  0.3057920545154715  0.9295913274597537  1.0000
  C   C19       1.0  0.4457037235331143  0.7690903148095246  0.01897535135854878  1.0000
  C   C20       1.0  0.5542946947377698  0.23090808324658954  0.9810235121317633  1.0000
  C   C21       1.0  0.33861872831361933  0.8357174152673889  0.06040804159072618  1.0000
  C   C22       1.0  0.6613790293440686  0.1642828858692695  0.9395921573935625  1.0000
  C   C23       1.0  0.28505804315699385  0.8253815316378594  0.15082501330950768  1.0000
  C   C24       1.0  0.7149428618507868  0.1746187757865059  0.8491746957565595  1.0000
  C   C25       1.0  0.3397292737186248  0.7492902519518694  0.20088471734339927  1.0000
  C   C26       1.0  0.6602697239534051  0.2507109996278345  0.7991151445843911  1.0000
  C   C27       1.0  0.700040228292245  0.7462219146518265  0.6239272781034944  1.0000
  C   C28       1.0  0.2999598162604186  0.2537793361963878  0.37607191395530043  1.0000
  C   C29       1.0  0.18368345387684565  0.5513468660300092  0.47315348882981567  1.0000
  C   C30       1.0  0.8163172613513296  0.4486524944609158  0.5268466472681297  1.0000
  C   C31       1.0  0.4941595420205757  0.7802783214672504  0.9191821566514521  1.0000
  C   C32       1.0  0.5058397299972269  0.21971912468284677  0.0808157041573807  1.0000
  C   C33       1.0  0.17364480730015686  0.8996787270282312  0.19861888354805773  1.0000
  C   C34       1.0  0.8263526726576628  0.1003253752969542  0.8013825567108057  1.0000
  C   C35       1.0  0.26393118379274944  0.9510414061721165  0.7427098272590771  1.0000
  C   C36       1.0  0.736069727923244  0.0489589097344165  0.2572914014957277  1.0000
  C   C37       1.0  0.3848743678547705  0.9676642466818708  0.6982917698628556  1.0000
  C   C38       1.0  0.6151269301286532  0.0323379715737317  0.3017101245169371  1.0000
  C   C39       1.0  0.3710788047226714  0.9701433105704141  0.5919099564507706  1.0000
  C   C40       1.0  0.6289221069933149  0.029857005336118906  0.40809127230404135  1.0000
  C   C41       1.0  0.23157272290988115  0.9516112607977406  0.53338092958942  1.0000
  C   C42       1.0  0.7684283785857244  0.0483900020422467  0.46661987213350636  1.0000
  C   C43       1.0  0.11608069831654436  0.9334811607391132  0.5827212779796015  1.0000
  C   C44       1.0  0.8839191631647125  0.0665191516578219  0.41727986079982315  1.0000
  C   C45       1.0  0.4989739168368957  0.9901317500933615  0.5472101927059329  1.0000
  C   C46       1.0  0.5010263309117987  0.009870464652642902  0.4527916116984727  1.0000
  C   C47       1.0  0.9377996308272853  0.792261902651184  0.9154659741534061  1.0000
  C   C48       1.0  0.062200891267167414  0.20773650666520646  0.08453382913204883  1.0000
  C   C49       1.0  0.943264774290135  0.7029980272075278  0.9608697382131339  1.0000
  C   C50       1.0  0.05673574780431779  0.2970003821088625  0.039130065072313945  1.0000
  C   C51       1.0  0.02808733289802491  0.6097290204409945  0.9226745489146283  1.0000
  C   C52       1.0  0.9719121356075958  0.39026938112471743  0.07732440455106371  1.0000
  C   C53       1.0  0.10757385085990019  0.6154955622107465  0.8413965337269858  1.0000
  C   C54       1.0  0.892426664526347  0.38450283862346896  0.1586017498697245  1.0000
  C   C55       1.0  0.0969139619027715  0.7081313306367251  0.8001932360091288  1.0000
  C   C56       1.0  0.903084649501828  0.2918680185939166  0.1998059602936735  1.0000
  C   C57       1.0  0.03716885496322669  0.5098235793795354  0.9627774227468677  1.0000
  C   C58       1.0  0.9628314706434083  0.49017387452123984  0.03722128788172803  1.0000
  N   N1        1.0  0.13127472117067635  0.9340260830609777  0.6862161360818462  1.0000
  N   N2        1.0  0.8687253300901928  0.0659751762694114  0.31378457566570006  1.0000
  N   N3        1.0  0.011793252598671712  0.7941547576699223  0.8350468386387604  1.0000
  N   N4        1.0  0.9882076557632187  0.20584555399553048  0.1649536302716754  1.0000
  O   O1        1.0  0.8151152915227511  0.7992159012339569  0.6052101820004481  1.0000
  O   O2        1.0  0.18488666371976586  0.20078440970000597  0.39478961704099896  1.0000
  O   O3        1.0  0.6891593556551996  0.7421587333315786  0.716653687557603  1.0000
  O   O4        1.0  0.3108398385046555  0.2578434736637405  0.2833472670270467  1.0000
  O   O5        1.0  0.1808015800321172  0.5396721807505714  0.5691738520773697  1.0000
  O   O6        1.0  0.8191987455745179  0.4603252731501969  0.43082485855121905  1.0000
  O   O7        1.0  0.07393078009870639  0.5292177038654202  0.4026668328888121  1.0000
  O   O8        1.0  0.9260701249090743  0.47078260355894497  0.5973328761772478  1.0000
  O   O9        1.0  0.5964399329781995  0.7136998303901478  0.8833275175136492  1.0000
  O   O10       1.0  0.40355887491421777  0.2863004742561088  0.11667277144601236  1.0000
  O   O11       1.0  0.44258388679136107  0.8432915124021536  0.8725922947894135  1.0000
  O   O12       1.0  0.5574149076846381  0.15670877527976765  0.12740495479277314  1.0000
  O   O13       1.0  0.12629304994974425  0.8903377189969247  0.2801511962446028  1.0000
  O   O14       1.0  0.873705561454855  0.1096616302337168  0.7198480000581994  1.0000
  O   O15       1.0  0.13551509924827343  0.9741919701287501  0.15176342455531266  1.0000
  O   O16       1.0  0.8644826584094146  0.0258083310079087  0.8482367744289762  1.0000
