data_image0
_chemical_formula_structural       K4H20C28S4O4
_chemical_formula_sum              "K4 H20 C28 S4 O4"
_cell_length_a       4.03000089858171
_cell_length_b       11.773800855598829
_cell_length_c       15.67409870043275
_cell_angle_alpha    97.55822799411432
_cell_angle_beta     97.39453789982815
_cell_angle_gamma    90.0337867628148

_space_group_name_H-M_alt    "P 1"
_space_group_IT_number       1

loop_
  _space_group_symop_operation_xyz
  'x, y, z'

loop_
  _atom_site_type_symbol
  _atom_site_label
  _atom_site_symmetry_multiplicity
  _atom_site_fract_x
  _atom_site_fract_y
  _atom_site_fract_z
  _atom_site_occupancy
  K   K1        1.0  0.17881591581024736  0.6323489858029774  0.07827270087398121  1.0000
  K   K2        1.0  0.9000751388120418  0.1323860437349254  0.07829460777610109  1.0000
  K   K3        1.0  0.8211922627773942  0.36765362554299225  0.9217247812851497  1.0000
  K   K4        1.0  0.09990517973930219  0.8676105675387686  0.9217038929177477  1.0000
  H   H1        1.0  0.6947145195768767  0.7399970864895095  0.23056923272350358  1.0000
  H   H2        1.0  0.5370064079965076  0.23981894091081557  0.23077923993841412  1.0000
  H   H3        1.0  0.30529613825876095  0.2600055268310014  0.7694302476049373  1.0000
  H   H4        1.0  0.4629716699300345  0.7601828115584078  0.7692196901876897  1.0000
  H   H5        1.0  0.6026783279248348  0.6792116427447041  0.3708037541428766  1.0000
  H   H6        1.0  0.7699233501839727  0.17911332015821554  0.3710086802259838  1.0000
  H   H7        1.0  0.39734227982826537  0.320790116115468  0.6291972552331728  1.0000
  H   H8        1.0  0.23005463289707953  0.8208867190080368  0.6289907162847328  1.0000
  H   H9        1.0  0.3316182368019653  0.8117982182744041  0.4786050237058815  1.0000
  H   H10       1.0  0.1484253818056729  0.31192150533238555  0.4788369635339791  1.0000
  H   H11       1.0  0.6684072522226998  0.18820096996042676  0.5213952603488821  1.0000
  H   H12       1.0  0.8515651352551925  0.6880785339231251  0.5211609435570779  1.0000
  H   H13       1.0  0.15188899722381413  0.004383251100847499  0.44305892994447754  1.0000
  H   H14       1.0  0.29145894868556604  0.5047467209185825  0.44343558881946166  1.0000
  H   H15       1.0  0.8481315722682152  0.9956185104769442  0.5569452683944078  1.0000
  H   H16       1.0  0.7085464072165379  0.4952498927077256  0.5565624842053437  1.0000
  H   H17       1.0  0.23638606002887025  0.06284445238062368  0.3002115828163169  1.0000
  H   H18       1.0  0.06386019654209459  0.5630797368582562  0.3005219837426694  1.0000
  H   H19       1.0  0.7636295639549642  0.9371581643454333  0.6997912560581909  1.0000
  H   H20       1.0  0.9361402627840221  0.43691944848043807  0.6994780901885632  1.0000
  C   C1        1.0  0.468423960872073  0.905155292880941  0.2558058258511621  1.0000
  C   C2        1.0  0.7880352745398439  0.4051832223790158  0.2560547959401305  1.0000
  C   C3        1.0  0.5315692916810519  0.09484903024773672  0.7441913189662585  1.0000
  C   C4        1.0  0.211960354763562  0.5948193899647477  0.7439454512237871  1.0000
  C   C5        1.0  0.5713816912082449  0.7973082138177573  0.27656844411865217  1.0000
  C   C6        1.0  0.7064709317090491  0.2972132378877602  0.2767524875684089  1.0000
  C   C7        1.0  0.4286163890509371  0.20269354249023752  0.7234324399254675  1.0000
  C   C8        1.0  0.29351206343348213  0.7027868014228958  0.7232464407329573  1.0000
  C   C9        1.0  0.5209357691190135  0.7637102843448744  0.3560761587671877  1.0000
  C   C10       1.0  0.8366221748042476  0.26368291437572106  0.3562837198187765  1.0000
  C   C11       1.0  0.4790722044732191  0.23628890148219733  0.643923531746303  1.0000
  C   C12       1.0  0.1633609205193521  0.7363196978787838  0.6437180167647938  1.0000
  C   C13       1.0  0.37078596522552226  0.8379739581010525  0.41636584545125993  1.0000
  C   C14       1.0  0.046937072838801386  0.3380836976525926  0.416604842314193  1.0000
  C   C15       1.0  0.6292245029191291  0.16202522861350127  0.5836345676464063  1.0000
  C   C16       1.0  0.9530508831163542  0.661915485422753  0.5833941698664161  1.0000
  C   C17       1.0  0.2700890397751294  0.9461313654482095  0.3964956862123543  1.0000
  C   C18       1.0  0.12711897431217517  0.4463430497863001  0.39679855057701735  1.0000
  C   C19       1.0  0.7299189468048792  0.0538686794762029  0.6035066411753931  1.0000
  C   C20       1.0  0.8728815286105769  0.5536569924756449  0.6032016090581891  1.0000
  C   C21       1.0  0.3174216971593253  0.9792764162775566  0.3168399156026496  1.0000
  C   C22       1.0  0.999974727109432  0.4794405976388986  0.31712822292350035  1.0000
  C   C23       1.0  0.6825812926636344  0.020723627415399896  0.6831616044093067  1.0000
  C   C24       1.0  2.0830305125191727e-05  0.5205602997713114  0.6828705772473285  1.0000
  C   C25       1.0  0.5135784648775754  0.9461815955099409  0.1713934865860764  1.0000
  C   C26       1.0  0.6581538209430348  0.44622737619392433  0.1716491972813046  1.0000
  C   C27       1.0  0.4864194256906201  0.053816734192103886  0.8286083302272684  1.0000
  C   C28       1.0  0.34183902393590415  0.5537692357125508  0.8283484517854589  1.0000
  S   S1        1.0  0.6729489911666632  0.8558793398953598  0.09068060871064182  1.0000
  S   S2        1.0  0.41814619465397834  0.3558860070918398  0.09088004031399777  1.0000
  S   S3        1.0  0.3270513939539511  0.14411899069418146  0.909321930686886  1.0000
  S   S4        1.0  0.5818591742359086  0.6441114656318091  0.9091206695850644  1.0000
  O   O1        1.0  0.4308979466754507  0.047217734712006576  0.1615290917184851  1.0000
  O   O2        1.0  0.7308334052444321  0.5473329596274965  0.1618713254260271  1.0000
  O   O3        1.0  0.5691075017555035  0.9527814524016661  0.8384724273810988  1.0000
  O   O4        1.0  0.2691621445179067  0.4526679383262433  0.8381281125373689  1.0000
