data_image0
_chemical_formula_structural       K8H36C24N4O28
_chemical_formula_sum              "K8 H36 C24 N4 O28"
_cell_length_a       4.878520827058039
_cell_length_b       13.247158396102776
_cell_length_c       18.010169553218315
_cell_angle_alpha    89.99967504446815
_cell_angle_beta     89.999540826695
_cell_angle_gamma    89.99968246841301

_space_group_name_H-M_alt    "P 1"
_space_group_IT_number       1

loop_
  _space_group_symop_operation_xyz
  'x, y, z'

loop_
  _atom_site_type_symbol
  _atom_site_label
  _atom_site_symmetry_multiplicity
  _atom_site_fract_x
  _atom_site_fract_y
  _atom_site_fract_z
  _atom_site_occupancy
  K   K1        1.0  0.4546227440752801  0.18570445824560985  0.9230342970374605  1.0000
  K   K2        1.0  0.045360006681662006  0.8142891719189437  0.4230325925736053  1.0000
  K   K3        1.0  0.954648579549584  0.3142940492635731  0.0769637191533974  1.0000
  K   K4        1.0  0.5453832003586427  0.6857095426054515  0.57696868018283  1.0000
  K   K5        1.0  0.0096649259825412  0.6611935785315383  0.0739990329555482  1.0000
  K   K6        1.0  0.49030971694056547  0.3388118185514841  0.5739955834721258  1.0000
  K   K7        1.0  0.5096734408220059  0.8388082288514271  0.9260039829188353  1.0000
  K   K8        1.0  0.9903316000709592  0.1612054876071554  0.4260045762861821  1.0000
  H   H1        1.0  0.27293341977543417  0.9958541396847808  0.17040636344476917  1.0000
  H   H2        1.0  0.2270711637996357  0.0041505092801515  0.6704054271479832  1.0000
  H   H3        1.0  0.7729292955386313  0.5041486365981811  0.8295944159795638  1.0000
  H   H4        1.0  0.7270663028445412  0.4958545047851217  0.32959419285233327  1.0000
  H   H5        1.0  0.8149346769621459  0.8996171438982258  0.15778255177298914  1.0000
  H   H6        1.0  0.685074210713765  0.10038355626177524  0.6577818628526231  1.0000
  H   H7        1.0  0.3149268598968291  0.60037950707369  0.8422164708885231  1.0000
  H   H8        1.0  0.1850685340621325  0.39961776968498713  0.34221951392641603  1.0000
  H   H9        1.0  0.6605647776571502  0.9614602938075478  0.0818643717220837  1.0000
  H   H10       1.0  0.8394340603494329  0.03854099545621641  0.5818630492662109  1.0000
  H   H11       1.0  0.160559735493699  0.5385396938210149  0.9181360960696096  1.0000
  H   H12       1.0  0.33943340929394594  0.4614600133598685  0.41813743763157146  1.0000
  H   H13       1.0  0.7866882974854973  0.10147092615127921  0.15299694133669559  1.0000
  H   H14       1.0  0.7133268814085625  0.8985305660262313  0.6529934379282236  1.0000
  H   H15       1.0  0.28667178203273375  0.3985256617573611  0.8470075466272603  1.0000
  H   H16       1.0  0.2133111713005604  0.6014700681090802  0.347003028798447  1.0000
  H   H17       1.0  0.5353362309394144  0.14931063391849617  0.21591989815836848  1.0000
  H   H18       1.0  0.9646668347640103  0.8506903700059995  0.7159193796182847  1.0000
  H   H19       1.0  0.03533254383344799  0.35068798014936675  0.78408013751347  1.0000
  H   H20       1.0  0.46466047288532053  0.6493120123730378  0.2840798736693273  1.0000
  H   H21       1.0  0.7059502772638596  0.9951715954003859  0.2848073726112688  1.0000
  H   H22       1.0  0.7940609965736413  0.004828873971234801  0.784809064484051  1.0000
  H   H23       1.0  0.20594355218413796  0.5048305636276922  0.7151918863034297  1.0000
  H   H24       1.0  0.294045355940618  0.49517071830717196  0.21519485224770554  1.0000
  H   H25       1.0  0.5018443642283544  0.885836716070763  0.27006226244390047  1.0000
  H   H26       1.0  0.9981591472612408  0.1141646226109216  0.770061948144729  1.0000
  H   H27       1.0  0.0018335180860376001  0.6141635976522296  0.7299379941993676  1.0000
  H   H28       1.0  0.4981549532077878  0.3858353052275448  0.2299398603867644  1.0000
  H   H29       1.0  0.44795734008387467  0.20867011631067814  0.735872776030092  1.0000
  H   H30       1.0  0.05203710480323309  0.7913287405144943  0.23587392849973546  1.0000
  H   H31       1.0  0.947967725057545  0.29132765002938044  0.26412525462888675  1.0000
  H   H32       1.0  0.5520400619080803  0.7086699603106368  0.7641278850453259  1.0000
  H   H33       1.0  0.5832902589997033  0.30694604315466734  0.7628977125891083  1.0000
  H   H34       1.0  0.9167052655782015  0.6930500669769019  0.2628973713974928  1.0000
  H   H35       1.0  0.08329283420577842  0.19304945286901193  0.23710277436538962  1.0000
  H   H36       1.0  0.41671182328740036  0.8069471297701939  0.737102541103951  1.0000
  C   C1        1.0  0.6172970804875959  0.9224019472241027  0.1342549002990197  1.0000
  C   C2        1.0  0.8827063548285282  0.07759893551111219  0.6342527668925086  1.0000
  C   C3        1.0  0.11729300657994202  0.5775951097801554  0.8657456612971401  1.0000
  C   C4        1.0  0.38270578992894144  0.4224019844032513  0.3657476261959473  1.0000
  C   C5        1.0  0.5684190596482068  0.1013457853221382  0.16721192498634704  1.0000
  C   C6        1.0  0.9315977478733899  0.8986548416597062  0.6672118345692721  1.0000
  C   C7        1.0  0.06840501330055558  0.39865276078653983  0.832788594218911  1.0000
  C   C8        1.0  0.4315783611899279  0.6013460989100993  0.3327886009091826  1.0000
  C   C9        1.0  0.505463768406713  0.9683351783666725  0.2652620216740259  1.0000
  C   C10       1.0  0.9945439849162695  0.03166619756347439  0.7652603914648137  1.0000
  C   C11       1.0  0.0054581128986300005  0.5316643730318519  0.7347393376024483  1.0000
  C   C12       1.0  0.4945363655808279  0.4683352474721192  0.23473920393707456  1.0000
  C   C13       1.0  0.4385163484559271  0.8301582569220685  0.11887064387907736  1.0000
  C   C14       1.0  0.06150001093314468  0.16983999800760335  0.6188716006703388  1.0000
  C   C15       1.0  0.9385041209786139  0.6698381401660072  0.8811264451511531  1.0000
  C   C16       1.0  0.5614920005261581  0.330160072067592  0.3811289335249269  1.0000
  C   C17       1.0  0.39061787623109007  0.1403183489082309  0.10293834997492719  1.0000
  C   C18       1.0  0.1094030547343223  0.85967927475528  0.6029418958089037  1.0000
  C   C19       1.0  0.8905982392948033  0.3596765157579967  0.8970575840606116  1.0000
  C   C20       1.0  0.6093851114331912  0.6403193082303961  0.3970609038799181  1.0000
  C   C21       1.0  0.27437967350434883  0.014029441802350105  0.31186236772176557  1.0000
  C   C22       1.0  0.22562481901188391  0.9859710900257428  0.8118579199376724  1.0000
  C   C23       1.0  0.7743827863186895  0.48596868113588687  0.6881410364177183  1.0000
  C   C24       1.0  0.7256170028163992  0.5140287639590042  0.18813796487966525  1.0000
  N   N1        1.0  0.4802767878310235  0.9959587981200856  0.1850300985273847  1.0000
  N   N2        1.0  0.0197273625320022  0.004043472737620799  0.6850285016829643  1.0000
  N   N3        1.0  0.9802730984086594  0.5040412875407867  0.8149713418889204  1.0000
  N   N4        1.0  0.519724983019472  0.4959589477933691  0.3149710125759668  1.0000
  O   O1        1.0  0.2101618497828497  0.8238105857096587  0.15220873617828798  1.0000
  O   O2        1.0  0.28983917340615756  0.1761859008065016  0.6522052849377927  1.0000
  O   O3        1.0  0.7101546146755241  0.6761840158798192  0.8477899583805594  1.0000
  O   O4        1.0  0.789836345041593  0.32380992575306083  0.3477947542473103  1.0000
  O   O5        1.0  0.5308836246813654  0.7678166732612156  0.07171675820308818  1.0000
  O   O6        1.0  0.9691298626134853  0.2321839398602137  0.5717126861789905  1.0000
  O   O7        1.0  0.030865138189540196  0.7321805613003107  0.9282817697754522  1.0000
  O   O8        1.0  0.4691113075939767  0.2678160476457236  0.4282858538489833  1.0000
  O   O9        1.0  0.4696601135784562  0.22183473438185086  0.07286119915676888  1.0000
  O   O10       1.0  0.030374007248291004  0.7781684068141961  0.5728624780131354  1.0000
  O   O11       1.0  0.9696223558794371  0.2781652520587344  0.9271362292587848  1.0000
  O   O12       1.0  0.5303375559164677  0.7218356227161707  0.4271377168011554  1.0000
  O   O13       1.0  0.17950737978695494  0.08941035334348872  0.08647132130346337  1.0000
  O   O14       1.0  0.3205242879878157  0.9105949468770547  0.5864741984218182  1.0000
  O   O15       1.0  0.679476244908642  0.4105932487223144  0.913525070389987  1.0000
  O   O16       1.0  0.8204984187065351  0.5894122609274675  0.4135264778453162  1.0000
  O   O17       1.0  0.09703705878970231  0.06902116713003892  0.27912427556147174  1.0000
  O   O18       1.0  0.4029684035718049  0.9309803735986582  0.7791224474773484  1.0000
  O   O19       1.0  0.597037974014235  0.4309780750494739  0.7208756263436981  1.0000
  O   O20       1.0  0.9029567456882717  0.5690206257942593  0.22087471860662325  1.0000
  O   O21       1.0  0.2770893865794832  0.9923212433522723  0.3801650800201982  1.0000
  O   O22       1.0  0.22291308236485466  0.0076780035848998006  0.8801646933438078  1.0000
  O   O23       1.0  0.7770934736403063  0.5076769951128596  0.6198351351531171  1.0000
  O   O24       1.0  0.7229062892680959  0.49232022511515794  0.11983493568691014  1.0000
  O   O25       1.0  0.5598941485881499  0.23544916978572428  0.7769982531102142  1.0000
  O   O26       1.0  0.9400989084380668  0.7645468309315576  0.2769986753153049  1.0000
  O   O27       1.0  0.059912471159457  0.26454561940951044  0.22300228454877666  1.0000
  O   O28       1.0  0.4401049028745874  0.7354503177481176  0.7230028521976661  1.0000
