data_image0
_chemical_formula_structural       Cd4H48C24N12Cl12
_chemical_formula_sum              "Cd4 H48 C24 N12 Cl12"
_cell_length_a       7.77244329597007
_cell_length_b       8.604846552013079
_cell_length_c       16.651922061839446
_cell_angle_alpha    90.0001827678169
_cell_angle_beta     97.86433492723785
_cell_angle_gamma    90.00005475679973

_space_group_name_H-M_alt    "P 1"
_space_group_IT_number       1

loop_
  _space_group_symop_operation_xyz
  'x, y, z'

loop_
  _atom_site_type_symbol
  _atom_site_label
  _atom_site_symmetry_multiplicity
  _atom_site_fract_x
  _atom_site_fract_y
  _atom_site_fract_z
  _atom_site_occupancy
  Cd  Cd1       1.0  0.21202018664490646  0.506368004159043  0.3083752036658113  1.0000
  Cd  Cd2       1.0  0.7879798833703687  0.5063655674191667  0.1916243857914282  1.0000
  Cd  Cd3       1.0  0.7879796577427384  0.49363358889579  0.6916245307511488  1.0000
  Cd  Cd4       1.0  0.21202121022238168  0.4936313770896137  0.8083742161441665  1.0000
  H   H1        1.0  0.8280572053564796  0.44965286260920584  0.4073548941394237  1.0000
  H   H2        1.0  0.171937507030556  0.4496492846920433  0.09264250403809633  1.0000
  H   H3        1.0  0.17193866924659318  0.550351054709225  0.5926428197177815  1.0000
  H   H4        1.0  0.8280648851426234  0.5503511462248413  0.9073561694218457  1.0000
  H   H5        1.0  0.6957529373853574  0.42928659190767604  0.47723099152207044  1.0000
  H   H6        1.0  0.30424696194054224  0.42928037228020355  0.0227672591167121  1.0000
  H   H7        1.0  0.3042442604807647  0.5707184875491793  0.5227673958567465  1.0000
  H   H8        1.0  0.695756778178307  0.5707188965054187  0.9772326898621062  1.0000
  H   H9        1.0  0.6460087067565254  0.34927904831081963  0.3849219765206584  1.0000
  H   H10       1.0  0.3539872202837698  0.349274603417456  0.11507712361999012  1.0000
  H   H11       1.0  0.35398849110685393  0.6507225447387198  0.6150764108551101  1.0000
  H   H12       1.0  0.6460139226806376  0.6507258275023844  0.8849226823172531  1.0000
  H   H13       1.0  0.09619594928630447  0.8874450846940792  0.31708798508661573  1.0000
  H   H14       1.0  0.9037983510354264  0.8874426938690763  0.18291492327023215  1.0000
  H   H15       1.0  0.9038040925751715  0.11255418410414822  0.6829165653227138  1.0000
  H   H16       1.0  0.09619769635153122  0.11255192637625563  0.8170870045739422  1.0000
  H   H17       1.0  0.33226025589640784  0.13182458490309307  0.3424525551020424  1.0000
  H   H18       1.0  0.6677393233653602  0.13181951006415457  0.15754878726801286  1.0000
  H   H19       1.0  0.6677409611204651  0.8681746838865722  0.6575490568320816  1.0000
  H   H20       1.0  0.33226184427802247  0.8681739480429159  0.8424516206624305  1.0000
  H   H21       1.0  0.6055230409255898  0.7051005087986154  0.3554504413236543  1.0000
  H   H22       1.0  0.3944748187698437  0.7050974428097376  0.14455115867448853  1.0000
  H   H23       1.0  0.39447817609035946  0.29489759785528247  0.6445511706094608  1.0000
  H   H24       1.0  0.6055250256141419  0.29489950170200535  0.8554485757384145  1.0000
  H   H25       1.0  0.6685512438551342  0.12345729528824738  0.3240590065071346  1.0000
  H   H26       1.0  0.33145209455263813  0.12345785521836919  0.17593952580072883  1.0000
  H   H27       1.0  0.33144857584623116  0.8765419734931756  0.6759401259084967  1.0000
  H   H28       1.0  0.6685516208817573  0.8765414135653845  0.8240598211788  1.0000
  H   H29       1.0  0.7815819491598359  0.9499277203708797  0.3530174581761757  1.0000
  H   H30       1.0  0.2184162218172148  0.9499303285445179  0.14698276403550642  1.0000
  H   H31       1.0  0.21841921848719886  0.05007038627928041  0.6469829497583393  1.0000
  H   H32       1.0  0.781582323992751  0.05007126450953341  0.8530168988601619  1.0000
  H   H33       1.0  0.596182777675068  0.12116135749698737  0.47752489994751823  1.0000
  H   H34       1.0  0.40381661201193697  0.12115522174943291  0.02247220977636741  1.0000
  H   H35       1.0  0.4038143708230563  0.8788448840919046  0.5224722834337145  1.0000
  H   H36       1.0  0.5961871034224585  0.8788440470343204  0.9775271372031543  1.0000
  H   H37       1.0  0.7738008007219861  0.9924181638384226  0.49515618742405826  1.0000
  H   H38       1.0  0.22620005896206405  0.9924106042656579  0.0048448541370547035  1.0000
  H   H39       1.0  0.22619652056641829  0.0075869156277761024  0.5048452099512561  1.0000
  H   H40       1.0  0.7738023578937359  0.007587502381539903  0.995154421320159  1.0000
  H   H41       1.0  0.899907633559124  0.24663045735587735  0.5237127276775269  1.0000
  H   H42       1.0  0.10009159643821872  0.2466233749853828  0.9762867196786336  1.0000
  H   H43       1.0  0.10009093693804519  0.7533746221073657  0.47628753722048606  1.0000
  H   H44       1.0  0.8999108451038679  0.7533770559352322  0.023713157779909025  1.0000
  H   H45       1.0  0.9465924312260298  0.20749524830506527  0.4242460528329063  1.0000
  H   H46       1.0  0.05340579576316879  0.2074891398347632  0.07575113636897873  1.0000
  H   H47       1.0  0.0534073884799042  0.792509831155222  0.5757530795878056  1.0000
  H   H48       1.0  0.9465966210944641  0.7925112910839901  0.9242481390902599  1.0000
  C   C1        1.0  0.23661668865627658  0.8856647898855885  0.3290011377964462  1.0000
  C   C2        1.0  0.7633813564896028  0.8856622046599514  0.17099837001456564  1.0000
  C   C3        1.0  0.7633871255141214  0.11433215463409142  0.671000617178244  1.0000
  C   C4        1.0  0.2366171893139608  0.11433125344369444  0.8290012928739899  1.0000
  C   C5        1.0  0.3514552947771675  0.007165769547036401  0.3406235757046262  1.0000
  C   C6        1.0  0.6485466607583418  0.0071630137473306  0.15937708968061065  1.0000
  C   C7        1.0  0.648547220816461  0.9928323371076361  0.6593781077497811  1.0000
  C   C8        1.0  0.3514570793577647  0.9928327686309757  0.8406228592951666  1.0000
  C   C9        1.0  0.4961746721039758  0.7844545598258109  0.34932345505410484  1.0000
  C   C10       1.0  0.5038246357517124  0.7844562743161063  0.15067895726024014  1.0000
  C   C11       1.0  0.503827892860393  0.21554587110414766  0.6506794324009351  1.0000
  C   C12       1.0  0.49617393474179744  0.21554415660403958  0.8493213076337087  1.0000
  C   C13       1.0  0.6780461676179641  0.027118703160688505  0.3678345449036088  1.0000
  C   C14       1.0  0.3219544713770261  0.027118984712849705  0.1321648798623656  1.0000
  C   C15       1.0  0.3219562492396689  0.9728817277580577  0.632164730555637  1.0000
  C   C16       1.0  0.6780466715873815  0.9728814462069839  0.8678349260748774  1.0000
  C   C17       1.0  0.7174896827588241  0.08634026684497803  0.4552696267152642  1.0000
  C   C18       1.0  0.282509726179839  0.08633765047616751  0.04472922810698782  1.0000
  C   C19       1.0  0.28250883836577856  0.9136601640714307  0.5447294341800913  1.0000
  C   C20       1.0  0.7174901428895238  0.9136604561732116  0.9552711083062279  1.0000
  C   C21       1.0  0.8411063928898342  0.22437069019356673  0.46109368609627677  1.0000
  C   C22       1.0  0.15888931287194907  0.22436328293473912  0.03890459357587871  1.0000
  C   C23       1.0  0.15888955576569688  0.7756320649946958  0.5389058337578093  1.0000
  C   C24       1.0  0.841113103985684  0.7756371479840068  0.9610946818833599  1.0000
  N   N1        1.0  0.32845533707433816  0.7473916085685206  0.33474091331321904  1.0000
  N   N2        1.0  0.6715426632380285  0.7473912331540262  0.16526256665294176  1.0000
  N   N3        1.0  0.6715485264658836  0.25260649809067803  0.6652620456610806  1.0000
  N   N4        1.0  0.328454658043981  0.2526057113617597  0.8347388307152601  1.0000
  N   N5        1.0  0.5151963762830006  0.9411151300958096  0.3529942306906123  1.0000
  N   N6        1.0  0.4848044273466526  0.9411156434186556  0.14700732314707926  1.0000
  N   N7        1.0  0.48480613930971816  0.0588818144230956  0.6470074527627789  1.0000
  N   N8        1.0  0.5151967403012988  0.05888362536727952  0.8529930847884517  1.0000
  N   N9        1.0  0.7468709060879989  0.36944810093272923  0.4312155363876898  1.0000
  N   N10       1.0  0.25312632658904727  0.36944328347841093  0.06878306855060862  1.0000
  N   N11       1.0  0.25312629177629736  0.6305546542525775  0.568782850989095  1.0000
  N   N12       1.0  0.7468761149530393  0.6305571474422109  0.9312168089079338  1.0000
  Cl  Cl1       1.0  0.3123385069145995  0.37055081801738515  0.4432792931224939  1.0000
  Cl  Cl2       1.0  0.6876561550319095  0.37055211077025524  0.05671977270652213  1.0000
  Cl  Cl3       1.0  0.6876574417409316  0.6294519371708773  0.5567202267315994  1.0000
  Cl  Cl4       1.0  0.3123449385626742  0.6294471580100736  0.9432788292311046  1.0000
  Cl  Cl5       1.0  0.08778245421081009  0.634914802693821  0.15535321247302392  1.0000
  Cl  Cl6       1.0  0.9122111771293006  0.6349145795426808  0.3446426322141605  1.0000
  Cl  Cl7       1.0  0.9122147683388561  0.3650891146291287  0.8446457769040807  1.0000
  Cl  Cl8       1.0  0.0877846234204043  0.3650893377701437  0.6553532756451477  1.0000
  Cl  Cl9       1.0  0.49999990692704427  0.39066106181012833  0.24999879054414725  1.0000
  Cl  Cl10      1.0  0.49999863888109525  0.6093382069723747  0.7500008723494889  1.0000
  Cl  Cl11      1.0  0.9999983022277091  0.27949950387584727  0.24999879867026925  1.0000
  Cl  Cl12      1.0  1.9421334231581593e-07  0.7205020891744669  0.7499996602267988  1.0000
