data_image0
_chemical_formula_structural       U2H52C24S4N4O20
_chemical_formula_sum              "U2 H52 C24 S4 N4 O20"
_cell_length_a       8.458006777588396
_cell_length_b       8.984472062210745
_cell_length_c       16.017269597485438
_cell_angle_alpha    79.0732445298658
_cell_angle_beta     74.89830317919241
_cell_angle_gamma    61.93650362739577

_space_group_name_H-M_alt    "P 1"
_space_group_IT_number       1

loop_
  _space_group_symop_operation_xyz
  'x, y, z'

loop_
  _atom_site_type_symbol
  _atom_site_label
  _atom_site_symmetry_multiplicity
  _atom_site_fract_x
  _atom_site_fract_y
  _atom_site_fract_z
  _atom_site_occupancy
  U   U1        1.0  0.500006196598605  0.9999969439220282  0.5000002452706837  1.0000
  U   U2        1.0  8.584777795249134e-06  0.4999649429114684  0.9999972716696276  1.0000
  H   H1        1.0  0.41799750272282665  0.4816340421621278  0.4294798016094318  1.0000
  H   H2        1.0  0.3293137767537074  0.018408080825651  0.07006449543951727  1.0000
  H   H3        1.0  0.5820097506794187  0.5183882067029515  0.5705195549559292  1.0000
  H   H4        1.0  0.6707182075727124  0.9815762106248445  0.9299360082345983  1.0000
  H   H5        1.0  0.46305182496450203  0.6531357632258334  0.4318658554663415  1.0000
  H   H6        1.0  0.5480212754629862  0.8468995079425243  0.06819355620198311  1.0000
  H   H7        1.0  0.5369486071003993  0.3468928118750156  0.5681333512316229  1.0000
  H   H8        1.0  0.4520143064285666  0.15308098776651496  0.9317979631125438  1.0000
  H   H9        1.0  0.19874767670101806  0.5485542293193009  0.5731669037890228  1.0000
  H   H10       1.0  0.3201502325719194  0.9512090137112068  0.9263065052933538  1.0000
  H   H11       1.0  0.8012610654025635  0.4514490408384901  0.4268297941877534  1.0000
  H   H12       1.0  0.679853236106247  0.048801847929503615  0.07369397108583088  1.0000
  H   H13       1.0  0.13103034277725825  0.7186654437621058  0.49058837223318347  1.0000
  H   H14       1.0  0.3410559802551846  0.7809231951613214  0.008775515114948007  1.0000
  H   H15       1.0  0.8689725348347821  0.281347948372904  0.5094113789636694  1.0000
  H   H16       1.0  0.6589499821367327  0.2190762792550132  0.9912234832238196  1.0000
  H   H17       1.0  0.9172379460473365  0.9275235870113507  0.591667656649946  1.0000
  H   H18       1.0  0.43665874132265275  0.5723775679588101  0.9072670781033381  1.0000
  H   H19       1.0  0.08275946797863304  0.07247462215783433  0.408339321317804  1.0000
  H   H20       1.0  0.5633242658492605  0.4276446809062692  0.0927283068849363  1.0000
  H   H21       1.0  0.9631759273527434  0.7639549655955167  0.6786741955290265  1.0000
  H   H22       1.0  0.4057035642202041  0.7357513413131189  0.8201688978203447  1.0000
  H   H23       1.0  0.036820017538111934  0.23604450882081815  0.3213311397272207  1.0000
  H   H24       1.0  0.5942946536004998  0.2642569898332852  0.1798197427468935  1.0000
  H   H25       1.0  0.997769597156058  0.0905562692180695  0.67716913389021  1.0000
  H   H26       1.0  0.7651754683843494  0.4093441460885999  0.8227050633849159  1.0000
  H   H27       1.0  0.0022103563551640827  0.9094520619283273  0.3228389978476968  1.0000
  H   H28       1.0  0.23480513037608824  0.5906388801147457  0.17729350208697525  1.0000
  H   H29       1.0  0.7934657600623823  0.0725948206373417  0.7243649909709616  1.0000
  H   H30       1.0  0.5908588425018381  0.4271246643264845  0.7745507285997701  1.0000
  H   H31       1.0  0.2065204407805013  0.92739959279038  0.27564290594064994  1.0000
  H   H32       1.0  0.4091123298106467  0.572897584538602  0.22544054205243919  1.0000
  H   H33       1.0  0.1611718465401922  0.828912754418738  0.7762792627816849  1.0000
  H   H34       1.0  0.7664577344365282  0.6707517993338501  0.7240155368893041  1.0000
  H   H35       1.0  0.8388240516849164  0.17108671999758945  0.22372243855673446  1.0000
  H   H36       1.0  0.2335443298376419  0.3292388183524154  0.275988285853245  1.0000
  H   H37       1.0  0.9453292067848622  0.8416095095967935  0.8286865679650999  1.0000
  H   H38       1.0  0.6161701459180617  0.6584055176171193  0.6706999611022155  1.0000
  H   H39       1.0  0.05467156196337443  0.15838869957239154  0.17131950900276385  1.0000
  H   H40       1.0  0.38383239802538344  0.3416040787764346  0.32929596382996346  1.0000
  H   H41       1.0  0.031420954984419165  0.9848253653131567  0.9131170351650297  1.0000
  H   H42       1.0  0.9293684033018866  0.5150264450180444  0.5870654667679246  1.0000
  H   H43       1.0  0.9685848789632062  0.0151639871259519  0.0868873566118822  1.0000
  H   H44       1.0  0.07063476231790837  0.48497935563405303  0.41293549144417335  1.0000
  H   H45       1.0  0.850048608839984  0.1424288719873488  0.8641870670939582  1.0000
  H   H46       1.0  0.8573045291407767  0.3572235548773861  0.6356938296478845  1.0000
  H   H47       1.0  0.14995490600799147  0.8575668066875297  0.1358237143285876  1.0000
  H   H48       1.0  0.1426995491648386  0.642778450033255  0.3643020559451386  1.0000
  H   H49       1.0  0.07687993052775272  0.11229574579697042  0.819184835081728  1.0000
  H   H50       1.0  0.008497991800993776  0.3878602494345671  0.681232511287824  1.0000
  H   H51       1.0  0.923124128720609  0.8876974023836013  0.18082303760532167  1.0000
  H   H52       1.0  0.9915045998131192  0.6121379597346177  0.3187680622305892  1.0000
  C   C1        1.0  0.4267661849425011  0.5568415981699462  0.47329820412184614  1.0000
  C   C2        1.0  0.4569732929834274  0.9432037949756309  0.026514404023842503  1.0000
  C   C3        1.0  0.5732388000324776  0.4431831811894399  0.5267008777611294  1.0000
  C   C4        1.0  0.5430529427508832  0.0567804964748717  0.9734808064916506  1.0000
  C   C5        1.0  0.23697817424611886  0.641422105085482  0.529162342650892  1.0000
  C   C6        1.0  0.4077116082913155  0.858396808819748  0.9703441104790045  1.0000
  C   C7        1.0  0.7630207269673054  0.35859508279099134  0.470833276265921  1.0000
  C   C8        1.0  0.5922970389799076  0.14160266559658655  0.02965097611925671  1.0000
  C   C9        1.0  0.9894842679616291  0.8718666300081352  0.6460616108510919  1.0000
  C   C10       1.0  0.507311675794668  0.6280699518822959  0.8530589831724524  1.0000
  C   C11       1.0  0.01050485559188994  0.12813917064396216  0.3539435745377588  1.0000
  C   C12       1.0  0.4926756785670748  0.3719396445112579  0.1469337284235479  1.0000
  C   C13       1.0  0.9432358041407769  0.00011134174944520002  0.7094011775242066  1.0000
  C   C14       1.0  0.6527733201561577  0.4997283416938957  0.7900071235276868  1.0000
  C   C15       1.0  0.056750970707789006  0.9998906631611961  0.290607104081097  1.0000
  C   C16       1.0  0.3472069589813956  0.5002749284638952  0.20998491216294468  1.0000
  C   C17       1.0  0.015447050639039669  0.9181228006662681  0.7928688777005275  1.0000
  C   C18       1.0  0.7266848323014018  0.581677134531674  0.7069223870951049  1.0000
  C   C19       1.0  0.9845482871301529  0.08187793899722352  0.207136406553154  1.0000
  C   C20       1.0  0.27331836643437424  0.4183198093903542  0.293078237425874  1.0000
  C   C21       1.0  0.9928584105348223  0.046215682749235  0.8505984934123703  1.0000
  C   C22       1.0  0.8899176528824528  0.4536885282988906  0.6494849649258114  1.0000
  C   C23       1.0  0.00714529798449358  0.9537837916670926  0.1494052125213656  1.0000
  C   C24       1.0  0.11008437977658776  0.5463147418589003  0.3505135350507372  1.0000
  S   S1        1.0  0.23056306448838634  0.7806941854266685  0.599208056039835  1.0000
  S   S2        1.0  0.6100242284138206  0.7195890741836309  0.9003540894814746  1.0000
  S   S3        1.0  0.7694318412691672  0.21931794146119196  0.4007954176909648  1.0000
  S   S4        1.0  0.3899773757442802  0.2804066044912475  0.09963897285188489  1.0000
  N   N1        1.0  0.5350412794897323  0.9691337701245006  0.31134511081291544  1.0000
  N   N2        1.0  0.8169086285703316  0.5301575357180184  0.18854472312876414  1.0000
  N   N3        1.0  0.4649559438666134  0.0308682347861335  0.6886576297293769  1.0000
  N   N4        1.0  0.18308711060027594  0.4698330819682397  0.8114580635502051  1.0000
  O   O1        1.0  0.33829921576138844  0.2204882950775087  0.4887845409753027  1.0000
  O   O2        1.0  0.047531023632075176  0.2795082790127808  0.011065512009551498  1.0000
  O   O3        1.0  0.6616951621472542  0.7795428105176472  0.511214496185687  1.0000
  O   O4        1.0  0.9524983500732993  0.7204089543386232  0.9889319964505887  1.0000
  O   O5        1.0  0.4202283384980491  0.9359804989804632  0.3723504420021229  1.0000
  O   O6        1.0  0.729583440989373  0.5635613257983112  0.12735189947559894  1.0000
  O   O7        1.0  0.5797660414204276  0.06402783216594093  0.6276506244956862  1.0000
  O   O8        1.0  0.2704044718314905  0.4364280266408045  0.8726495567878061  1.0000
  O   O9        1.0  0.6371735498243113  0.013239546206584404  0.33771219659162444  1.0000
  O   O10       1.0  0.9891099433618677  0.4864331246125887  0.1624072719755674  1.0000
  O   O11       1.0  0.3628292179047464  0.9867573977154367  0.6622876320748787  1.0000
  O   O12       1.0  0.01088478928245023  0.5135878590053409  0.8375856336928819  1.0000
  O   O13       1.0  0.5456384133669591  0.9603567506257349  0.23416279677761048  1.0000
  O   O14       1.0  0.7422410764083766  0.5383310323249191  0.26569626069284163  1.0000
  O   O15       1.0  0.45435663890024397  0.039643989037749315  0.7658366386720983  1.0000
  O   O16       1.0  0.2577789641805455  0.46162542368821863  0.7343012207832798  1.0000
  O   O17       1.0  0.2525862037505179  0.9271136469338475  0.5364902514472618  1.0000
  O   O18       1.0  0.7162760875741088  0.5730671276570691  0.9630719205928671  1.0000
  O   O19       1.0  0.7474018485586174  0.0729022756954691  0.4635144207756809  1.0000
  O   O20       1.0  0.2837190484814656  0.4269209595348897  0.036920516837682285  1.0000
