data_image0
_chemical_formula_structural       Cd2H70C52N8Cl2O16
_chemical_formula_sum              "Cd2 H70 C52 N8 Cl2 O16"
_cell_length_a       11.5650586020187
_cell_length_b       12.046652555215967
_cell_length_c       14.85903666923886
_cell_angle_alpha    99.63991717149551
_cell_angle_beta     109.23441325353443
_cell_angle_gamma    93.43400542587011

_space_group_name_H-M_alt    "P 1"
_space_group_IT_number       1

loop_
  _space_group_symop_operation_xyz
  'x, y, z'

loop_
  _atom_site_type_symbol
  _atom_site_label
  _atom_site_symmetry_multiplicity
  _atom_site_fract_x
  _atom_site_fract_y
  _atom_site_fract_z
  _atom_site_occupancy
  Cd  Cd1       1.0  0.004460879964206308  0.21445668640204474  0.3122471416569255  1.0000
  Cd  Cd2       1.0  0.9955370763121751  0.785542198704974  0.6877473919660916  1.0000
  H   H1        1.0  0.8939247451181417  0.1010543188310606  0.6141354944274299  1.0000
  H   H2        1.0  0.10608514480374967  0.8989512917067447  0.3858663856003802  1.0000
  H   H3        1.0  0.7309938189277646  0.941279016266279  0.5181008041226252  1.0000
  H   H4        1.0  0.2690108192229204  0.05872830308396001  0.48190266315509706  1.0000
  H   H5        1.0  0.6718078870795383  0.8971823868052979  0.33442132643590133  1.0000
  H   H6        1.0  0.3281915845376204  0.1028207039456177  0.6655815804984186  1.0000
  H   H7        1.0  0.7092341689879975  0.9383462628018865  0.1908501690681634  1.0000
  H   H8        1.0  0.2907627612265601  0.0616517479285577  0.809150711123124  1.0000
  H   H9        1.0  0.7119651285864137  0.08858745000165412  0.20722350885029786  1.0000
  H   H10       1.0  0.2880317993641128  0.9114105696840157  0.7927753530169499  1.0000
  H   H11       1.0  0.7803619419195515  0.13257134042134314  0.10002699864308796  1.0000
  H   H12       1.0  0.21963534034937737  0.867429227714801  0.8999716341579074  1.0000
  H   H13       1.0  0.7833957655430481  0.9906349003451068  0.04197814647979913  1.0000
  H   H14       1.0  0.21659865186087052  0.009364834175542599  0.9580189658164786  1.0000
  H   H15       1.0  0.017812372069300902  0.04626769869491199  0.08445734838218041  1.0000
  H   H16       1.0  0.9821816925255648  0.9537294814051053  0.915541338529714  1.0000
  H   H17       1.0  0.9121947150705554  0.10295416513958601  0.9923591303846069  1.0000
  H   H18       1.0  0.08780324573388046  0.8970447020569952  0.007639439886503424  1.0000
  H   H19       1.0  0.1795507917637806  0.1884310748788423  0.14038573235463764  1.0000
  H   H20       1.0  0.8204450995594714  0.8115661122212855  0.8596100572353296  1.0000
  H   H21       1.0  0.1516050618253786  0.3309932440418493  0.1721670033965452  1.0000
  H   H22       1.0  0.8483915080333803  0.6690022421187081  0.8278287236635367  1.0000
  H   H23       1.0  0.9559931812723761  0.9200285616299696  0.28052077287154026  1.0000
  H   H24       1.0  0.044003509208096106  0.0799677640638379  0.7194771204153982  1.0000
  H   H25       1.0  0.03966067408406105  0.9626263812062064  0.20923748388082702  1.0000
  H   H26       1.0  0.9603349782597804  0.03736911787220979  0.7907559915794666  1.0000
  H   H27       1.0  0.9431630398307151  0.7580751887848224  0.16875146483086217  1.0000
  H   H28       1.0  0.0568302210788829  0.2419228706319601  0.8312410817359606  1.0000
  H   H29       1.0  0.7947119106179488  0.8013880918946938  0.12336481251823984  1.0000
  H   H30       1.0  0.20528112036834056  0.19860824367949453  0.8766334932151026  1.0000
  H   H31       1.0  0.20301190926100082  0.3183371211998605  0.028701595418468225  1.0000
  H   H32       1.0  0.7969788147740503  0.6816558402860197  0.9712929610534148  1.0000
  H   H33       1.0  0.040857829900758716  0.3284208397046271  0.9923336112261512  1.0000
  H   H34       1.0  0.9591386554749806  0.671580580882619  0.0076649362019198105  1.0000
  H   H35       1.0  0.9095339820788267  0.5588443293922439  0.14432905747263186  1.0000
  H   H36       1.0  0.09046171168645151  0.441157922750584  0.8556741140052824  1.0000
  H   H37       1.0  0.12511008484390373  0.6645180736448779  0.19463611211322276  1.0000
  H   H38       1.0  0.8748892307675007  0.33547740062778797  0.8053603147740773  1.0000
  H   H39       1.0  0.2918658884193163  0.615586114647222  0.335722641917073  1.0000
  H   H40       1.0  0.7081328685236274  0.3844119030833254  0.664275340952287  1.0000
  H   H41       1.0  0.35871179252183794  0.5025430141881131  0.4497005461655804  1.0000
  H   H42       1.0  0.6412880303950176  0.4974626369535712  0.5502994406037659  1.0000
  H   H43       1.0  0.28626741343357764  0.35836251747502257  0.4114210503543988  1.0000
  H   H44       1.0  0.7137375466701741  0.6416405614403972  0.5885805651356365  1.0000
  H   H45       1.0  0.14301649843419992  0.5441538708882734  0.6026017864105314  1.0000
  H   H46       1.0  0.8569854799561937  0.45584751995303213  0.3973995062213406  1.0000
  H   H47       1.0  0.11654614169368226  0.5752963758965991  0.48569010923321815  1.0000
  H   H48       1.0  0.8834596160579339  0.42470584758264357  0.5143122644044311  1.0000
  H   H49       1.0  0.23259992039363206  0.7353865233287634  0.620163541107907  1.0000
  H   H50       1.0  0.7674040068562178  0.26461570807574475  0.3798383659782588  1.0000
  H   H51       1.0  0.3536809396197285  0.6550396852229596  0.6641879564161501  1.0000
  H   H52       1.0  0.6463219577949246  0.3449616867303434  0.3358169333648747  1.0000
  H   H53       1.0  0.5063316522622117  0.7542266736850183  0.631220033157142  1.0000
  H   H54       1.0  0.49367546557910214  0.24577213597479644  0.3687849065194656  1.0000
  H   H55       1.0  0.41030877490820933  0.8602824482056235  0.5913782080103546  1.0000
  H   H56       1.0  0.5896975460399148  0.13971721390529274  0.40862664629332823  1.0000
  H   H57       1.0  0.4269188896306631  0.8110494097522364  0.42681357647411755  1.0000
  H   H58       1.0  0.5730837710686032  0.18895026522412914  0.5731910175012873  1.0000
  H   H59       1.0  0.5746705238395152  0.8508276208305361  0.5224966126222413  1.0000
  H   H60       1.0  0.425334082700509  0.1491729066493335  0.4775059047087211  1.0000
  H   H61       1.0  0.42199442621877387  0.4980202156774496  0.6255279980989671  1.0000
  H   H62       1.0  0.5780073169655823  0.5019794722167747  0.37447434427664217  1.0000
  H   H63       1.0  0.30939835416496925  0.44026962484381477  0.6690461341299639  1.0000
  H   H64       1.0  0.6906022347890898  0.5597283789913234  0.3309536608402439  1.0000
  H   H65       1.0  0.4293035717861785  0.2924808616995804  0.6600746167137006  1.0000
  H   H66       1.0  0.5706972538832745  0.7075188391124955  0.33992547406212753  1.0000
  H   H67       1.0  0.3047509254250187  0.2521334537792939  0.5463110799851878  1.0000
  H   H68       1.0  0.6952500170927678  0.7478671014913941  0.4536878131440859  1.0000
  H   H69       1.0  0.16611659076095012  0.386862062465383  0.5098796526036582  1.0000
  H   H70       1.0  0.833884352511518  0.6131384898202299  0.49011991330029764  1.0000
  C   C1        1.0  0.0329084641932553  0.23318791308228978  0.5431000177914314  1.0000
  C   C2        1.0  0.9671000355376267  0.7668143134344306  0.4568996918000254  1.0000
  C   C3        1.0  0.9292785720242166  0.13725848790248557  0.4880079082978242  1.0000
  C   C4        1.0  0.07073048863914985  0.8627411862011203  0.5119922636356196  1.0000
  C   C5        1.0  0.8681554366382898  0.07836013958070251  0.5355877041690109  1.0000
  C   C6        1.0  0.13185536702513193  0.9216454729646202  0.4644130635851696  1.0000
  C   C7        1.0  0.7750000195186715  0.990629182209325  0.48047242379375654  1.0000
  C   C8        1.0  0.22500884132269766  0.009375565892206299  0.5195331117035951  1.0000
  C   C9        1.0  0.7432447630209112  0.9660616543814912  0.3796435241499197  1.0000
  C   C10       1.0  0.25675632720120944  0.03394655020326098  0.6203544485048769  1.0000
  C   C11       1.0  0.805325950970378  0.0313177290177578  0.33644336394540636  1.0000
  C   C12       1.0  0.19467280823659655  0.9686802797575709  0.6635566372480002  1.0000
  C   C13       1.0  0.7681780836844538  0.0199856957678008  0.22745047674000324  1.0000
  C   C14       1.0  0.23181792901519327  0.9800123278805017  0.7725481518515027  1.0000
  C   C15       1.0  0.8381721473053716  0.06357853213446418  0.09885118735726196  1.0000
  C   C16       1.0  0.16182215098617553  0.9364203568827918  0.9011451042615309  1.0000
  C   C17       1.0  0.9458969703397031  0.10346738435227823  0.07084645629906558  1.0000
  C   C18       1.0  0.05409697438811634  0.8965289532294279  0.9291507371606473  1.0000
  C   C19       1.0  0.11586875371810382  0.2514769890434749  0.11825878114031953  1.0000
  C   C20       1.0  0.8841251902550485  0.7485193515232997  0.8817377395447182  1.0000
  C   C21       1.0  0.9463575184650922  0.9368795828478085  0.2081700082818045  1.0000
  C   C22       1.0  0.05363654235640071  0.06311761217758521  0.7918253147566787  1.0000
  C   C23       1.0  0.8936882675356445  0.8251732210471233  0.13620331259812005  1.0000
  C   C24       1.0  0.10630121778611112  0.17482399080635252  0.8637915168363508  1.0000
  C   C25       1.0  0.1123176457429977  0.2731198405948732  0.019746083887177707  1.0000
  C   C26       1.0  0.8876743501253658  0.7268756564236228  0.9802504951182415  1.0000
  C   C27       1.0  0.8385956530939895  0.3869862347992452  0.21747581420025608  1.0000
  C   C28       1.0  0.16140019139432135  0.6130236547173524  0.78252912790191  1.0000
  C   C29       1.0  0.9687545653339669  0.4489048279652935  0.2451572053420677  1.0000
  C   C30       1.0  0.031242722217697912  0.551095719275331  0.7548461368817032  1.0000
  C   C31       1.0  0.988261415143228  0.5379386102821613  0.20033241611933772  1.0000
  C   C32       1.0  0.011733331005835599  0.46205685693799126  0.7996688993614073  1.0000
  C   C33       1.0  0.10620106909441064  0.5961476850981671  0.22953879152155582  1.0000
  C   C34       1.0  0.8938006718259216  0.403852011751276  0.7704615325300069  1.0000
  C   C35       1.0  0.19976648565579322  0.5685221914944166  0.3066533561977068  1.0000
  C   C36       1.0  0.8002302040700046  0.43147413718446614  0.6933438643145495  1.0000
  C   C37       1.0  0.1734992407176676  0.4793952149328717  0.3488268618799283  1.0000
  C   C38       1.0  0.8265005475698289  0.5206036562787374  0.651169483843937  1.0000
  C   C39       1.0  0.27241963762317317  0.44726190998611765  0.4319041286438862  1.0000
  C   C40       1.0  0.7275803919077646  0.5527386402919844  0.5680965495336922  1.0000
  C   C41       1.0  0.1881065159572586  0.5618500490866651  0.551333711307315  1.0000
  C   C42       1.0  0.8118975304049628  0.4381530278212368  0.44866901645634283  1.0000
  C   C43       1.0  0.28122525111633934  0.6664622985363452  0.5973081459652152  1.0000
  C   C44       1.0  0.7187784409274728  0.3335382299210822  0.40269481086469483  1.0000
  C   C45       1.0  0.43720333192547406  0.7768027250564131  0.5674840298060033  1.0000
  C   C46       1.0  0.5628045828090295  0.22319523215229964  0.4325209952435289  1.0000
  C   C47       1.0  0.4936137354249228  0.7855928192800691  0.4903461114582087  1.0000
  C   C48       1.0  0.5063900757312609  0.21440855468075173  0.5096576660491936  1.0000
  C   C49       1.0  0.3434650575299899  0.4324294062652996  0.6076625592915406  1.0000
  C   C50       1.0  0.656535768139456  0.5675702945467691  0.39233753148428735  1.0000
  C   C51       1.0  0.3847140273943026  0.31632449061190465  0.588956108898657  1.0000
  C   C52       1.0  0.6152888654922961  0.683676899251836  0.41104474423427473  1.0000
  N   N1        1.0  0.8970258021075281  0.11327497434914591  0.3907071753724197  1.0000
  N   N2        1.0  0.10297959679763125  0.8867247185900666  0.6092913906833817  1.0000
  N   N3        1.0  0.8748052822838163  0.03445018370755551  0.19617864294677645  1.0000
  N   N4        1.0  0.12519072890648897  0.9655478459108907  0.8038186400953579  1.0000
  N   N5        1.0  0.06093754196741233  0.4181025319162117  0.3155778241488535  1.0000
  N   N6        1.0  0.939061573821988  0.5818980163543729  0.6844239663023474  1.0000
  N   N7        1.0  0.23995383954819263  0.4552280021711681  0.5231422421937495  1.0000
  N   N8        1.0  0.7600474595520269  0.5447750925947759  0.4768584401933255  1.0000
  Cl  Cl1       1.0  0.2106113324153611  0.14758549084621111  0.32771975263700887  1.0000
  Cl  Cl2       1.0  0.7893902886379252  0.8524133634849064  0.6722790779623866  1.0000
  O   O1        1.0  0.06477263996447391  0.2918626767513857  0.4875465018781854  1.0000
  O   O2        1.0  0.935229011190124  0.7081429754202586  0.512451933118598  1.0000
  O   O3        1.0  0.07715498786269143  0.24899451509580217  0.6333349965527619  1.0000
  O   O4        1.0  0.9228566979316071  0.7510043075866618  0.36666370898104367  1.0000
  O   O5        1.0  0.9983981959586502  0.2163698005651895  0.12417229275876449  1.0000
  O   O6        1.0  0.0015961061062768184  0.7836290735266972  0.8758273627334321  1.0000
  O   O7        1.0  0.9115851196159783  0.8326766268781542  0.046735905941510364  1.0000
  O   O8        1.0  0.08840161995312461  0.16732059686322032  0.953258223665735  1.0000
  O   O9        1.0  0.829741340279938  0.29059466525392713  0.24274784650278758  1.0000
  O   O10       1.0  0.17025510744775127  0.7093999873435379  0.7572443687810662  1.0000
  O   O11       1.0  0.7512698690522371  0.43749179928169457  0.1763189172596569  1.0000
  O   O12       1.0  0.24873449535888892  0.5625264867021117  0.8237021527955124  1.0000
  O   O13       1.0  0.332864999957458  0.6924086542779333  0.5274124656110715  1.0000
  O   O14       1.0  0.6671415561966968  0.3075927107800637  0.4725913389488668  1.0000
  O   O15       1.0  0.47003496902333103  0.32215944712437056  0.538587159316755  1.0000
  O   O16       1.0  0.5299686039081167  0.677840235829656  0.46141497683566274  1.0000
