data_image0
_chemical_formula_structural       Yb2H24C40S4N8O18
_chemical_formula_sum              "Yb2 H24 C40 S4 N8 O18"
_cell_length_a       9.658007895396072
_cell_length_b       10.44943137029428
_cell_length_c       12.099270088910027
_cell_angle_alpha    96.75363116177134
_cell_angle_beta     91.82977121038338
_cell_angle_gamma    115.67641446906435

_space_group_name_H-M_alt    "P 1"
_space_group_IT_number       1

loop_
  _space_group_symop_operation_xyz
  'x, y, z'

loop_
  _atom_site_type_symbol
  _atom_site_label
  _atom_site_symmetry_multiplicity
  _atom_site_fract_x
  _atom_site_fract_y
  _atom_site_fract_z
  _atom_site_occupancy
  Yb  Yb1       1.0  0.4515094975307293  0.749125268491504  0.6059324347492421  1.0000
  Yb  Yb2       1.0  0.5484912255935299  0.25086871725420673  0.39406403292002073  1.0000
  H   H1        1.0  0.23139202470456868  0.15858639368443764  0.08303020615499433  1.0000
  H   H2        1.0  0.768610412977381  0.841417793738472  0.9169694683106755  1.0000
  H   H3        1.0  0.6851288047555144  0.09724732442467847  0.7254299699952043  1.0000
  H   H4        1.0  0.3148799219165779  0.9027567216493678  0.27457392793340324  1.0000
  H   H5        1.0  0.6792933257764703  0.2994778315900248  0.8539411987008594  1.0000
  H   H6        1.0  0.32069963201251267  0.700515036536025  0.1460552457464885  1.0000
  H   H7        1.0  0.46337052353644037  0.24822326039905818  0.9772543731086005  1.0000
  H   H8        1.0  0.5366356954551177  0.7517806312347444  0.022738622971779403  1.0000
  H   H9        1.0  0.9259596990732389  0.5443062329333798  0.938815511658227  1.0000
  H   H10       1.0  0.07404074718748173  0.4557049798539267  0.06118237147777712  1.0000
  H   H11       1.0  0.9456652687457848  0.36858505633413324  0.7835999024729007  1.0000
  H   H12       1.0  0.054340700986820326  0.6314236874116048  0.21641145080725013  1.0000
  H   H13       1.0  0.1557756810805769  0.4600777277420461  0.6587593982563578  1.0000
  H   H14       1.0  0.8442272565590941  0.5399225688808257  0.34124703951656704  1.0000
  H   H15       1.0  0.8393442442083127  0.769617970373268  0.1991095568759107  1.0000
  H   H16       1.0  0.1606664477248003  0.23038839384113877  0.80089012742571  1.0000
  H   H17       1.0  0.7021567153338493  0.8044896232676205  0.36249872563556107  1.0000
  H   H18       1.0  0.29785166085412135  0.19550475011380541  0.6375044779456192  1.0000
  H   H19       1.0  0.028559763817646855  0.25196792011349334  0.42199773003576996  1.0000
  H   H20       1.0  0.9714326652212577  0.7480345944534434  0.578004431353847  1.0000
  H   H21       1.0  0.18146427772542473  0.6650030513659003  0.44749596102457906  1.0000
  H   H22       1.0  0.8185232566336395  0.3349913464687119  0.5525029458779471  1.0000
  H   H23       1.0  0.22778879543871966  0.5347236419604329  0.42935191435107367  1.0000
  H   H24       1.0  0.772206123534751  0.4652709878669865  0.5706478648990797  1.0000
  C   C1        1.0  0.590994260077217  0.07766156388594682  0.7782250495295601  1.0000
  C   C2        1.0  0.4090047921343609  0.9223394114200614  0.22177968245910765  1.0000
  C   C3        1.0  0.5880886406707687  0.19104455001085094  0.8514015961955509  1.0000
  C   C4        1.0  0.41190565647595895  0.8089551591796109  0.14860229252052903  1.0000
  C   C5        1.0  0.46872939359427324  0.1626532526421798  0.9190898024843082  1.0000
  C   C6        1.0  0.5312704145381204  0.8373519689034907  0.08090984290632262  1.0000
  C   C7        1.0  0.3547222936525571  0.02013665771219309  0.9133227708018554  1.0000
  C   C8        1.0  0.6452818737054571  0.9798733378550465  0.08667933872364131  1.0000
  C   C9        1.0  0.23189167285303805  0.973500511225822  0.9832094328609531  1.0000
  C   C10       1.0  0.7681059166874038  0.026497843003703298  0.016787790855794103  1.0000
  C   C11       1.0  0.12892848764398196  0.8290877461771159  0.9835539803013305  1.0000
  C   C12       1.0  0.8710688046547971  0.17091620805033608  0.0164498601006358  1.0000
  C   C13       1.0  0.13029449357176756  0.720638522802126  0.8997392827229265  1.0000
  C   C14       1.0  0.8697096368453643  0.2793672706792448  0.10025786298123762  1.0000
  C   C15       1.0  0.01868379291764196  0.576491873995856  0.8840460944102945  1.0000
  C   C16       1.0  0.9813175285007603  0.42351880860420704  0.11595431456064631  1.0000
  C   C17       1.0  0.02764563932753818  0.4815661307608607  0.7980844123822738  1.0000
  C   C18       1.0  0.9723564394560495  0.5184457666539402  0.2019218467670143  1.0000
  C   C19       1.0  0.14634505096270084  0.5320430997760184  0.7275855007218297  1.0000
  C   C20       1.0  0.8536593630221034  0.46795845581538476  0.27241673681006523  1.0000
  C   C21       1.0  0.2476145609391479  0.7635204871170129  0.8247553948414038  1.0000
  C   C22       1.0  0.7523898475247391  0.2364835434603235  0.17524345434388522  1.0000
  C   C23       1.0  0.36452409467873537  0.9117239866926425  0.835265077583536  1.0000
  C   C24       1.0  0.6354735469209488  0.0882741760898682  0.1647363382179776  1.0000
  C   C25       1.0  0.07794587065689007  0.951920995845114  0.11833885788995961  1.0000
  C   C26       1.0  0.9220565519066851  0.04808758511068587  0.8816615883122765  1.0000
  C   C27       1.0  0.009183560221756953  0.9889611554129726  0.21566999486163504  1.0000
  C   C28       1.0  0.9908196444228423  0.011042328277731914  0.7843313696992099  1.0000
  C   C29       1.0  0.8790507254274402  0.8755094622443024  0.24824434255580036  1.0000
  C   C30       1.0  0.12094744610555348  0.12449451823489001  0.7517544752513248  1.0000
  C   C31       1.0  0.8019586735336047  0.8947085608195025  0.3389724964278145  1.0000
  C   C32       1.0  0.198046244485468  0.1052896604108469  0.6610289559815642  1.0000
  C   C33       1.0  0.85575062415505  0.0316633653723315  0.4003041371630971  1.0000
  C   C34       1.0  0.14424609574863462  0.9683330440585036  0.5996939490653193  1.0000
  C   C35       1.0  0.9853592446968238  0.14634408084672398  0.37230063482674325  1.0000
  C   C36       1.0  0.014639204882925515  0.853658136728434  0.6276998864615069  1.0000
  C   C37       1.0  0.0623904929033685  0.1264288845496537  0.281176510277689  1.0000
  C   C38       1.0  0.9376061092078344  0.8735692698831627  0.7188249002941306  1.0000
  C   C39       1.0  0.5429924567558189  0.5445247930431661  0.4550950956186669  1.0000
  C   C40       1.0  0.45699728949106344  0.45546348295597033  0.5448997256632708  1.0000
  S   S1        1.0  0.23255929893173294  0.2834232131363379  0.2610440283130019  1.0000
  S   S2        1.0  0.7674420637652445  0.7165737324260988  0.7389616138780185  1.0000
  S   S3        1.0  0.7530281603630584  0.068763097000776  0.508574367115621  1.0000
  S   S4        1.0  0.2469653575959753  0.931226801756189  0.4914179358641989  1.0000
  N   N1        1.0  0.48196182609512306  0.9424513942127035  0.7687475238796042  1.0000
  N   N2        1.0  0.5180398748609178  0.057544709876665885  0.23124891701775144  1.0000
  N   N3        1.0  0.2536901528407185  0.6686791175702139  0.7399035644433242  1.0000
  N   N4        1.0  0.7463120123153928  0.33132435777080355  0.2600977948878196  1.0000
  N   N5        1.0  0.035487625667101924  0.8167200846739389  0.06853921000855222  1.0000
  N   N6        1.0  0.9645123427195655  0.1832851189696783  0.9314654632066139  1.0000
  N   N7        1.0  0.19508111200376282  0.04896863245981109  0.06719639144866821  1.0000
  N   N8        1.0  0.8049210066140161  0.9510325593422804  0.9328041641443151  1.0000
  O   O1        1.0  0.3598334835379404  0.24190944939668674  0.27639121815089146  1.0000
  O   O2        1.0  0.6401645634984305  0.7580832869328589  0.7236044167051648  1.0000
  O   O3        1.0  0.241900724533309  0.3980321623534022  0.34641235154780503  1.0000
  O   O4        1.0  0.7581236616436512  0.6019674239861245  0.653595045174413  1.0000
  O   O5        1.0  0.21904775992985748  0.31096087372905856  0.14630082279985154  1.0000
  O   O6        1.0  0.780947093310381  0.6890353096533275  0.8537064728784858  1.0000
  O   O7        1.0  0.635470745919818  0.09808556966122953  0.44960375583181655  1.0000
  O   O8        1.0  0.3645276393756232  0.9019063251952416  0.5503826777305818  1.0000
  O   O9        1.0  0.6801140547377571  0.9404915107918868  0.5631530762217595  1.0000
  O   O10       1.0  0.3198725742268921  0.0595122042957357  0.43684484831896253  1.0000
  O   O11       1.0  0.862969146000097  0.19513572522652106  0.5843623708765051  1.0000
  O   O12       1.0  0.13702489229478224  0.8048619097740753  0.41563149419210543  1.0000
  O   O13       1.0  0.5464119466471828  0.6676232673632752  0.4588087310251795  1.0000
  O   O14       1.0  0.4535847569549105  0.33236207146287455  0.541187007991937  1.0000
  O   O15       1.0  0.6031473996435892  0.4883231674814327  0.3860087480736497  1.0000
  O   O16       1.0  0.3968498120693056  0.5116593934226471  0.613978657391165  1.0000
  O   O17       1.0  0.22877323538535413  0.6123776415515607  0.48486814264651923  1.0000
  O   O18       1.0  0.7712247348759506  0.38762159830482557  0.5151282319445089  1.0000
