data_image0
_chemical_formula_structural       Bi4H40C20S8N4Cl8
_chemical_formula_sum              "Bi4 H40 C20 S8 N4 Cl8"
_cell_length_a       7.701183862829083
_cell_length_b       9.686227946340079
_cell_length_c       14.778449416070853
_cell_angle_alpha    90.00033257854211
_cell_angle_beta     89.99985947098088
_cell_angle_gamma    93.52309710345243

_space_group_name_H-M_alt    "P 1"
_space_group_IT_number       1

loop_
  _space_group_symop_operation_xyz
  'x, y, z'

loop_
  _atom_site_type_symbol
  _atom_site_label
  _atom_site_symmetry_multiplicity
  _atom_site_fract_x
  _atom_site_fract_y
  _atom_site_fract_z
  _atom_site_occupancy
  Bi  Bi1       1.0  0.7600438425735377  0.21714849596191488  0.2151381925911338  1.0000
  Bi  Bi2       1.0  0.739935146803333  0.7828578486676958  0.7151308388467612  1.0000
  Bi  Bi3       1.0  0.2399322261196986  0.7828423483460156  0.7848705454006648  1.0000
  Bi  Bi4       1.0  0.26004344319932937  0.2171474702909393  0.2848616593074382  1.0000
  H   H1        1.0  0.30259968395314024  0.15601238177573146  0.8646388500441944  1.0000
  H   H2        1.0  0.19740456981365637  0.8439821374988552  0.3646391861304181  1.0000
  H   H3        1.0  0.6974030442199464  0.843986618747394  0.1353597380313758  1.0000
  H   H4        1.0  0.8025969477104838  0.1560179032783395  0.6353600786088691  1.0000
  H   H5        1.0  0.29728808392179923  0.08577478011129358  0.9749852089555944  1.0000
  H   H6        1.0  0.202715899800431  0.9142227671756517  0.4749858044238024  1.0000
  H   H7        1.0  0.7027135209776104  0.9142262949973909  0.025014055785604204  1.0000
  H   H8        1.0  0.7972856177223445  0.08577727360447798  0.5250141369764663  1.0000
  H   H9        1.0  0.15599621468606273  0.2970519321730052  0.0332211336759372  1.0000
  H   H10       1.0  0.3440047071468939  0.7029459354412494  0.5332234939227121  1.0000
  H   H11       1.0  0.8440053028394416  0.7029481086012481  0.9667774544023829  1.0000
  H   H12       1.0  0.6559956870994768  0.2970561799303367  0.4667784774651267  1.0000
  H   H13       1.0  0.15359177566713808  0.36556276963757023  0.9212778960422413  1.0000
  H   H14       1.0  0.3464112138930986  0.6344353509769431  0.4212799540687584  1.0000
  H   H15       1.0  0.8464109525059487  0.634436230885555  0.0787206920333219  1.0000
  H   H16       1.0  0.65359177639899  0.36556675255537385  0.5787220173174035  1.0000
  H   H17       1.0  0.030607297171144396  0.20944804808434006  0.9479421813019826  1.0000
  H   H18       1.0  0.4693968829328695  0.790550298425117  0.4479433202973908  1.0000
  H   H19       1.0  0.9693969911506245  0.7905540495136376  0.0520564067784548  1.0000
  H   H20       1.0  0.5306048093377244  0.20945181102388938  0.552057974428628  1.0000
  H   H21       1.0  0.43144591032473306  0.3925237736473192  0.8496484685213022  1.0000
  H   H22       1.0  0.0685574553477863  0.6074747585407891  0.3496473964926778  1.0000
  H   H23       1.0  0.5685557819485824  0.6074783357958039  0.15035147288276823  1.0000
  H   H24       1.0  0.9314466582193434  0.39252527040302704  0.6503532215668812  1.0000
  H   H25       1.0  0.6210827997493381  0.43463568712166256  0.9136916817250693  1.0000
  H   H26       1.0  0.8789215992417708  0.5653598474671496  0.4136914064218686  1.0000
  H   H27       1.0  0.3789200157949324  0.5653643477417843  0.08630893633533532  1.0000
  H   H28       1.0  0.1210836375976712  0.43463810689403454  0.5863092116330436  1.0000
  H   H29       1.0  0.7629278839663555  0.2279882689319592  0.8484495781646686  1.0000
  H   H30       1.0  0.7370702005173085  0.7720056937146395  0.34845026741037793  1.0000
  H   H31       1.0  0.23707251028820048  0.772013846421977  0.15154833325731687  1.0000
  H   H32       1.0  0.2629309675057385  0.22799020973657483  0.6515489973212993  1.0000
  H   H33       1.0  0.5727859660490681  0.18575448404869374  0.7827938819480877  1.0000
  H   H34       1.0  0.9272112598136673  0.8142409823713165  0.28279448802324936  1.0000
  H   H35       1.0  0.42721321755653463  0.814248671559305  0.2172047061376219  1.0000
  H   H36       1.0  0.0727886975604193  0.18575596133396027  0.7172054533721522  1.0000
  H   H37       1.0  0.6984340476466429  0.3432260345310921  0.7627087722216289  1.0000
  H   H38       1.0  0.8015657678470235  0.6567682110998091  0.26270961892797834  1.0000
  H   H39       1.0  0.30156513596032397  0.6567771210739651  0.2372891392031065  1.0000
  H   H40       1.0  0.19843799622037753  0.3432276805150778  0.7372903224629895  1.0000
  C   C1        1.0  0.559170685566933  0.24183670445533062  0.0319912781998752  1.0000
  C   C2        1.0  0.9408307589264312  0.7581638099769703  0.5319923705161358  1.0000
  C   C3        1.0  0.44083083195447154  0.7581633363277475  0.9680093398613608  1.0000
  C   C4        1.0  0.059170933345526984  0.24183829946909427  0.4680082475489088  1.0000
  C   C5        1.0  0.3040702164869699  0.18298346809011426  0.9367729901922601  1.0000
  C   C6        1.0  0.19593271061783923  0.8170147872304125  0.43677322595858203  1.0000
  C   C7        1.0  0.6959339844567936  0.8170175951822498  0.0632269512082289  1.0000
  C   C8        1.0  0.8040689816541189  0.18298732221565928  0.5632273921064623  1.0000
  C   C9        1.0  0.15298504572413665  0.2698407704833343  0.9611195133021654  1.0000
  C   C10       1.0  0.3470163104686748  0.7301556337625142  0.46111990331285574  1.0000
  C   C11       1.0  0.8470177698242268  0.730159264371288  0.0388790747753092  1.0000
  C   C12       1.0  0.6529826110070119  0.26984441885982585  0.5388807147500643  1.0000
  C   C13       1.0  0.5427781862328658  0.34850993027154686  0.8827762819630607  1.0000
  C   C14       1.0  0.9572238287040733  0.6514863817113649  0.3827762328785056  1.0000
  C   C15       1.0  0.4572248040633156  0.6514921732519452  0.11722365944017103  1.0000
  C   C16       1.0  0.04277881208965079  0.3485115844890884  0.6172243851780834  1.0000
  C   C17       1.0  0.6503822587302893  0.2707814909512507  0.8153630395056483  1.0000
  C   C18       1.0  0.8496173445191175  0.7292132124553489  0.315364099280906  1.0000
  C   C19       1.0  0.3496181355228957  0.7292206244056202  0.1846355485773188  1.0000
  C   C20       1.0  0.1503852088993298  0.2707837194136147  0.684636518773786  1.0000
  S   S1        1.0  0.48463944833147815  0.12158745439865727  0.11277765190138211  1.0000
  S   S2        1.0  0.015361240196035873  0.8784121392022539  0.612778390830222  1.0000
  S   S3        1.0  0.5153553169525366  0.8784095129822089  0.887221612836406  1.0000
  S   S4        1.0  0.9846389793025097  0.12158790750045508  0.3872222272318666  1.0000
  S   S5        1.0  0.7504901865656634  0.33820613827420226  0.0534678811404632  1.0000
  S   S6        1.0  0.7495110839868317  0.661793528534254  0.5534668230016138  1.0000
  S   S7        1.0  0.24950977079888054  0.6617908054516659  0.946536796881759  1.0000
  S   S8        1.0  0.2504904335359441  0.33820651224588255  0.4465331183986478  1.0000
  N   N1        1.0  0.473138732494391  0.2567316942430651  0.9552228599578286  1.0000
  N   N2        1.0  0.026865418265280976  0.7432667155572827  0.4552223558541328  1.0000
  N   N3        1.0  0.5268640830539724  0.7432683406115572  0.0447757281196459  1.0000
  N   N4        1.0  0.97313869530457  0.2567333133806499  0.5447769088834776  1.0000
  Cl  Cl1       1.0  0.05663625909996029  0.415439197384046  0.2143940144608223  1.0000
  Cl  Cl2       1.0  0.4433653178420514  0.5845612737546162  0.7143964756387433  1.0000
  Cl  Cl3       1.0  0.943363785648039  0.5845587806556695  0.7856066035974507  1.0000
  Cl  Cl4       1.0  0.5566336910102763  0.41543981319627915  0.2856034657651136  1.0000
  Cl  Cl5       1.0  0.007896699965357397  0.042834595431152395  0.16389548433900097  1.0000
  Cl  Cl6       1.0  0.49210629118397964  0.9571643964117552  0.6638952352136798  1.0000
  Cl  Cl7       1.0  0.9921010108600113  0.9571664974481989  0.8361064870486175  1.0000
  Cl  Cl8       1.0  0.5078979971350678  0.04283770119210569  0.3361047061887135  1.0000
