data_image0
_chemical_formula_structural       CdH28C26N4O8
_chemical_formula_sum              "Cd1 H28 C26 N4 O8"
_cell_length_a       7.488685150256811
_cell_length_b       8.68015290452045
_cell_length_c       11.122742964329944
_cell_angle_alpha    95.28068073853137
_cell_angle_beta     102.52628580299532
_cell_angle_gamma    111.50549404063301

_space_group_name_H-M_alt    "P 1"
_space_group_IT_number       1

loop_
  _space_group_symop_operation_xyz
  'x, y, z'

loop_
  _atom_site_type_symbol
  _atom_site_label
  _atom_site_symmetry_multiplicity
  _atom_site_fract_x
  _atom_site_fract_y
  _atom_site_fract_z
  _atom_site_occupancy
  Cd  Cd1       1.0  7.883910484012717e-07  2.1227091199901022e-07  0.9999998715349745  1.0000
  H   H1        1.0  0.6688870530993257  0.32125380466555936  0.8867357695763045  1.0000
  H   H2        1.0  0.33111198728236235  0.6787457592890005  0.11326523675106864  1.0000
  H   H3        1.0  0.5402688895687857  0.23154561060269427  0.11096124787411545  1.0000
  H   H4        1.0  0.4597276303554451  0.7684514104002387  0.8890374107769073  1.0000
  H   H5        1.0  0.7882259738551554  0.6831665891613525  0.7427259644734219  1.0000
  H   H6        1.0  0.2117771784646152  0.3168329928830572  0.2572756731688201  1.0000
  H   H7        1.0  0.018756726898587296  0.663859636656035  0.7986085829512175  1.0000
  H   H8        1.0  0.9812450432870037  0.33613994690238497  0.20139374210540942  1.0000
  H   H9        1.0  0.8988509762513246  0.8617646195461434  0.253743331584772  1.0000
  H   H10       1.0  0.10114689134262277  0.13823242257466714  0.7462573332099037  1.0000
  H   H11       1.0  0.20992891117136736  0.0738157728879898  0.4232679924388591  1.0000
  H   H12       1.0  0.7900768535110814  0.9261862917563517  0.5767288100582987  1.0000
  H   H13       1.0  0.5682767577547311  0.3682833865196216  0.3241827202114819  1.0000
  H   H14       1.0  0.43172052344534956  0.6317123946843065  0.6758177738168383  1.0000
  H   H15       1.0  0.743572384379739  0.6772758415299903  0.39520242600859473  1.0000
  H   H16       1.0  0.2564262789545282  0.3227199381599277  0.6047973806053333  1.0000
  H   H17       1.0  0.7368475902745858  0.3135567917919602  0.5381560709051242  1.0000
  H   H18       1.0  0.26315204798912367  0.6864440255355079  0.4618442083359253  1.0000
  H   H19       1.0  0.9538917766219372  0.5073402277705413  0.5906739844657662  1.0000
  H   H20       1.0  0.046106479507585556  0.49266059107093696  0.4093269821896752  1.0000
  H   H21       1.0  0.7112310826551536  0.5116559457621364  0.5414100150938309  1.0000
  H   H22       1.0  0.2887671734743761  0.48834487307934177  0.4585909515616037  1.0000
  H   H23       1.0  0.6555164547842196  0.9098869196662704  0.34639534617914325  1.0000
  H   H24       1.0  0.3444879047877478  0.0901151615800018  0.6536039394377651  1.0000
  H   H25       1.0  0.6831581094978958  0.06906407635920427  0.9941631992425426  1.0000
  H   H26       1.0  0.3168411517183856  0.9309329567036357  0.005835880285054907  1.0000
  H   H27       1.0  0.6490147446461236  0.9910397678937101  0.11609581607945064  1.0000
  H   H28       1.0  0.3509876463977903  0.008961053949704496  0.8839039861855011  1.0000
  C   C1        1.0  0.8174458112199686  0.5877046316929792  0.9113992273882443  1.0000
  C   C2        1.0  0.18255128360997466  0.41229365777078897  0.08860049988180654  1.0000
  C   C3        1.0  0.7070195204200971  0.4711032612305459  0.06434408184131964  1.0000
  C   C4        1.0  0.29297346247175676  0.5288950101433655  0.9356550141138623  1.0000
  C   C5        1.0  0.6192427798956359  0.3670797718015563  0.14186619398099504  1.0000
  C   C6        1.0  0.38075216003611706  0.63291976651918  0.8581332831788299  1.0000
  C   C7        1.0  0.4253688443546935  0.9916319730154726  0.3709544124989533  1.0000
  C   C8        1.0  0.5746399927146227  0.008373918129251498  0.6290476019989482  1.0000
  C   C9        1.0  0.8564363642491131  0.6011631295931749  0.7864149039866246  1.0000
  C   C10       1.0  0.1435638489203085  0.3988389561951279  0.2135864438734528  1.0000
  C   C11       1.0  0.3426810449920622  0.9813934107500086  0.23315644419250953  1.0000
  C   C12       1.0  0.657318802618093  0.01860488322969899  0.7668428061014436  1.0000
  C   C13       1.0  0.8046377833311168  0.6486985921609187  0.10301142137564052  1.0000
  C   C14       1.0  0.19535440382042418  0.35130094164387765  0.8969885327602893  1.0000
  C   C15       1.0  0.8202462361775956  0.7256142207582245  0.22315123289175176  1.0000
  C   C16       1.0  0.1797481173602904  0.274384056645637  0.7768480735017247  1.0000
  C   C17       1.0  0.3369348665261498  0.041408409966528795  0.45791114601019683  1.0000
  C   C18       1.0  0.6630761943702695  0.9585961870574521  0.5420857314818547  1.0000
  C   C19       1.0  0.6357342058645442  0.44551561784909666  0.26120036531255403  1.0000
  C   C20       1.0  0.36426014767333464  0.5544826595547718  0.7387989410809224  1.0000
  C   C21       1.0  0.7350880177849533  0.6214523670617779  0.3011979277754334  1.0000
  C   C22       1.0  0.26490771788711237  0.37854590882808026  0.6988006912036508  1.0000
  C   C23       1.0  0.7959765443540758  0.443576720375411  0.589237555372925  1.0000
  C   C24       1.0  0.20402444157934946  0.556424118069934  0.41076473001177033  1.0000
  C   C25       1.0  0.5893047394254579  0.9504829532387259  0.4144051122064949  1.0000
  C   C26       1.0  0.41070491636047984  0.04952166038719239  0.5855942484053072  1.0000
  N   N1        1.0  0.8706515829019493  0.7175274459883664  0.004689049046177689  1.0000
  N   N2        1.0  0.12934335702980349  0.28247209233236953  0.9953104281136473  1.0000
  N   N3        1.0  0.7202698957193263  0.4381361365103371  0.9430333255884302  1.0000
  N   N4        1.0  0.2797264263466062  0.5618634002963887  0.05696546415700248  1.0000
  O   O1        1.0  0.21238591289734637  0.041829089729176906  0.2028349962485619  1.0000
  O   O2        1.0  0.7876155032171325  0.9581666944766878  0.7971643333892683  1.0000
  O   O3        1.0  0.753241088184417  0.05509842233607289  0.07758957974929358  1.0000
  O   O4        1.0  0.24675912498500446  0.9449036634522371  0.9224117681107838  1.0000
  O   O5        1.0  0.4089536202423146  0.913716032713573  0.1548155737846811  1.0000
  O   O6        1.0  0.5910468137617002  0.08628352218301669  0.8451838472756279  1.0000
  O   O7        1.0  0.7750539047798455  0.436636114862111  0.7127308095979286  1.0000
  O   O8        1.0  0.22494650624786755  0.5633634551223989  0.2872704071677389  1.0000
