data_image0
_chemical_formula_structural       K4H16C24N4O12
_chemical_formula_sum              "K4 H16 C24 N4 O12"
_cell_length_a       3.6660332361892984
_cell_length_b       7.615438568747602
_cell_length_c       24.137842993082508
_cell_angle_alpha    90.00021647357701
_cell_angle_beta     89.99976938234374
_cell_angle_gamma    94.90987069439954

_space_group_name_H-M_alt    "P 1"
_space_group_IT_number       1

loop_
  _space_group_symop_operation_xyz
  'x, y, z'

loop_
  _atom_site_type_symbol
  _atom_site_label
  _atom_site_symmetry_multiplicity
  _atom_site_fract_x
  _atom_site_fract_y
  _atom_site_fract_z
  _atom_site_occupancy
  K   K1        1.0  0.542759827554562  0.2098694583318519  0.9740513655224138  1.0000
  K   K2        1.0  0.957227208602639  0.2901305452028566  0.47405010297809025  1.0000
  K   K3        1.0  0.45722617458748976  0.7901295297598168  0.025950452042273812  1.0000
  K   K4        1.0  0.04278581232018301  0.7098670624571994  0.5259508860028748  1.0000
  H   H1        1.0  0.12681681916679827  0.14218698282645187  0.8590519500081658  1.0000
  H   H2        1.0  0.37317403146634837  0.3578144562541752  0.35905206372315496  1.0000
  H   H3        1.0  0.8731937224115924  0.8578119490230662  0.14094862468713393  1.0000
  H   H4        1.0  0.6268124652064844  0.6421871677128478  0.6409476824068252  1.0000
  H   H5        1.0  0.3744410869023228  0.05600026425125999  0.7690102212626687  1.0000
  H   H6        1.0  0.1255576198773198  0.4440014928267715  0.26901059276786304  1.0000
  H   H7        1.0  0.6255640014712966  0.9439986800949921  0.23099035343435056  1.0000
  H   H8        1.0  0.8744348245112263  0.5560027545279524  0.7309887390745974  1.0000
  H   H9        1.0  0.4488169337040873  0.740469963980786  0.747664457423021  1.0000
  H   H10       1.0  0.051179333240988015  0.7595317205614762  0.2476646551459752  1.0000
  H   H11       1.0  0.5511797276193137  0.2595276811626803  0.25233528870141003  1.0000
  H   H12       1.0  0.9488188116102807  0.24047383223759763  0.7523342624082546  1.0000
  H   H13       1.0  0.2677493095803456  0.5111467952531753  0.8185601071279225  1.0000
  H   H14       1.0  0.23225294534406518  0.9888530121438491  0.31856087975728553  1.0000
  H   H15       1.0  0.7322391719358947  0.48885086863540295  0.18143963899907337  1.0000
  H   H16       1.0  0.7677613118536402  0.011151185228456496  0.6814392806527823  1.0000
  C   C1        1.0  0.057300630576584397  0.879459475590842  0.8934332802395917  1.0000
  C   C2        1.0  0.44268892540416965  0.6205411778998451  0.3934334814091758  1.0000
  C   C3        1.0  0.9426990045922709  0.12053948125215898  0.10656729445913984  1.0000
  C   C4        1.0  0.5573082304202472  0.3794591031326107  0.6065666790038977  1.0000
  C   C5        1.0  0.15981618955491678  0.004122650555402199  0.850114024649095  1.0000
  C   C6        1.0  0.3401803282589669  0.4958786780132201  0.3501147381673278  1.0000
  C   C7        1.0  0.8401886515706707  0.9958749758452256  0.14988613575998505  1.0000
  C   C8        1.0  0.6598170748134893  0.5041229209648606  0.6498858365336775  1.0000
  C   C9        1.0  0.2956766892748561  0.9553730882670453  0.7999062527510862  1.0000
  C   C10       1.0  0.2043205590483907  0.5446265270524863  0.2999060980548195  1.0000
  C   C11       1.0  0.7043308784531208  0.0446245318852121  0.20009390765714138  1.0000
  C   C12       1.0  0.7956748592054483  0.45537903199268465  0.7000924052130417  1.0000
  C   C13       1.0  0.3391305692850537  0.7768381675115492  0.7875404874546492  1.0000
  C   C14       1.0  0.16087069069388352  0.7231665777263815  0.287540987434575  1.0000
  C   C15       1.0  0.6608663392814124  0.22316079557982246  0.2124600872449421  1.0000
  C   C16       1.0  0.8391438137419343  0.2768389375961036  0.7124604158378746  1.0000
  C   C17       1.0  0.2404677011589058  0.6501143835278071  0.8265049847591545  1.0000
  C   C18       1.0  0.25953386906306974  0.8498828751051662  0.32650474579214983  1.0000
  C   C19       1.0  0.7595289601644879  0.349883261615659  0.17349476136526937  1.0000
  C   C20       1.0  0.7404736986946573  0.15011474503346287  0.6734929288927276  1.0000
  C   C21       1.0  0.09192488399282442  0.6960544197148907  0.8781542470273893  1.0000
  C   C22       1.0  0.408073712098954  0.8039486833575679  0.3781542745894485  1.0000
  C   C23       1.0  0.9080692979712597  0.30394454962484463  0.12184632767304754  1.0000
  C   C24       1.0  0.5919323653015172  0.19605553275530951  0.6218450572487273  1.0000
  N   N1        1.0  0.9794346419814843  0.5561731888211341  0.9140357168513237  1.0000
  N   N2        1.0  0.5205704608432671  0.9438289102571958  0.414035739524799  1.0000
  N   N3        1.0  0.020556566137138105  0.4438244688190736  0.08596402927481252  1.0000
  N   N4        1.0  0.47944652296178  0.05617528086447271  0.5859640065971805  1.0000
  O   O1        1.0  0.959076929834147  0.9327877559241312  0.9412185758166489  1.0000
  O   O2        1.0  0.5409133946826472  0.5672120366145775  0.4412189645736505  1.0000
  O   O3        1.0  0.04093088514185441  0.06721118217375732  0.05878199887951752  1.0000
  O   O4        1.0  0.4590835138937451  0.4327869264722466  0.5587807815514836  1.0000
  O   O5        1.0  0.05986195713641249  0.4009492478818544  0.9028248851135249  1.0000
  O   O6        1.0  0.4401553588085676  0.09905392669628549  0.40282464792696276  1.0000
  O   O7        1.0  0.9401210711750565  0.5990484285034653  0.09717486101518352  1.0000
  O   O8        1.0  0.5598727786689254  0.9009515573707176  0.5971742696178455  1.0000
  O   O9        1.0  0.793184946565006  0.5822900856822527  0.956692874847349  1.0000
  O   O10       1.0  0.7068161611398834  0.9177111695083368  0.4566935784245346  1.0000
  O   O11       1.0  0.2068065088066149  0.4177088899013129  0.0433068712795048  1.0000
  O   O12       1.0  0.29319239560005883  0.08229172241735226  0.543306581986535  1.0000
