data_image0
_chemical_formula_structural       Cu2H8C6N6Cl2
_chemical_formula_sum              "Cu2 H8 C6 N6 Cl2"
_cell_length_a       6.478321127923748
_cell_length_b       6.505606313707993
_cell_length_c       6.8882116132163596
_cell_angle_alpha    81.80932142583993
_cell_angle_beta     67.94449655076451
_cell_angle_gamma    86.9117757312068

_space_group_name_H-M_alt    "P 1"
_space_group_IT_number       1

loop_
  _space_group_symop_operation_xyz
  'x, y, z'

loop_
  _atom_site_type_symbol
  _atom_site_label
  _atom_site_symmetry_multiplicity
  _atom_site_fract_x
  _atom_site_fract_y
  _atom_site_fract_z
  _atom_site_occupancy
  Cu  Cu1       1.0  0.5119675458241488  0.2722601995050624  0.9697151647144366  1.0000
  Cu  Cu2       1.0  0.48800855634242873  0.7277496717751292  0.03030557827253235  1.0000
  H   H1        1.0  0.23840793757085527  0.3580744668134842  0.6346846202601951  1.0000
  H   H2        1.0  0.7615987439155703  0.6419231664675493  0.36530425068764333  1.0000
  H   H3        1.0  0.1102378049628427  0.7156464384063455  0.8231531819908113  1.0000
  H   H4        1.0  0.8897736661156447  0.2843652055314152  0.17683654323808173  1.0000
  H   H5        1.0  0.9277349817204268  0.21972128490093473  0.5614195503607391  1.0000
  H   H6        1.0  0.0722546965030659  0.780268483001521  0.4385949798083999  1.0000
  H   H7        1.0  0.8049848966337406  0.9813583105700167  0.7155627273999271  1.0000
  H   H8        1.0  0.19501963567502398  0.018636215282100504  0.2844505182939372  1.0000
  C   C1        1.0  0.24852148319509132  0.19977157532994033  0.7052074862315365  1.0000
  C   C2        1.0  0.7514882490950682  0.8002493754222967  0.2947815686828079  1.0000
  C   C3        1.0  0.18485486588141237  0.8675590668804392  0.7986992525745791  1.0000
  C   C4        1.0  0.8151536403152447  0.13241838901084443  0.2012917261713272  1.0000
  C   C5        1.0  0.9587494739711387  0.05435836627676591  0.5987084073955559  1.0000
  C   C6        1.0  0.0412321249666761  0.9456484228974631  0.40128912127508437  1.0000
  N   N1        1.0  0.37530109644571047  0.1294612733538543  0.8130918696769953  1.0000
  N   N2        1.0  0.6247021125011187  0.8705503153176011  0.18689773934499956  1.0000
  N   N3        1.0  0.33626361316465386  0.9162829370842049  0.8704259948546706  1.0000
  N   N4        1.0  0.6637431904311626  0.083719352117555  0.12955494683433955  1.0000
  N   N5        1.0  0.1258431272446927  0.040924258995588  0.6946284527836895  1.0000
  N   N6        1.0  0.8741816655978027  0.9590672862000463  0.3053667607385009  1.0000
  Cl  Cl1       1.0  0.22440604440484443  0.46159979884128444  0.21026976847295484  1.0000
  Cl  Cl2       1.0  0.7755769213198817  0.538408559308806  0.7897401567787482  1.0000
