data_image0
_chemical_formula_structural       Fe2H8C12N8
_chemical_formula_sum              "Fe2 H8 C12 N8"
_cell_length_a       6.950797013322779
_cell_length_b       9.16417215754445
_cell_length_c       9.164091695979184
_cell_angle_alpha    90.0291500559716
_cell_angle_beta     90.00065874710347
_cell_angle_gamma    90.0003015375376

_space_group_name_H-M_alt    "P 1"
_space_group_IT_number       1

loop_
  _space_group_symop_operation_xyz
  'x, y, z'

loop_
  _atom_site_type_symbol
  _atom_site_label
  _atom_site_symmetry_multiplicity
  _atom_site_fract_x
  _atom_site_fract_y
  _atom_site_fract_z
  _atom_site_occupancy
  Fe  Fe1       1.0  0.7500013146404639  0.5000029107876357  0.50000113778475  1.0000
  Fe  Fe2       1.0  0.24999534500728518  0.5000033344806738  0.4999935615240999  1.0000
  H   H1        1.0  0.811423081665545  0.500929276847998  0.14911627673424727  1.0000
  H   H2        1.0  0.8114215754362916  0.499075885637936  0.8508878796878321  1.0000
  H   H3        1.0  0.31144987129960094  0.1491100769753899  0.5009004048074884  1.0000
  H   H4        1.0  0.3114519033700772  0.8508970261900687  0.4990896894596588  1.0000
  H   H5        1.0  0.18854774917782888  0.5009052544405748  0.1491024842972379  1.0000
  H   H6        1.0  0.18855055908165497  0.49908571275233987  0.8508871418123645  1.0000
  H   H7        1.0  0.6885798780546608  0.8508885225886332  0.49908993889640385  1.0000
  H   H8        1.0  0.6885778461034633  0.14910816862274603  0.5009290180832835  1.0000
  C   C1        1.0  0.49998369530844394  0.4999137577153904  0.07907461287118168  1.0000
  C   C2        1.0  0.49998706803323495  0.5000826721615541  0.9209233715427557  1.0000
  C   C3        1.0  1.5018590772799998e-05  0.0790747679236006  0.4999195610334439  1.0000
  C   C4        1.0  1.4301101678899998e-05  0.9209269168849943  0.5000883640892794  1.0000
  C   C5        1.0  0.6587701832317875  0.4998896464967757  0.1741010358166761  1.0000
  C   C6        1.0  0.6587684785591393  0.500106798952693  0.8258957142543224  1.0000
  C   C7        1.0  0.15879832966397342  0.17410409680265806  0.49988337531097937  1.0000
  C   C8        1.0  0.1587974497553617  0.8258986781553619  0.5001134932327886  1.0000
  C   C9        1.0  0.34120660082559334  0.49988962724543745  0.1741000877573171  1.0000
  C   C10       1.0  0.3411991414087296  0.5001122301633885  0.8258914860539974  1.0000
  C   C11       1.0  0.8412299810503612  0.825899975402102  0.5001167828595923  1.0000
  C   C12       1.0  0.8412279836267443  0.1741010458435355  0.4998964910215236  1.0000
  N   N1        1.0  0.5984395331752097  0.4995568676952686  0.3141489468188468  1.0000
  N   N2        1.0  0.5984410230316825  0.5004467991085376  0.6858502935241404  1.0000
  N   N3        1.0  0.09844997313758336  0.3141520677730867  0.49954478129261304  1.0000
  N   N4        1.0  0.09845604962808349  0.6858513738128522  0.5004502202109008  1.0000
  N   N5        1.0  0.40154556584945306  0.49955836415470156  0.31414986308686815  1.0000
  N   N6        1.0  0.4015470556753157  0.5004482826392119  0.6858435712871866  1.0000
  N   N7        1.0  0.9015610733642274  0.6858509113196192  0.5004542868439827  1.0000
  N   N8        1.0  0.9015578742606748  0.3141483409109114  0.4995543078945701  1.0000
