data_image0
_chemical_formula_structural       Ag4H28C20N24O8
_chemical_formula_sum              "Ag4 H28 C20 N24 O8"
_cell_length_a       7.063970594026813
_cell_length_b       10.078896024555519
_cell_length_c       11.621961904374697
_cell_angle_alpha    109.33371827449395
_cell_angle_beta     90.00021947126946
_cell_angle_gamma    90.0001420112356

_space_group_name_H-M_alt    "P 1"
_space_group_IT_number       1

loop_
  _space_group_symop_operation_xyz
  'x, y, z'

loop_
  _atom_site_type_symbol
  _atom_site_label
  _atom_site_symmetry_multiplicity
  _atom_site_fract_x
  _atom_site_fract_y
  _atom_site_fract_z
  _atom_site_occupancy
  Ag  Ag1       1.0  0.8044803201431348  0.10800741870399122  0.6267000658968769  1.0000
  Ag  Ag2       1.0  0.30447810369517475  0.3919907662912863  0.8732992649932497  1.0000
  Ag  Ag3       1.0  0.19551602694497922  0.8919892228936848  0.37329902927166353  1.0000
  Ag  Ag4       1.0  0.6955168277671716  0.6080100910431767  0.12670021308856858  1.0000
  H   H1        1.0  0.11016945392007219  0.4170068612860476  0.3845051674038372  1.0000
  H   H2        1.0  0.610172926805859  0.0829949284563298  0.1154965172722839  1.0000
  H   H3        1.0  0.889826893199263  0.5830013459345125  0.6154973389426529  1.0000
  H   H4        1.0  0.38983191408645723  0.9170038461678657  0.8845006255854243  1.0000
  H   H5        1.0  0.6063454710319076  0.7893491834028905  0.7496969887353444  1.0000
  H   H6        1.0  0.10634466803264787  0.7106519886738099  0.7503017193332084  1.0000
  H   H7        1.0  0.3936565386024498  0.21065061246392244  0.25030303676342663  1.0000
  H   H8        1.0  0.8936573416048431  0.28935098156943434  0.24969752146117224  1.0000
  H   H9        1.0  0.6689182191299067  0.9563761458031124  0.7481970674929315  1.0000
  H   H10       1.0  0.1689182506282663  0.5436231078721789  0.751801218725312  1.0000
  H   H11       1.0  0.3310837905014664  0.043621537165350305  0.25180319530448964  1.0000
  H   H12       1.0  0.8310880059096916  0.4563788109570623  0.2481977119687215  1.0000
  H   H13       1.0  0.5098834022372855  0.4614598268049618  0.25095740568710306  1.0000
  H   H14       1.0  0.009883398327893596  0.03853642028811069  0.2490415530173635  1.0000
  H   H15       1.0  0.4901214386659375  0.5385399690660223  0.7490426198161585  1.0000
  H   H16       1.0  0.9901186113006445  0.961460211260082  0.7509583996729745  1.0000
  H   H17       1.0  0.489207056751681  0.43779834070579665  0.3944041838456157  1.0000
  H   H18       1.0  0.9892061467026139  0.062200380706599404  0.1055957469607378  1.0000
  H   H19       1.0  0.510793537245405  0.5622004037386645  0.6055955315438266  1.0000
  H   H20       1.0  0.010793031665720298  0.9378004665762988  0.8944045886406328  1.0000
  H   H21       1.0  0.6931252942281957  0.9031733370883402  0.24288838020746784  1.0000
  H   H22       1.0  0.19312413172973916  0.5968249384941513  0.2571088294380246  1.0000
  H   H23       1.0  0.30687813104343314  0.0968275102008107  0.7571119554006316  1.0000
  H   H24       1.0  0.8068792935251564  0.4031717232296046  0.7428885507160885  1.0000
  H   H25       1.0  0.7624492221419813  0.03865601569181361  0.37674786506385516  1.0000
  H   H26       1.0  0.26244991901916137  0.46134308875741686  0.12325165700468692  1.0000
  H   H27       1.0  0.23754712496316438  0.9613469344274322  0.6232530907472053  1.0000
  H   H28       1.0  0.737549259343197  0.5386535327287874  0.8767491531939838  1.0000
  C   C1        1.0  0.6266310163268682  0.812421903391133  0.5796280068506617  1.0000
  C   C2        1.0  0.12663262119826155  0.6875793184244544  0.9203716230419586  1.0000
  C   C3        1.0  0.37336816206880746  0.18758202774777288  0.420379261661729  1.0000
  C   C4        1.0  0.8733679727825387  0.3124184248888682  0.07962349467628368  1.0000
  C   C5        1.0  0.5716907795674259  0.6357579713203662  0.39979121613041  1.0000
  C   C6        1.0  0.07169381886813397  0.8642420290558162  0.10020794380070437  1.0000
  C   C7        1.0  0.4283069831634946  0.3642407630620923  0.6002093567673654  1.0000
  C   C8        1.0  0.9283039438576991  0.1357588483984671  0.8997898192599507  1.0000
  C   C9        1.0  0.6759427187843412  0.8513503539315579  0.3971214929396965  1.0000
  C   C10       1.0  0.17594501260622755  0.6486467994731842  0.10287706715917015  1.0000
  C   C11       1.0  0.3240536283151271  0.1486504933471693  0.6028788426571907  1.0000
  C   C12       1.0  0.8240527501217015  0.3513498220109312  0.8971237430372552  1.0000
  C   C13       1.0  0.9296421063805197  0.306680119469469  0.47855648676519985  1.0000
  C   C14       1.0  0.4296454596223498  0.19331945768163913  0.02144528035315571  1.0000
  C   C15       1.0  0.07035707201231388  0.6933227602491738  0.5214504716401078  1.0000
  C   C16       1.0  0.5703622125253814  0.8066793672358514  0.9785475749449188  1.0000
  C   C17       1.0  0.018065726417049198  0.43442121608678963  0.4634179048638173  1.0000
  C   C18       1.0  0.518070055100182  0.0655781892758185  0.0365837251332977  1.0000
  C   C19       1.0  0.9819320363358272  0.5655806222673334  0.5365878859193387  1.0000
  C   C20       1.0  0.4819347857951185  0.9344226982467205  0.9634131804257606  1.0000
  N   N1        1.0  0.6844922181346929  0.9026456551292839  0.5213929298123077  1.0000
  N   N2        1.0  0.18449387166698727  0.5973536444539319  0.9786054057798024  1.0000
  N   N3        1.0  0.31550554459622043  0.09735307925318179  0.4786076430854678  1.0000
  N   N4        1.0  0.8155038910560035  0.40264618158008864  0.021392047173762294  1.0000
  N   N5        1.0  0.5681153538287019  0.6805249026419843  0.52259406873155  1.0000
  N   N6        1.0  0.06811920083055868  0.8194750852195014  0.9774059230692271  1.0000
  N   N7        1.0  0.43188099326240337  0.3194738518540419  0.47740478913833334  1.0000
  N   N8        1.0  0.9318799775513751  0.18052677325236027  0.022598152690527177  1.0000
  N   N9        1.0  0.6249341377500384  0.7170567263485735  0.3325829132265311  1.0000
  N   N10       1.0  0.12493448266383918  0.7829423795421846  0.1674161053805676  1.0000
  N   N11       1.0  0.37506645625287405  0.282945182414494  0.6674168749713445  1.0000
  N   N12       1.0  0.8750632800585619  0.2170532005794925  0.8325835371959514  1.0000
  N   N13       1.0  0.6254550882586896  0.8572583790782814  0.701539265659072  1.0000
  N   N14       1.0  0.12545718047744708  0.6427428292140647  0.7984612180193196  1.0000
  N   N15       1.0  0.37454267446131695  0.14273933405739567  0.29845842459315  1.0000
  N   N16       1.0  0.8745448291791716  0.35726219358057426  0.20154293055335865  1.0000
  N   N17       1.0  0.5213645615449208  0.5024893812149855  0.3432992765284624  1.0000
  N   N18       1.0  0.021367013135069595  0.9975094093419299  0.1567002712677804  1.0000
  N   N19       1.0  0.4786360324494722  0.4975093732873005  0.6566995813481568  1.0000
  N   N20       1.0  0.9786335808647096  0.0024893250447064023  0.8433003016344854  1.0000
  N   N21       1.0  0.7217865762353027  0.9360157507752901  0.33450380659523665  1.0000
  N   N22       1.0  0.2217875504207143  0.5639825891759926  0.16549520893872938  1.0000
  N   N23       1.0  0.2782097708670078  0.06398614792369271  0.6654968391087337  1.0000
  N   N24       1.0  0.7782087966672575  0.4360129909436026  0.8345044336355439  1.0000
  O   O1        1.0  0.8932507342234003  0.30758069945520117  0.5864422077628645  1.0000
  O   O2        1.0  0.3932523131914606  0.19241877850775782  0.9135594296780596  1.0000
  O   O3        1.0  0.10674561287591897  0.6924190863454315  0.4135586752397558  1.0000
  O   O4        1.0  0.6067539433408128  0.8075810374809579  0.0864388808018006  1.0000
  O   O5        1.0  0.8967465215611338  0.20494654664423004  0.38110408523143485  1.0000
  O   O6        1.0  0.39675084984250464  0.29505294360392736  0.11889672009299797  1.0000
  O   O7        1.0  0.10324982554371327  0.7950542805188406  0.6188979653910991  1.0000
  O   O8        1.0  0.6032554066875305  0.7049500668768756  0.8810990906568249  1.0000
