data_image0
_chemical_formula_structural       Cu2H16C20N20
_chemical_formula_sum              "Cu2 H16 C20 N20"
_cell_length_a       7.453636539072242
_cell_length_b       9.274981597440895
_cell_length_c       9.659445448612889
_cell_angle_alpha    102.52214494684036
_cell_angle_beta     90.0005015261568
_cell_angle_gamma    89.99989697857224

_space_group_name_H-M_alt    "P 1"
_space_group_IT_number       1

loop_
  _space_group_symop_operation_xyz
  'x, y, z'

loop_
  _atom_site_type_symbol
  _atom_site_label
  _atom_site_symmetry_multiplicity
  _atom_site_fract_x
  _atom_site_fract_y
  _atom_site_fract_z
  _atom_site_occupancy
  Cu  Cu1       1.0  0.9999995718798899  0.49999848004431885  0.4999984663413103  1.0000
  Cu  Cu2       1.0  0.49999832637880803  0.500001108676699  0.9999986979438449  1.0000
  H   H1        1.0  0.7265597181850225  0.992919744345549  0.4857162953043144  1.0000
  H   H2        1.0  0.22656464828378378  0.0070821123754143  0.014287004891215802  1.0000
  H   H3        1.0  0.27343586505005396  0.007081686640710002  0.5142849323046478  1.0000
  H   H4        1.0  0.7734376431096306  0.9929215624725388  0.9857188143517492  1.0000
  H   H5        1.0  0.7757092019554718  0.258910596258346  0.6335959826250745  1.0000
  H   H6        1.0  0.27571242169779003  0.7410893048292096  0.8664029662103945  1.0000
  H   H7        1.0  0.22428638126208966  0.7410908084418749  0.36640213384085746  1.0000
  H   H8        1.0  0.7242858447912894  0.2589154393771125  0.13359892653835462  1.0000
  H   H9        1.0  0.8764838771387886  0.9573062952040347  0.24515637236464735  1.0000
  H   H10       1.0  0.3764914397148971  0.0426889510505148  0.25484661949091253  1.0000
  H   H11       1.0  0.12351304773493868  0.042690735679755704  0.7548460425033883  1.0000
  H   H12       1.0  0.6235175598134788  0.9573080973579451  0.7451578695136335  1.0000
  H   H13       1.0  0.03296888273096239  0.22627983670066956  0.23727008065563385  1.0000
  H   H14       1.0  0.5329726656773701  0.7737131816654781  0.26273220039669815  1.0000
  H   H15       1.0  0.9670347502718998  0.7737149766081829  0.7627308537671597  1.0000
  H   H16       1.0  0.46702828406566244  0.2262816228812241  0.7372676969692764  1.0000
  C   C1        1.0  0.8264114213566528  0.2155056421256774  0.5277166019429133  1.0000
  C   C2        1.0  0.32641573717923916  0.7844953775325293  0.9722839512504111  1.0000
  C   C3        1.0  0.17358684512072386  0.7844935625234155  0.47228210815941213  1.0000
  C   C4        1.0  0.6735838709426716  0.21550827102923617  0.027718756840378906  1.0000
  C   C5        1.0  0.8805746144072158  0.05973096593945121  0.3241552983265095  1.0000
  C   C6        1.0  0.3805846271112969  0.9402664720403279  0.17584609074573618  1.0000
  C   C7        1.0  0.11942365208767569  0.9402660561824021  0.6758460794984205  1.0000
  C   C8        1.0  0.6194216891514158  0.05973387206388742  0.8241569892849513  1.0000
  C   C9        1.0  0.9571370744750495  0.1938030547392628  0.32123875694537674  1.0000
  C   C10       1.0  0.457144739361894  0.8061921738222466  0.17876167351543876  1.0000
  C   C11       1.0  0.04286253364099219  0.8061917498073684  0.6787611404160219  1.0000
  C   C12       1.0  0.5428588936351416  0.19380483953787583  0.8212386672801062  1.0000
  C   C13       1.0  0.8999920944529619  0.5624514359093455  0.20677268220215697  1.0000
  C   C14       1.0  0.39999249063700393  0.43754479458790735  0.29321617290830204  1.0000
  C   C15       1.0  0.10000751363972428  0.43754222918258995  0.7932228452583134  1.0000
  C   C16       1.0  0.6000098007155471  0.5624599233325897  0.7067826087111371  1.0000
  C   C17       1.0  0.8611147059777267  0.7135933992092092  0.048493060121451506  1.0000
  C   C18       1.0  0.3611132033023948  0.28640946234770587  0.45149789729562434  1.0000
  C   C19       1.0  0.13888087725150194  0.2864058142017499  0.9515066870194037  1.0000
  C   C20       1.0  0.6388877464231656  0.7135963599793627  0.5485011060294482  1.0000
  N   N1        1.0  0.9219172949328254  0.28990384426669646  0.4490705885562748  1.0000
  N   N2        1.0  0.4219210518385808  0.7100935805934653  0.05092900819907703  1.0000
  N   N3        1.0  0.0780809715503779  0.7100920559244841  0.5509284934630828  1.0000
  N   N4        1.0  0.5780772146446438  0.28990563281763576  0.94907073895093  1.0000
  N   N5        1.0  0.7990379495901081  0.07604839762137063  0.4543799251613478  1.0000
  N   N6        1.0  0.2990451889197275  0.9239523448910634  0.04562157326225972  1.0000
  N   N7        1.0  0.2009603169047907  0.9239508333137609  0.5456218960840077  1.0000
  N   N8        1.0  0.7009584440890039  0.07605131243293782  0.9543821718899254  1.0000
  N   N9        1.0  0.9562283296103686  0.518639544522543  0.3040584695580436  1.0000
  N   N10       1.0  0.45623155474244464  0.481353440080575  0.19593736308231516  1.0000
  N   N11       1.0  0.0437699368494791  0.4813530074006636  0.6959357991399602  1.0000
  N   N12       1.0  0.5437693949714273  0.5186479470958999  0.8040586793065502  1.0000
  N   N13       1.0  0.8317415189131124  0.5941635202721259  0.09453910045373703  1.0000
  N   N14       1.0  0.3317432523698827  0.4058349643389718  0.4054559551585229  1.0000
  N   N15       1.0  0.16825406430444187  0.40583567561481  0.9054585725917692  1.0000
  N   N16       1.0  0.6682630638753507  0.5941730843256963  0.5945455657006279  1.0000
  N   N17       1.0  0.8755652390994227  0.8178478170216296  0.997823591030752  1.0000
  N   N18       1.0  0.37556561266311655  0.1821476332680518  0.5021699663540178  1.0000
  N   N19       1.0  0.12442900250280789  0.18215250079590112  0.0021763778157505944  1.0000
  N   N20       1.0  0.6244272873004635  0.8178570846519476  0.4978288152334117  1.0000
