data_image0
_chemical_formula_structural       Cd2H28C32N16O8
_chemical_formula_sum              "Cd2 H28 C32 N16 O8"
_cell_length_a       8.134145104269056
_cell_length_b       10.65235403567218
_cell_length_c       10.659031813028056
_cell_angle_alpha    73.43602169757187
_cell_angle_beta     78.75466519735849
_cell_angle_gamma    83.06956059811098

_space_group_name_H-M_alt    "P 1"
_space_group_IT_number       1

loop_
  _space_group_symop_operation_xyz
  'x, y, z'

loop_
  _atom_site_type_symbol
  _atom_site_label
  _atom_site_symmetry_multiplicity
  _atom_site_fract_x
  _atom_site_fract_y
  _atom_site_fract_z
  _atom_site_occupancy
  Cd  Cd1       1.0  0.7177969472671322  0.7733702233437327  0.7873461058899598  1.0000
  Cd  Cd2       1.0  0.28220428898038097  0.2266306743305648  0.21265313883286302  1.0000
  H   H1        1.0  0.28663649579269895  0.9070210741285224  0.4537948918371913  1.0000
  H   H2        1.0  0.7133637438324384  0.0929768793153087  0.5462053379631018  1.0000
  H   H3        1.0  0.3294333624382944  0.6776072185414109  0.861140276092762  1.0000
  H   H4        1.0  0.6705641134498277  0.32239368147696007  0.1388604661828056  1.0000
  H   H5        1.0  0.816238735786463  0.020639221533663495  0.9447839926335038  1.0000
  H   H6        1.0  0.1837680292624881  0.9793557791233735  0.05521891889936385  1.0000
  H   H7        1.0  0.1130811565884784  0.14942564369917483  0.8363694748398206  1.0000
  H   H8        1.0  0.8869227580217828  0.8505732883835221  0.16362992953408917  1.0000
  H   H9        1.0  0.3187685797746979  0.16366177880563268  0.6154123607601181  1.0000
  H   H10       1.0  0.6812273861835222  0.8363420659743922  0.3845896459426258  1.0000
  H   H11       1.0  0.3302001744117717  0.0389099323018769  0.5379105092252561  1.0000
  H   H12       1.0  0.6697995521713265  0.9610939093604429  0.46209093827685904  1.0000
  H   H13       1.0  0.9167398925038696  0.6409775321386703  0.5019416172631851  1.0000
  H   H14       1.0  0.08325900820538118  0.35902140332732546  0.4980594710636838  1.0000
  H   H15       1.0  0.35182587699188866  0.5026968341983888  0.587921308216821  1.0000
  H   H16       1.0  0.6481708284039838  0.49731290085544805  0.4120779763790667  1.0000
  H   H17       1.0  0.23729307685634637  0.5898848328763435  0.703018578318542  1.0000
  H   H18       1.0  0.7627067351010123  0.41011802780305123  0.29698219705721146  1.0000
  H   H19       1.0  0.04011158666241241  0.5677316050368546  0.248119258020772  1.0000
  H   H20       1.0  0.9598851487261368  0.4322634078022531  0.7518804529531882  1.0000
  H   H21       1.0  0.14632469737144757  0.7828632890933561  0.035533344475062754  1.0000
  H   H22       1.0  0.8536706137269476  0.21713368675084863  0.9644678971518279  1.0000
  H   H23       1.0  0.22317192425092713  0.7353125098238917  0.3543469003327859  1.0000
  H   H24       1.0  0.7768272333775668  0.2646834803724047  0.6456549866713462  1.0000
  H   H25       1.0  0.4883942978559687  0.28828394449998734  0.6662189977943103  1.0000
  H   H26       1.0  0.5116046015258606  0.711714994834203  0.3337773987719716  1.0000
  H   H27       1.0  0.4882324978712018  0.1106793300528892  0.9181506630209175  1.0000
  H   H28       1.0  0.5117736666375736  0.8893225459946732  0.08184663152319877  1.0000
  C   C1        1.0  0.9128719740577436  0.010568743097557799  0.8615041445158345  1.0000
  C   C2        1.0  0.0871264979217941  0.9894351026985573  0.13849373597802392  1.0000
  C   C3        1.0  0.057148902518918  0.0760996055242416  0.8086775372697165  1.0000
  C   C4        1.0  0.9428513371062193  0.9238983479195894  0.19132269253057652  1.0000
  C   C5        1.0  0.3056097979820577  0.057919367105320405  0.6358292940581693  1.0000
  C   C6        1.0  0.6943899283355603  0.9420844753306383  0.3641712150918297  1.0000
  C   C7        1.0  0.4366904050244143  0.9789136132934998  0.7188456270300496  1.0000
  C   C8        1.0  0.5633144205684745  0.021089244776234792  0.28115252604062857  1.0000
  C   C9        1.0  0.04167655716794633  0.9335810542622196  0.6963418601506393  1.0000
  C   C10       1.0  0.9583261044316557  0.06641787731243201  0.30365960732771674  1.0000
  C   C11       1.0  0.06324036056081891  0.8541982111060448  0.6032847576766546  1.0000
  C   C12       1.0  0.936760875155734  0.14580268811553043  0.3967126103419291  1.0000
  C   C13       1.0  0.9953166719663281  0.7099666857268117  0.5151930234670916  1.0000
  C   C14       1.0  0.004684735826167198  0.29003224766071156  0.4848076920593557  1.0000
  C   C15       1.0  0.35644391919456797  0.5358494234391883  0.6754736018615904  1.0000
  C   C16       1.0  0.6435546394866518  0.4641534375058002  0.32452829826648616  1.0000
  C   C17       1.0  0.5038993219191424  0.6248469357816403  0.6468151600668012  1.0000
  C   C18       1.0  0.49609405264349954  0.37515788896523355  0.3531916449711901  1.0000
  C   C19       1.0  0.33403296379181296  0.40277978315702967  0.9180233280933908  1.0000
  C   C20       1.0  0.6659669322123988  0.5972221004076205  0.08197208339542073  1.0000
  C   C21       1.0  0.25098551686954096  0.49634238205846504  0.9883772112108322  1.0000
  C   C22       1.0  0.749010961334271  0.5036555768239878  0.011620762733741793  1.0000
  C   C23       1.0  0.1122989730746653  0.5705563035240004  0.15039993830236403  1.0000
  C   C24       1.0  0.8877001837573743  0.4294396889932132  0.8495991336454128  1.0000
  C   C25       1.0  0.16169839053956284  0.6783005867331297  0.04682388812084073  1.0000
  C   C26       1.0  0.838297005933093  0.3216954081281429  0.9531766813796883  1.0000
  C   C27       1.0  0.14564630252903038  0.7559834806108441  0.4420182086313391  1.0000
  C   C28       1.0  0.8543503485471787  0.24401251011664724  0.5579859278774465  1.0000
  C   C29       1.0  0.4480623095513607  0.2988172688011161  0.7659562599411346  1.0000
  C   C30       1.0  0.5519375008131033  0.701185596520112  0.23403888532191552  1.0000
  C   C31       1.0  0.4443831151208356  0.21337843334411846  0.8906897661261728  1.0000
  C   C32       1.0  0.5556204563994669  0.7866244273121198  0.10930669664048759  1.0000
  N   N1        1.0  0.9051835588636477  0.922437329250336  0.791661911781553  1.0000
  N   N2        1.0  0.09482044191732089  0.07756061952851208  0.20833963552235002  1.0000
  N   N3        1.0  0.9452041561115295  0.7717546997118558  0.6141553812708623  1.0000
  N   N4        1.0  0.0547947445977144  0.2282442357541399  0.38584570705600657  1.0000
  N   N5        1.0  0.13655586927810495  0.028196996487757496  0.7035595905020957  1.0000
  N   N6        1.0  0.8634481312373835  0.971800953064729  0.2964410184496915  1.0000
  N   N7        1.0  0.18754515272682673  0.8463252123021546  0.4987727228609486  1.0000
  N   N8        1.0  0.8124550012585627  0.1536737228982403  0.5012272407135969  1.0000
  N   N9        1.0  0.3733628338581738  0.2788715379574498  0.9839056888706071  1.0000
  N   N10       1.0  0.6266396553999981  0.7211293602248929  0.016091492747776256  1.0000
  N   N11       1.0  0.16871538233026223  0.45720942750823923  0.1132893893131879  1.0000
  N   N12       1.0  0.8312825206946781  0.5427865668218387  0.8867089306826872  1.0000
  N   N13       1.0  0.2489907475875056  0.629452374649425  0.945344899066342  1.0000
  N   N14       1.0  0.7510043919659066  0.37054656548155407  0.05465487175691668  1.0000
  N   N15       1.0  0.37729498217562  0.4184707327407011  0.7842104833323733  1.0000
  N   N16       1.0  0.6227012388434687  0.5815301721850973  0.21578575358282143  1.0000
  O   O1        1.0  0.39199855329326977  0.917785553371793  0.8372006990273849  1.0000
  O   O2        1.0  0.6080088647571313  0.08221632163653679  0.16279640911651694  1.0000
  O   O3        1.0  0.5891842162685917  0.9807694758319698  0.6559914327048801  1.0000
  O   O4        1.0  0.41081952626572615  0.019231422084772  0.34400462416117267  1.0000
  O   O5        1.0  0.6068378828475856  0.6359292216527592  0.5414413959531289  1.0000
  O   O6        1.0  0.39315873823595376  0.3640814912894541  0.4585623141775843  1.0000
  O   O7        1.0  0.5055160154815893  0.6799887379577427  0.7393886520398855  1.0000
  O   O8        1.0  0.4944882432805642  0.32000626245685027  0.260617447349752  1.0000
