data_image0
_chemical_formula_structural       Co2H38C52N6O10
_chemical_formula_sum              "Co2 H38 C52 N6 O10"
_cell_length_a       8.719445401652376
_cell_length_b       8.742408658805893
_cell_length_c       15.49995244384754
_cell_angle_alpha    99.45019861965504
_cell_angle_beta     89.86749488735042
_cell_angle_gamma    112.1141976903346

_space_group_name_H-M_alt    "P 1"
_space_group_IT_number       1

loop_
  _space_group_symop_operation_xyz
  'x, y, z'

loop_
  _atom_site_type_symbol
  _atom_site_label
  _atom_site_symmetry_multiplicity
  _atom_site_fract_x
  _atom_site_fract_y
  _atom_site_fract_z
  _atom_site_occupancy
  Co  Co1       1.0  0.3360622896306396  0.8736361452770965  0.625495791153611  1.0000
  Co  Co2       1.0  0.6639361776249758  0.12636456576786503  0.3745036895104619  1.0000
  H   H1        1.0  0.776464382704617  0.43864170370497396  0.6551283577881931  1.0000
  H   H2        1.0  0.22353132974291162  0.5613489100268724  0.34487337530103446  1.0000
  H   H3        1.0  0.23763758587187314  0.9636892644612872  0.4466062958341368  1.0000
  H   H4        1.0  0.7623552393222751  0.03631769342411669  0.5534002406371101  1.0000
  H   H5        1.0  0.9815923718650766  0.864858601418611  0.3465871269531675  1.0000
  H   H6        1.0  0.018402261131804192  0.1351470898363303  0.6534186417238814  1.0000
  H   H7        1.0  0.7249760348996829  0.6349229139709393  0.3827724349144717  1.0000
  H   H8        1.0  0.27502144120214217  0.3650752469526709  0.6172293806995128  1.0000
  H   H9        1.0  0.7318545333770743  0.5213059077077349  0.5193781240765459  1.0000
  H   H10       1.0  0.26814246550068077  0.4786910094048409  0.48062292646294946  1.0000
  H   H11       1.0  0.8012100704891196  0.3133350400396324  0.8122914823841398  1.0000
  H   H12       1.0  0.1987913042593731  0.6866643200493171  0.1877117384079412  1.0000
  H   H13       1.0  0.9986898856178855  0.37359998014962065  0.9412862229780429  1.0000
  H   H14       1.0  0.001312267748723195  0.6264043874262841  0.058718771105553506  1.0000
  H   H15       1.0  0.2772491521211792  0.5968494622442507  0.952838926376124  1.0000
  H   H16       1.0  0.7227554743374754  0.40315238348043897  0.04716453347893429  1.0000
  H   H17       1.0  0.37862180186156985  0.7610485205153663  0.831612850171858  1.0000
  H   H18       1.0  0.621379585122142  0.2389508604066819  0.1683890822539169  1.0000
  H   H19       1.0  0.31269293890300526  0.09048740932954763  0.8111239568459752  1.0000
  H   H20       1.0  0.6873062058771494  0.9095120673277536  0.18887346901745158  1.0000
  H   H21       1.0  0.32810931462111625  0.2126093716638664  0.9668542334290959  1.0000
  H   H22       1.0  0.6718944063302458  0.787390069771128  0.03314254281177399  1.0000
  H   H23       1.0  0.664016382332612  0.690068515226102  0.9117631505943962  1.0000
  H   H24       1.0  0.3359925678440732  0.30992961493273435  0.08823349795588337  1.0000
  H   H25       1.0  0.6444000718431012  0.5667443400234192  0.7573262861805858  1.0000
  H   H26       1.0  0.3556064174767429  0.4332563328197311  0.2426706082319257  1.0000
  H   H27       1.0  0.6137301928483011  0.05076476496394382  0.8811734731122911  1.0000
  H   H28       1.0  0.38626746999359085  0.9492397836659238  0.11882315202976199  1.0000
  H   H29       1.0  0.7809341481578755  0.09924873685618252  0.017758195806074198  1.0000
  H   H30       1.0  0.2190645946961709  0.9007645829365529  0.9822412108445276  1.0000
  H   H31       1.0  0.09498694245571224  0.8780224195905436  0.8747937465811191  1.0000
  H   H32       1.0  0.9050097231147802  0.12197956850143044  0.1252058576939916  1.0000
  H   H33       1.0  0.9314456121268221  0.8413642548475052  0.738728713914945  1.0000
  H   H34       1.0  0.06854777114547518  0.15863519552599567  0.2612738722129393  1.0000
  H   H35       1.0  0.4565985172381701  0.7596948157020408  0.4742621166159111  1.0000
  H   H36       1.0  0.5434012867137028  0.2403033953179659  0.5257351869963215  1.0000
  H   H37       1.0  0.5673320445925683  0.7936377404937431  0.5730766831799626  1.0000
  H   H38       1.0  0.4326667926759455  0.2063579620711025  0.4269203786495837  1.0000
  C   C1        1.0  0.12352340779933266  0.8660579502425138  0.4605096457790552  1.0000
  C   C2        1.0  0.876473528577165  0.13394774944263327  0.53949418762884  1.0000
  C   C3        1.0  0.9805847086652049  0.8098088989313296  0.4047763835059897  1.0000
  C   C4        1.0  0.0194071743160151  0.19019559216508952  0.595227334449973  1.0000
  C   C5        1.0  0.8380296010345488  0.6832700556273679  0.42530158575056015  1.0000
  C   C6        1.0  0.1619680386621027  0.31672556459826506  0.5747012750871933  1.0000
  C   C7        1.0  0.8414008837597534  0.6190161000554184  0.5013419663829524  1.0000
  C   C8        1.0  0.1585966548433291  0.3809732782956061  0.4986570663626253  1.0000
  C   C9        1.0  0.9890635527288437  0.6829267620130538  0.5539870259553793  1.0000
  C   C10       1.0  0.010934570309487397  0.31707011244015604  0.4460159557737171  1.0000
  C   C11       1.0  0.012019705639836845  0.6299171784549601  0.6351024350430876  1.0000
  C   C12       1.0  0.9879792585178606  0.3700759209126262  0.3648995371091245  1.0000
  C   C13       1.0  0.9799792529530649  0.5078139633925004  0.7515287738755559  1.0000
  C   C14       1.0  0.020023163215256466  0.4921791434121303  0.24847061746449833  1.0000
  C   C15       1.0  0.9249135949910963  0.4109123988832907  0.8169718069933294  1.0000
  C   C16       1.0  0.07508911033605166  0.5890844507641619  0.1830298809300572  1.0000
  C   C17       1.0  0.036044373493460576  0.44612465930494943  0.8886460572288968  1.0000
  C   C18       1.0  0.9639574907143286  0.5538759654281337  0.1113566402713744  1.0000
  C   C19       1.0  0.19627028622198142  0.5727582000438505  0.8946896099680615  1.0000
  C   C20       1.0  0.8037302535247619  0.4272449455472795  0.10531397621775078  1.0000
  C   C21       1.0  0.25370436027616705  0.6657801192612851  0.8282988271719061  1.0000
  C   C22       1.0  0.7462924505363374  0.3342192968830703  0.1717037548764253  1.0000
  C   C23       1.0  0.14315366828051168  0.6319681897932201  0.7557411160026958  1.0000
  C   C24       1.0  0.8568455972712242  0.3680286732502792  0.2442618643665426  1.0000
  C   C25       1.0  0.4681840376341881  0.239907238190078  0.6799394534067529  1.0000
  C   C26       1.0  0.5318224700384774  0.7600934659027132  0.32005550845630637  1.0000
  C   C27       1.0  0.4778836093796741  0.3190674309535951  0.7735027370147093  1.0000
  C   C28       1.0  0.5221215996275602  0.6809269489253822  0.2264941957643885  1.0000
  C   C29       1.0  0.38911154326640224  0.22204528918114622  0.834144173345436  1.0000
  C   C30       1.0  0.6108972494330658  0.777955392092217  0.16585078579792165  1.0000
  C   C31       1.0  0.3991982858363697  0.2920595969996072  0.9220196741308512  1.0000
  C   C32       1.0  0.6008061065219295  0.7079385996311841  0.07797569149252578  1.0000
  C   C33       1.0  0.4972970425430958  0.4622830004525227  0.9532673230501771  1.0000
  C   C34       1.0  0.5027176324358039  0.5377150934908457  0.0467280303345419  1.0000
  C   C35       1.0  0.5865323917629084  0.5579911846541209  0.8916409199736179  1.0000
  C   C36       1.0  0.41347883732297674  0.44200691226875227  0.1083563700400987  1.0000
  C   C37       1.0  0.5764329290276108  0.4883969134069589  0.8035336760990929  1.0000
  C   C38       1.0  0.42357620309671506  0.5115987073035555  0.1964620851254963  1.0000
  C   C39       1.0  0.6545032756483522  0.8989762440924097  0.7173304787098971  1.0000
  C   C40       1.0  0.3454937599350388  0.101020735519441  0.2826667067306943  1.0000
  C   C41       1.0  0.7599251059020561  0.9394942403700032  0.8008018828432739  1.0000
  C   C42       1.0  0.24006830184067238  0.0605052516696816  0.19919812655200528  1.0000
  C   C43       1.0  0.720173060197034  0.013742799579759398  0.8803919628866764  1.0000
  C   C44       1.0  0.2798234356610365  0.9862617187936352  0.11960724034782538  1.0000
  C   C45       1.0  0.8151279321172993  0.039822840390641503  0.9575358778955518  1.0000
  C   C46       1.0  0.18487311544154744  0.9601816010942557  0.04246525244899857  1.0000
  C   C47       1.0  0.9514918829775709  0.9899511260579177  0.9587716251939327  1.0000
  C   C48       1.0  0.04850672207725639  0.0100558893609275  0.04122781846339759  1.0000
  C   C49       1.0  0.9914179783686732  0.918957384915373  0.8779402508799947  1.0000
  C   C50       1.0  0.0085794902903658  0.0810496523297317  0.1220585499540476  1.0000
  C   C51       1.0  0.8989019102701405  0.896053695847222  0.8007028491160071  1.0000
  C   C52       1.0  0.1010896896698625  0.10394706282292533  0.19929792807347008  1.0000
  N   N1        1.0  0.1291403784640153  0.8038805799174045  0.5334832743797833  1.0000
  N   N2        1.0  0.870853494267571  0.19612013510022316  0.466518788456291  1.0000
  N   N3        1.0  0.1592310035379185  0.7051160945867923  0.6816202122914845  1.0000
  N   N4        1.0  0.8407677847897402  0.2948795246456727  0.3183820030032648  1.0000
  N   N5        1.0  0.9015433967340271  0.5109537207256808  0.6747380450988558  1.0000
  N   N6        1.0  0.09845798413207522  0.4890456497798184  0.32526453151007223  1.0000
  O   O1        1.0  0.34484166072252254  0.10229139142315802  0.6530666004978584  1.0000
  O   O2        1.0  0.6551559837665478  0.8977131259570755  0.3469319571936467  1.0000
  O   O3        1.0  0.578612052638654  0.3118469041857779  0.6295808840818535  1.0000
  O   O4        1.0  0.42139299277375386  0.6881500163911696  0.3704150034734752  1.0000
  O   O5        1.0  0.5272619527641424  0.9392064738093424  0.7213579496880128  1.0000
  O   O6        1.0  0.472740581525393  0.06080179285758192  0.2786396782316558  1.0000
  O   O7        1.0  0.6964615187569476  0.82518050209665  0.6491262491527152  1.0000
  O   O8        1.0  0.30353615764534664  0.17481518062826504  0.35087274658613404  1.0000
  O   O9        1.0  0.46361440266879583  0.7896300645299165  0.5402090606464967  1.0000
  O   O10       1.0  0.536381326806378  0.2103694671896221  0.4597870809301837  1.0000
