data_image0
_chemical_formula_structural       Zn12H60C78N36O24
_chemical_formula_sum              "Zn12 H60 C78 N36 O24"
_cell_length_a       8.412527820531842
_cell_length_b       19.176510078994284
_cell_length_c       19.17782394035675
_cell_angle_alpha    117.89475757614183
_cell_angle_beta     98.40748869716644
_cell_angle_gamma    98.41120955857663

_space_group_name_H-M_alt    "P 1"
_space_group_IT_number       1

loop_
  _space_group_symop_operation_xyz
  'x, y, z'

loop_
  _atom_site_type_symbol
  _atom_site_label
  _atom_site_symmetry_multiplicity
  _atom_site_fract_x
  _atom_site_fract_y
  _atom_site_fract_z
  _atom_site_occupancy
  Zn  Zn1       1.0  0.3094699574518743  0.40636309963456807  0.4548990073569996  1.0000
  Zn  Zn2       1.0  0.9500605468887214  0.2992028068369947  0.48438178622681954  1.0000
  Zn  Zn3       1.0  0.9033366540747848  0.048455959371644014  0.593674492712772  1.0000
  Zn  Zn4       1.0  0.6511387465919397  0.18516999602125855  0.7008193707876416  1.0000
  Zn  Zn5       1.0  0.854749476475227  0.5452391772487389  0.9515199629711117  1.0000
  Zn  Zn6       1.0  0.46584992577247425  0.5155776927181037  0.8148610337347292  1.0000
  Zn  Zn7       1.0  0.6905275950256637  0.5936375966398657  0.5451028801811262  1.0000
  Zn  Zn8       1.0  0.04993519489119077  0.7007966722269501  0.515617851433241  1.0000
  Zn  Zn9       1.0  0.09666540028820945  0.9515441283605384  0.4063263557186615  1.0000
  Zn  Zn10      1.0  0.34886271459701845  0.8148313091056637  0.29918096637882025  1.0000
  Zn  Zn11      1.0  0.14525137601478386  0.454760910555244  0.04847976560112249  1.0000
  Zn  Zn12      1.0  0.534150029319733  0.4844230037785025  0.18513840070006182  1.0000
  H   H1        1.0  0.37650567705967564  0.19512800484422146  0.23394529207149625  1.0000
  H   H2        1.0  0.6617573446320792  0.17557061531925205  0.2401587630473117  1.0000
  H   H3        1.0  0.7568551370074914  0.0959794191903924  0.3031668958045445  1.0000
  H   H4        1.0  0.5584307744817422  0.032542795030067906  0.35449644282028453  1.0000
  H   H5        1.0  0.038528435402469106  0.09288653935524853  0.272490332344475  1.0000
  H   H6        1.0  0.11251666078504033  0.16725758038516153  0.2465873115820969  1.0000
  H   H7        1.0  0.48915921822555236  0.5206196027563906  0.6521209756543556  1.0000
  H   H8        1.0  0.1012536591054811  0.3821437668238659  0.6847631335372526  1.0000
  H   H9        1.0  0.9370704913774403  0.4839642411967945  0.5461441281975752  1.0000
  H   H10       1.0  0.5383053869207542  0.2746652097950388  0.4219235916105291  1.0000
  H   H11       1.0  0.1814631285542987  0.038875112925318006  0.8049123635908443  1.0000
  H   H12       1.0  0.4862721385722892  0.064635084382779  0.8244351082516701  1.0000
  H   H13       1.0  0.661010720016499  0.20721776403270556  0.9040068785111897  1.0000
  H   H14       1.0  0.5260787463702884  0.32200045653839027  0.9674186132439998  1.0000
  H   H15       1.0  0.9457509750945831  0.17964184189178672  0.9071286885220148  1.0000
  H   H16       1.0  0.9454878359315727  0.07936921656048672  0.8328376194902417  1.0000
  H   H17       1.0  0.968570105049082  0.13143627376017264  0.47932838417990803  1.0000
  H   H18       1.0  0.7190408114417793  0.30246717923601824  0.6177951547656164  1.0000
  H   H19       1.0  0.4535408054960469  0.062139980191901104  0.5160097956093281  1.0000
  H   H20       1.0  0.264045963648023  0.14724956169364836  0.7252871900462025  1.0000
  H   H21       1.0  0.142553294914002  0.7660898510336906  0.9612014710441981  1.0000
  H   H22       1.0  0.42147048301605156  0.7597931777823065  0.9353089766406412  1.0000
  H   H23       1.0  0.4533200226904628  0.6967203709493932  0.7926739807211336  1.0000
  H   H24       1.0  0.20340777129941048  0.6454154738419717  0.6780197812135141  1.0000
  H   H25       1.0  0.7658554397616939  0.7275622883865082  0.8204352866239617  1.0000
  H   H26       1.0  0.865741973398002  0.7535269704520928  0.920727696306983  1.0000
  H   H27       1.0  0.8372894131984266  0.3479267718389708  0.8686349373188875  1.0000
  H   H28       1.0  0.41680244464776445  0.3152825941979459  0.6975051678189672  1.0000
  H   H29       1.0  0.39081212421723427  0.45371051439597226  0.9378460363400336  1.0000
  H   H30       1.0  0.11679961134129259  0.5780745040775273  0.8527385964691662  1.0000
  H   H31       1.0  0.6234894557698923  0.8048702569780635  0.76605269414506  1.0000
  H   H32       1.0  0.338238092546966  0.8244282551644986  0.7598395274663544  1.0000
  H   H33       1.0  0.24314211049208015  0.9040206686257835  0.6968320803132854  1.0000
  H   H34       1.0  0.4415709752803779  0.9674566841219279  0.6455030584647617  1.0000
  H   H35       1.0  0.961469421424546  0.9071147655806586  0.7275118594907684  1.0000
  H   H36       1.0  0.8874835992851331  0.8327437245697099  0.7534150342729972  1.0000
  H   H37       1.0  0.5108365236800624  0.47937987626690426  0.3478791834303437  1.0000
  H   H38       1.0  0.8987408813042492  0.6178557121493072  0.31523746996216323  1.0000
  H   H39       1.0  0.06292614754888604  0.5160346292557991  0.4538547607506587  1.0000
  H   H40       1.0  0.4616885608177412  0.7253354864103089  0.5780785863224623  1.0000
  H   H41       1.0  0.8185395187313276  0.9611237574934112  0.19508795325628378  1.0000
  H   H42       1.0  0.5137299156650031  0.9353650033900395  0.17556521875512493  1.0000
  H   H43       1.0  0.3389880334541218  0.792782932454422  0.09599247891367924  1.0000
  H   H44       1.0  0.473919093926213  0.6779984140049748  0.03257930986487882  1.0000
  H   H45       1.0  0.05424957279455369  0.8203576373320092  0.09286969290383257  1.0000
  H   H46       1.0  0.05451120586081263  0.9206296540330001  0.16715985920393456  1.0000
  H   H47       1.0  0.031429241469879896  0.8685632053728585  0.520670963085287  1.0000
  H   H48       1.0  0.2809600411739341  0.6975329085273219  0.3822050952312568  1.0000
  H   H49       1.0  0.5464618574401996  0.9378613249038639  0.48399113999170157  1.0000
  H   H50       1.0  0.7359548890933922  0.8527505260290483  0.27471358137530894  1.0000
  H   H51       1.0  0.8574523643137368  0.23391023672694192  0.03879960841700842  1.0000
  H   H52       1.0  0.5785321637667734  0.24020569279898754  0.06468925450793958  1.0000
  H   H53       1.0  0.5466826242180716  0.3032784995912507  0.20732477185208606  1.0000
  H   H54       1.0  0.7965930811906006  0.3545846139620111  0.3219799473587273  1.0000
  H   H55       1.0  0.2341475277754199  0.2724396252894438  0.17956699612346227  1.0000
  H   H56       1.0  0.13426309290709784  0.2464743346219934  0.07927391473852913  1.0000
  H   H57       1.0  0.16270934064930026  0.6520739245262277  0.13136598437989014  1.0000
  H   H58       1.0  0.5831975106958395  0.6847181022173815  0.30249530946509406  1.0000
  H   H59       1.0  0.6091893369717241  0.5462907907309501  0.06215430082642838  1.0000
  H   H60       1.0  0.8832006483517887  0.42192680099927327  0.1472621851120124  1.0000
  C   C1        1.0  0.3593831089992888  0.0805132228093726  0.3260981886372889  1.0000
  C   C2        1.0  0.30587738049047186  0.12703244319597937  0.2919536868782231  1.0000
  C   C3        1.0  0.4169983473287999  0.1592331380263516  0.2604123089286574  1.0000
  C   C4        1.0  0.5775785897580831  0.14813625834398178  0.26368160475177393  1.0000
  C   C5        1.0  0.6304578348906203  0.10312772933249191  0.2984349324035875  1.0000
  C   C6        1.0  0.5210959820811283  0.0691851267285131  0.3284965425988701  1.0000
  C   C7        1.0  0.250574532204304  0.04042152371238222  0.3587957711387304  1.0000
  C   C8        1.0  0.1383256361061811  0.14597195160450133  0.2904748109455539  1.0000
  C   C9        1.0  0.1294650862093789  0.21502339946435717  0.3722114359198727  1.0000
  C   C10       1.0  0.37610878688606414  0.47689626324759615  0.6404448527719564  1.0000
  C   C11       1.0  0.1797161673224892  0.4068587629479837  0.6573823480909837  1.0000
  C   C12       1.0  0.8145149914092045  0.4432235066461346  0.516422270612729  1.0000
  C   C13       1.0  0.613264782865393  0.33676017167527317  0.45335014528932754  1.0000
  C   C14       1.0  0.2790251700969293  0.24562125011794228  0.9194702985796184  1.0000
  C   C15       1.0  0.17900403569836237  0.1649562734405379  0.8729870038433205  1.0000
  C   C16       1.0  0.25789718862872485  0.10122539307059951  0.8407890269257693  1.0000
  C   C17       1.0  0.4295598024453753  0.11559161927647212  0.8518719669510018  1.0000
  C   C18       1.0  0.5274575565373567  0.1953460972500594  0.8968691789710875  1.0000
  C   C19       1.0  0.45206749711572053  0.2593605333372864  0.93079778759639  1.0000
  C   C20       1.0  0.21018627534736112  0.31837230486825524  0.9595141901763782  1.0000
  C   C21       1.0  0.992521880051001  0.1445244535252641  0.8540748229842591  1.0000
  C   C22       1.0  0.914639021591583  0.15713888605095866  0.7849713048480922  1.0000
  C   C23       1.0  0.8992309301601011  0.16345347663433785  0.5230461837956213  1.0000
  C   C24       1.0  0.7728243567199796  0.2503879869267606  0.5930706240672662  1.0000
  C   C25       1.0  0.3716902140945423  0.07317601164709943  0.5567373084014164  1.0000
  C   C26       1.0  0.27686443053787  0.11658859618844286  0.663190650724168  1.0000
  C   C27       1.0  0.03297216722451429  0.6738996888125544  0.7544665021248278  1.0000
  C   C28       1.0  0.013743730275322753  0.7080992139960218  0.8351394309684537  1.0000
  C   C29       1.0  0.15648222004369228  0.7396190829176563  0.8988324664641283  1.0000
  C   C30       1.0  0.3137134036979532  0.7362884872182321  0.8843945023021574  1.0000
  C   C31       1.0  0.3317003799231131  0.7015039338186925  0.8046134681244083  1.0000
  C   C32       1.0  0.19221848514159495  0.6714486138094601  0.7406661922873993  1.0000
  C   C33       1.0  0.8913051809116581  0.6411486719589948  0.6817335123729579  1.0000
  C   C34       1.0  0.8476872789995865  0.7096172888833863  0.8555746000583254  1.0000
  C   C35       1.0  0.7571593836206673  0.6278553923983665  0.8428737736521651  1.0000
  C   C36       1.0  0.7359160507977691  0.3595963833452346  0.8365873392147022  1.0000
  C   C37       1.0  0.522638388480516  0.34264742508020885  0.7495937672100723  1.0000
  C   C38       1.0  0.29807109081939137  0.4834588695899031  0.9267859805726388  1.0000
  C   C39       1.0  0.1601356761266928  0.5466129809984254  0.8834040210335061  1.0000
  C   C40       1.0  0.6406159332958977  0.919485647621549  0.6739013757554275  1.0000
  C   C41       1.0  0.6941219662798802  0.8729670358557658  0.7080467032362493  1.0000
  C   C42       1.0  0.5829982915975195  0.840765732426242  0.7395865800195693  1.0000
  C   C43       1.0  0.42241804904254104  0.8518626121492545  0.7363167627718212  1.0000
  C   C44       1.0  0.36954120715316935  0.8968711411797091  0.7015635891398591  1.0000
  C   C45       1.0  0.47890456593371056  0.9308143524546396  0.6715023602516155  1.0000
  C   C46       1.0  0.749425711712462  0.9595773467280184  0.6412038702639151  1.0000
  C   C47       1.0  0.8616740152650451  0.8540281360274308  0.7095269263153056  1.0000
  C   C48       1.0  0.8705357667834336  0.7849766881770537  0.6277903783509089  1.0000
  C   C49       1.0  0.6238869550195503  0.5231032157756987  0.35955530631274263  1.0000
  C   C50       1.0  0.8202795747088203  0.5931407160346753  0.34261833241835404  1.0000
  C   C51       1.0  0.18548135906966212  0.5567771897407425  0.48357797564156607  1.0000
  C   C52       1.0  0.3867288600208312  0.6632399160311665  0.5466496426479992  1.0000
  C   C53       1.0  0.7209750734427374  0.7543776204443875  0.08052777854911147  1.0000
  C   C54       1.0  0.8209953108205993  0.835043205692493  0.1270123434218746  1.0000
  C   C55       1.0  0.7421033596375112  0.8987740860312672  0.1592109187739865  1.0000
  C   C56       1.0  0.570441050296033  0.884408468446225  0.14812880447050986  1.0000
  C   C57       1.0  0.4725423986805525  0.8046545992059111  0.10313077688833523  1.0000
  C   C58       1.0  0.5479327464239462  0.7406383372250361  0.06920028953233988  1.0000
  C   C59       1.0  0.7898133753953687  0.6816277829668849  0.0404849399612958  1.0000
  C   C60       1.0  0.007478075041206111  0.8554762429713424  0.14592461145053204  1.0000
  C   C61       1.0  0.08536093362632609  0.8428618104050116  0.2150286510113304  1.0000
  C   C62       1.0  0.10076992245561199  0.8365466111290019  0.4769540662012517  1.0000
  C   C63       1.0  0.2271749899246771  0.7496114921656272  0.40692924462256735  1.0000
  C   C64       1.0  0.6283112472201181  0.9268252934391799  0.4432635501896841  1.0000
  C   C65       1.0  0.7231376238251244  0.8834114915437398  0.33681019770726556  1.0000
  C   C66       1.0  0.9670292939644441  0.32610161631436807  0.2455338350416411  1.0000
  C   C67       1.0  0.9862589324095197  0.2919020911810223  0.1648604617832987  1.0000
  C   C68       1.0  0.8435237431564175  0.26038161362636464  0.10116735302027989  1.0000
  C   C69       1.0  0.6862907494330271  0.26371099191208464  0.11560567442737829  1.0000
  C   C70       1.0  0.6683010656152321  0.29849493663119386  0.1953862502881591  1.0000
  C   C71       1.0  0.8077832647462272  0.3285508653018924  0.25933383042227837  1.0000
  C   C72       1.0  0.10869628027730734  0.3588526331679277  0.3182668247935112  1.0000
  C   C73       1.0  0.15231538393665292  0.2903840162123715  0.14442633554269696  1.0000
  C   C74       1.0  0.24284657945374738  0.3721453041862973  0.15712552440760422  1.0000
  C   C75       1.0  0.2640827029242487  0.6404043130606071  0.16341306105943695  1.0000
  C   C76       1.0  0.47736036524150893  0.6573532713256326  0.2504066330640669  1.0000
  C   C77       1.0  0.7019315719911461  0.5165424355464977  0.07321443360375213  1.0000
  C   C78       1.0  0.8398657850622725  0.45338832412849694  0.11659631613295578  1.0000
  N   N1        1.0  0.1452815716020694  0.3837711108670733  0.5783674923649045  1.0000
  N   N2        1.0  0.271474238660808  0.4287624079287938  0.5678340900068832  1.0000
  N   N3        1.0  0.3237049543039562  0.46481422113509313  0.6984561033936458  1.0000
  N   N4        1.0  0.5488093712183469  0.40060691578496943  0.46956787953994444  1.0000
  N   N5        1.0  0.677539172631711  0.468843445159287  0.5102240647281491  1.0000
  N   N6        1.0  0.7804074487200481  0.3610690203602758  0.4816901647208596  1.0000
  N   N7        1.0  0.761701168745482  0.1945030119297826  0.6162216449500802  1.0000
  N   N8        1.0  0.842926985724304  0.13900313719177154  0.5712436069657656  1.0000
  N   N9        1.0  0.8587393978489714  0.2335002746102077  0.5350771408463828  1.0000
  N   N10       1.0  0.148567628454586  0.06897295730680504  0.5993519528710891  1.0000
  N   N11       1.0  0.20907084235050627  0.04138144684026911  0.531119572524581  1.0000
  N   N12       1.0  0.41971774117408245  0.12060049736321332  0.6388905695629107  1.0000
  N   N13       1.0  0.5672373397380638  0.4216729918341572  0.805499141460217  1.0000
  N   N14       1.0  0.7039167048538173  0.43221643570313983  0.8610387643007512  1.0000
  N   N15       1.0  0.6255028304593537  0.30157422942737366  0.7665033069950837  1.0000
  N   N16       1.0  0.07937371184464588  0.5304422621621756  0.9310302961074371  1.0000
  N   N17       1.0  0.16726468501342134  0.48972046923356766  0.9585980209363214  1.0000
  N   N18       1.0  0.2988470487633846  0.5181945369750024  0.8793738055292621  1.0000
  N   N19       1.0  0.8547138660797698  0.6162277594541125  0.42163288384731595  1.0000
  N   N20       1.0  0.7285215033705085  0.571237071053858  0.43216659050244743  1.0000
  N   N21       1.0  0.6762919893489324  0.5351852578570445  0.301544654125614  1.0000
  N   N22       1.0  0.45118818113349596  0.5993937805301145  0.5304334865735498  1.0000
  N   N23       1.0  0.3224577708954826  0.5311560338734936  0.48977617136647916  1.0000
  N   N24       1.0  0.21958829305986424  0.638930458703669  0.518309472939201  1.0000
  N   N25       1.0  0.23830088549181033  0.8054970758430359  0.3837786820567146  1.0000
  N   N26       1.0  0.1570726652698228  0.8609969505620828  0.42875656602118556  1.0000
  N   N27       1.0  0.14125994866999045  0.7664992045228233  0.4649222064188123  1.0000
  N   N28       1.0  0.8514344259084011  0.9310271304253775  0.4006488955603444  1.0000
  N   N29       1.0  0.790931211886786  0.9586186409325494  0.46888075448221406  1.0000
  N   N30       1.0  0.580283415916803  0.8794001990209567  0.3611105061557112  1.0000
  N   N31       1.0  0.43276141385825895  0.5783277046123276  0.19450073738928356  1.0000
  N   N32       1.0  0.29608204886820755  0.5677842607027092  0.13896163597338787  1.0000
  N   N33       1.0  0.37449622773784347  0.6984270755993054  0.23349791900081138  1.0000
  N   N34       1.0  0.9206274451205445  0.4695584342626376  0.06897025818655317  1.0000
  N   N35       1.0  0.8327367761755368  0.5102808358933542  0.041402316230147514  1.0000
  N   N36       1.0  0.7011544125512756  0.4818067681112765  0.12062705306183831  1.0000
  O   O1        1.0  0.30391596250732544  0.9884139830239326  0.3754983790179339  1.0000
  O   O2        1.0  0.11123044730380369  0.05499682909501761  0.3692549528773554  1.0000
  O   O3        1.0  0.9832277125234297  0.21387019277818103  0.3852853672420693  1.0000
  O   O4        1.0  0.25812623560617715  0.26929259499411984  0.41970063682997955  1.0000
  O   O5        1.0  0.315479128829395  0.3870812312605524  0.011592871657100504  1.0000
  O   O6        1.0  0.05626751165795698  0.3142044325339484  0.9448484808000825  1.0000
  O   O7        1.0  0.7696116938272083  0.1714123280597235  0.7861362389896058  1.0000
  O   O8        1.0  0.9889825488376262  0.15024345801529657  0.7306592850115479  1.0000
  O   O9        1.0  0.9279473862299527  0.6245405443979309  0.6130272542981388  1.0000
  O   O10       1.0  0.7415671384679288  0.6305651042851182  0.6858758850065668  1.0000
  O   O11       1.0  0.5978427503241477  0.6147136335225413  0.8285809171264447  1.0000
  O   O12       1.0  0.8384045570200057  0.5804128539864024  0.8497084335377564  1.0000
  O   O13       1.0  0.696086091855669  0.011586104708250403  0.6245024694134997  1.0000
  O   O14       1.0  0.88876979648726  0.9450020413860261  0.6307441671006443  1.0000
  O   O15       1.0  0.016773733517709444  0.7861286775091332  0.6147164368690526  1.0000
  O   O16       1.0  0.7418755149101344  0.7307068839140244  0.580301993002891  1.0000
  O   O17       1.0  0.6845229249051031  0.6129188566748313  0.9884053696511473  1.0000
  O   O18       1.0  0.9437336453072263  0.6857962638908647  0.05515207349390042  1.0000
  O   O19       1.0  0.23039037593500222  0.8285901944307812  0.21386418534645213  1.0000
  O   O20       1.0  0.011019505148269155  0.8497566298388153  0.2693399991459772  1.0000
  O   O21       1.0  0.07205377073523073  0.3754601520268751  0.3869732999958444  1.0000
  O   O22       1.0  0.25843582856639097  0.36943680955339187  0.31412431204230273  1.0000
  O   O23       1.0  0.4021641101480711  0.3852864543694921  0.17141867507077543  1.0000
  O   O24       1.0  0.16159989995765764  0.41958723396795256  0.15028996179034243  1.0000
