data_image0
_chemical_formula_structural       Mg2H16C12N4O14
_chemical_formula_sum              "Mg2 H16 C12 N4 O14"
_cell_length_a       7.303329663987321
_cell_length_b       8.150264763571796
_cell_length_c       9.816229553365595
_cell_angle_alpha    65.47082359803406
_cell_angle_beta     78.00976007929093
_cell_angle_gamma    59.95481027707955

_space_group_name_H-M_alt    "P 1"
_space_group_IT_number       1

loop_
  _space_group_symop_operation_xyz
  'x, y, z'

loop_
  _atom_site_type_symbol
  _atom_site_label
  _atom_site_symmetry_multiplicity
  _atom_site_fract_x
  _atom_site_fract_y
  _atom_site_fract_z
  _atom_site_occupancy
  Mg  Mg1       1.0  0.9636546169912353  0.9334735035839544  0.21996526434556768  1.0000
  Mg  Mg2       1.0  0.46364055690111905  0.15354029120735654  0.7800613671020642  1.0000
  H   H1        1.0  0.999122770830908  0.3427901592818829  0.200366462254827  1.0000
  H   H2        1.0  0.4991358030370492  0.543139003171618  0.7996079805181465  1.0000
  H   H3        1.0  0.047350093919668254  0.450484300788567  0.3926432803870625  1.0000
  H   H4        1.0  0.5473463967781739  0.8432060320998789  0.6072445724237524  1.0000
  H   H5        1.0  0.5814596511811627  0.9658576639318712  0.2997075786414243  1.0000
  H   H6        1.0  0.08148795736143909  0.2655996212471622  0.7003342013060275  1.0000
  H   H7        1.0  0.5574914518881472  0.18781075341096445  0.2628817662975678  1.0000
  H   H8        1.0  0.05720422603020141  0.45080069296978553  0.7371323815160906  1.0000
  H   H9        1.0  0.0044666724582214275  0.22442180437639797  0.9396317472783479  1.0000
  H   H10       1.0  0.5044478060232364  0.16413579211170068  0.060504946669467936  1.0000
  H   H11       1.0  0.7779947899644455  0.31730152063232714  0.011170296092437538  1.0000
  H   H12       1.0  0.2779872162555819  0.328677568463718  0.9888821668877126  1.0000
  H   H13       1.0  0.8444079609306174  0.7258772776195956  0.13630323086662346  1.0000
  H   H14       1.0  0.3444931502632261  0.8623032639819501  0.8636928594075995  1.0000
  H   H15       1.0  0.03688121971591583  0.75662818582623  0.03850472583636829  1.0000
  H   H16       1.0  0.53686357570443  0.7951954445551054  0.9615983695076835  1.0000
  C   C1        1.0  0.0033823057090386632  0.25466519403261867  0.319686322407712  1.0000
  C   C2        1.0  0.5032360897333491  0.5744353126528524  0.6802947826988442  1.0000
  C   C3        1.0  0.026192924114383183  0.3157774440881911  0.4258611399963428  1.0000
  C   C4        1.0  0.5260261945698445  0.7417446407881205  0.5740730297874634  1.0000
  C   C5        1.0  0.9915463110702305  0.04642296973443668  0.6159367601689992  1.0000
  C   C6        1.0  0.4912494281511501  0.6624818850202561  0.38400677879121037  1.0000
  C   C7        1.0  0.9799301863555528  0.9795650395466641  0.5088446048142642  1.0000
  C   C8        1.0  0.47966408370901087  0.4885180956555574  0.4911411312851612  1.0000
  C   C9        1.0  0.9743962747618011  0.782155176322597  0.5497453135643581  1.0000
  C   C10       1.0  0.47442366370924555  0.33187544295929444  0.4502449453304464  1.0000
  C   C11       1.0  0.9635735985567703  0.9483590311303237  0.7825120140164472  1.0000
  C   C12       1.0  0.46334847099834753  0.7310374081291899  0.21741694426101077  1.0000
  N   N1        1.0  0.983193414741741  0.08592922671480366  0.36171117454055224  1.0000
  N   N2        1.0  0.48303094682997727  0.4477243658990488  0.6382544877416548  1.0000
  N   N3        1.0  0.018468552388938537  0.2125664657431018  0.5727827213825663  1.0000
  N   N4        1.0  0.5182183754002384  0.7854374765878802  0.42718105060125566  1.0000
  O   O1        1.0  0.6271966776016953  0.06963108868131242  0.22436007799731061  1.0000
  O   O2        1.0  0.12706323418382937  0.2941026753879329  0.7757098837065826  1.0000
  O   O3        1.0  0.9192159731052597  0.20289133431942474  0.03409796682382897  1.0000
  O   O4        1.0  0.4191855139070598  0.23709151869791642  0.966013943008768  1.0000
  O   O5        1.0  0.9750324113994606  0.7314542585952496  0.14208785286073305  1.0000
  O   O6        1.0  0.4750357681999444  0.8737386212268988  0.857992307293898  1.0000
  O   O7        1.0  0.9735928834638872  0.6800898650591023  0.6877007765713969  1.0000
  O   O8        1.0  0.4740964123232487  0.36757873911003003  0.3122645872703629  1.0000
  O   O9        1.0  0.9780978080418523  0.7337149766651834  0.44115733388555595  1.0000
  O   O10       1.0  0.47789609348957635  0.1749615714642588  0.5588344777658704  1.0000
  O   O11       1.0  0.7755000087306951  0.005873470050808375  0.8289533511855537  1.0000
  O   O12       1.0  0.2753127310858826  0.8350797056423719  0.17084732040473935  1.0000
  O   O13       1.0  0.12730595370482709  0.8285010108075497  0.8642566632247294  1.0000
  O   O14       1.0  0.6271551974408354  0.6927540820720425  0.1357949572199146  1.0000
