data_image0
_chemical_formula_structural       Zr6H4C48O32F24
_chemical_formula_sum              "Zr6 H4 C48 O32 F24"
_cell_length_a       14.866949622229141
_cell_length_b       14.866868380421403
_cell_length_c       14.866937703278632
_cell_angle_alpha    59.99986913812593
_cell_angle_beta     89.9997809610467
_cell_angle_gamma    120.00017291502648

_space_group_name_H-M_alt    "P 1"
_space_group_IT_number       1

loop_
  _space_group_symop_operation_xyz
  'x, y, z'

loop_
  _atom_site_type_symbol
  _atom_site_label
  _atom_site_symmetry_multiplicity
  _atom_site_fract_x
  _atom_site_fract_y
  _atom_site_fract_z
  _atom_site_occupancy
  Zr  Zr1       1.0  0.11902128106932958  1.5836316720425351e-06  0.119019792855255  1.0000
  Zr  Zr2       1.0  0.8809795199006416  1.4939058559225654e-06  0.880977781035064  1.0000
  Zr  Zr3       1.0  0.8809783781872935  0.7619564694679966  0.11902103296711894  1.0000
  Zr  Zr4       1.0  0.11902214568378612  0.23804683629611412  0.8809765875118244  1.0000
  Zr  Zr5       1.0  0.11902038231155393  9.348413883375074e-07  0.8809777652883284  1.0000
  Zr  Zr6       1.0  0.8809787947714158  1.4700531922368964e-06  0.11902075985644704  1.0000
  H   H1        1.0  0.09362385191798936  0.8127571285730679  0.09362004077721753  1.0000
  H   H2        1.0  0.09362275960040714  0.1872482989587141  0.7191271743134565  1.0000
  H   H3        1.0  0.7191298399485362  0.8127550174159879  0.09362045861526268  1.0000
  H   H4        1.0  0.09362253170437641  0.18724779755302023  0.09362116749223758  1.0000
  C   C1        1.0  0.3043590221257304  0.005074894664474788  0.997458470456749  1.0000
  C   C2        1.0  0.9974653903756373  0.9949265952744284  0.7007125897973694  1.0000
  C   C3        1.0  0.7007141614235477  0.005076180851311653  0.99746229424062  1.0000
  C   C4        1.0  0.9974614200916533  0.9949286550912009  0.304355261352505  1.0000
  C   C5        1.0  0.9974660914003548  0.6981868541176013  0.3043525505787414  1.0000
  C   C6        1.0  0.3043574353822296  0.30182005883123286  0.9974628050964539  1.0000
  C   C7        1.0  0.9974592699799488  0.30182301201026746  0.7007122967255411  1.0000
  C   C8        1.0  0.7007150977943226  0.6981811094154865  0.9974570092297768  1.0000
  C   C9        1.0  0.9974695112678298  0.6981864463060815  0.9974555732818969  1.0000
  C   C10       1.0  0.7007134171985144  0.6981815172140103  0.3043576283110951  1.0000
  C   C11       1.0  0.9974581622849922  0.30182062815094207  0.997465274574708  1.0000
  C   C12       1.0  0.30435854305103766  0.301819752121702  0.7007125177955871  1.0000
  C   C13       1.0  0.5985711831040773  0.0027280062151929913  0.9986358578038975  1.0000
  C   C14       1.0  0.40414746964184173  0.002721308803139042  0.9986340469605465  1.0000
  C   C15       1.0  0.5477383581209307  0.0015457919772999984  0.9189000501849378  1.0000
  C   C16       1.0  0.453818233388894  0.0015588331595707654  0.079545102709048  1.0000
  C   C17       1.0  0.4538048040353003  0.0015410974954690505  0.918901266683207  1.0000
  C   C18       1.0  0.5477410113406052  0.0015648729085526538  0.0795479360347359  1.0000
  C   C19       1.0  0.9986388644010445  0.997278501541075  0.5985676118516067  1.0000
  C   C20       1.0  0.9986394262056206  0.9972879263075001  0.40414338780573883  1.0000
  C   C21       1.0  0.9189008682752656  0.9984571563602601  0.547737004356641  1.0000
  C   C22       1.0  0.07955011730820896  0.9984502111483097  0.45381328068602733  1.0000
  C   C23       1.0  0.9189023715695225  0.9984642115026716  0.4538051060917995  1.0000
  C   C24       1.0  0.07955087675437486  0.9984438286698206  0.5477382077849525  1.0000
  C   C25       1.0  0.5985691679692521  0.5972112136915728  0.4041474983721613  1.0000
  C   C26       1.0  0.40414811019440566  0.4027927548016237  0.5985662158469437  1.0000
  C   C27       1.0  0.5477345693719898  0.6272921746740467  0.4538098138142956  1.0000
  C   C28       1.0  0.4538067875413674  0.3727077622366935  0.5477377172978137  1.0000
  C   C29       1.0  0.4538117820493427  0.533369138284144  0.5477317727512911  1.0000
  C   C30       1.0  0.547736743088194  0.4666381976914381  0.4538079175169115  1.0000
  C   C31       1.0  0.9986405541625203  0.5972097460862927  0.9986398389778371  1.0000
  C   C32       1.0  0.9986404562022745  0.4027932839337115  0.9986374407736492  1.0000
  C   C33       1.0  0.07955660472995144  0.6272926346547579  0.9188987541459139  1.0000
  C   C34       1.0  0.9188984114498099  0.37271269467204604  0.07955228508495793  1.0000
  C   C35       1.0  0.07955402891066395  0.5333638592123933  0.918899753636424  1.0000
  C   C36       1.0  0.918898296701627  0.46663676162872764  0.0795533035202851  1.0000
  C   C37       1.0  0.9986390809239012  0.4027967020193304  0.5985686234215849  1.0000
  C   C38       1.0  0.9986392789931671  0.5972091361489974  0.4041445687139813  1.0000
  C   C39       1.0  0.07955390985572572  0.5333718846143753  0.5477360484925172  1.0000
  C   C40       1.0  0.9189016207888019  0.4666374697339396  0.4538058938342998  1.0000
  C   C41       1.0  0.07955439484514681  0.6272882086146725  0.4538114532415135  1.0000
  C   C42       1.0  0.9188995934285272  0.37271038346715823  0.547738757752832  1.0000
  C   C43       1.0  0.5985729844594161  0.5972084604451454  0.9986382094083197  1.0000
  C   C44       1.0  0.40414741979659397  0.4027947178279733  0.9986370988900788  1.0000
  C   C45       1.0  0.5477376150633191  0.6272912195933389  0.9188976241626391  1.0000
  C   C46       1.0  0.45381106824640227  0.3727127640004896  0.07955116300595926  1.0000
  C   C47       1.0  0.45380726030414537  0.5333671666324165  0.9188981008173727  1.0000
  C   C48       1.0  0.5477394051077623  0.46663614432656436  0.07954934108804679  1.0000
  O   O1        1.0  0.26541047852477817  0.005338445787778289  0.07349706931030654  1.0000
  O   O2        1.0  0.9211654550595584  0.9946621219437759  0.7399256645013992  1.0000
  O   O3        1.0  0.7399273884080414  0.005342134778217686  0.9211648058696085  1.0000
  O   O4        1.0  0.07349669289207829  0.9946645816477967  0.26541075203332537  1.0000
  O   O5        1.0  0.9211619502273435  0.6610868776149843  0.26541189779421603  1.0000
  O   O6        1.0  0.26541307951284654  0.33891574736686175  0.9211591564182696  1.0000
  O   O7        1.0  0.0734981405294094  0.3389137196998891  0.7399248148094911  1.0000
  O   O8        1.0  0.7399277620813649  0.6610902668602209  0.07349545153405043  1.0000
  O   O9        1.0  0.07349448838619584  0.8134201487835216  0.9211649971389945  1.0000
  O   O10       1.0  0.7399239501588893  0.8134189812571221  0.2654130371169998  1.0000
  O   O11       1.0  0.9211653499049104  0.18658250382592456  0.07349258663429482  1.0000
  O   O12       1.0  0.265413617540048  0.18658699559492914  0.7399208628734968  1.0000
  O   O13       1.0  0.7399262473230263  0.6610895951918819  0.26541103785022097  1.0000
  O   O14       1.0  0.07349693051850165  0.3389124127685505  0.9211607150751036  1.0000
  O   O15       1.0  0.2654104507008483  0.338912345813377  0.7399250770704809  1.0000
  O   O16       1.0  0.9211608082736619  0.6610909124807807  0.073496950303891  1.0000
  O   O17       1.0  0.07349495933070924  0.8134197532340224  0.26541271236278857  1.0000
  O   O18       1.0  0.7399253001002392  0.813419376803303  0.9211661915346453  1.0000
  O   O19       1.0  0.9211691672543548  0.18658555256163106  0.7399233275819056  1.0000
  O   O20       1.0  0.26541391758081556  0.18658327421196935  0.07349205822043098  1.0000
  O   O21       1.0  0.9211629289169847  0.9946637826538943  0.26541173970888826  1.0000
  O   O22       1.0  0.26541423412529513  0.005340860233495575  0.921163234894486  1.0000
  O   O23       1.0  0.07349807079882707  0.9946649388651779  0.7399224619065946  1.0000
  O   O24       1.0  0.7399241900206021  0.005337029774920925  0.07349808306528889  1.0000
  O   O25       1.0  0.06702047612245113  0.13404409955407462  0.06701857981936138  1.0000
  O   O26       1.0  0.7989362612363421  0.8659582210476842  0.06701931055874147  1.0000
  O   O27       1.0  0.06702092929453578  0.13404490118625054  0.7989341013970799  1.0000
  O   O28       1.0  0.06702084088642836  0.8659603480689739  0.06701799768546102  1.0000
  O   O29       1.0  0.9507777474363976  0.9015586058967673  0.9507777824743257  1.0000
  O   O30       1.0  0.14766247021325554  0.09844422047280002  0.9507769630578122  1.0000
  O   O31       1.0  0.9507794062797713  0.09844477340525541  0.9507761658519415  1.0000
  O   O32       1.0  0.9507786645924908  0.9015587260961695  0.1476607552235761  1.0000
  F   F1        1.0  0.5869542504821865  0.0005075123386790177  0.8382809219262342  1.0000
  F   F2        1.0  0.41355977750424705  0.0005247059149482899  0.16120073653910796  1.0000
  F   F3        1.0  0.4135518156612577  0.0004981212156637522  0.8382842978821188  1.0000
  F   F4        1.0  0.5869667238046502  0.0005414960891983972  0.1611935217505192  1.0000
  F   F5        1.0  0.83828235836026  0.9994949144333845  0.5869530521859545  1.0000
  F   F6        1.0  0.1612035947673147  0.9994808241361851  0.41355621588138547  1.0000
  F   F7        1.0  0.8382869203755733  0.9995096467574883  0.41354727444619493  1.0000
  F   F8        1.0  0.16119701483457044  0.9994634012505872  0.586962666269187  1.0000
  F   F9        1.0  0.5869581034056496  0.7481656926904918  0.4135560731686425  1.0000
  F   F10       1.0  0.41355448923724236  0.251838956486239  0.5869532243264288  1.0000
  F   F11       1.0  0.41355718335206854  0.5747693178051207  0.5869540151526139  1.0000
  F   F12       1.0  0.5869533913799357  0.42523331345232435  0.41355528235342826  1.0000
  F   F13       1.0  0.16121265187319977  0.748166287620549  0.8382787924641021  1.0000
  F   F14       1.0  0.8382776241315568  0.25183769265427003  0.16120600272892463  1.0000
  F   F15       1.0  0.16120908077947138  0.57476645791332  0.8382779012008897  1.0000
  F   F16       1.0  0.838277077828529  0.4252375223665298  0.16120563033465635  1.0000
  F   F17       1.0  0.16119848796233063  0.5747707006792099  0.5869601483886766  1.0000
  F   F18       1.0  0.8382820623799104  0.4252332759989343  0.41355273761228534  1.0000
  F   F19       1.0  0.16121119420637334  0.7481677740894739  0.4135506887304458  1.0000
  F   F20       1.0  0.8382769999262294  0.2518375478751694  0.5869599345348748  1.0000
  F   F21       1.0  0.5869606755836047  0.7481675694552056  0.838274318180069  1.0000
  F   F22       1.0  0.4135533263075501  0.2518364106763684  0.16120780597221795  1.0000
  F   F23       1.0  0.41355465571988503  0.5747697834860689  0.8382815252752919  1.0000
  F   F24       1.0  0.5869621999082993  0.4252328513706375  0.16119909039875316  1.0000
