data_image0
_chemical_formula_structural       Co6H18C36O18
_chemical_formula_sum              "Co6 H18 C36 O18"
_cell_length_a       6.876332249170718
_cell_length_b       15.172638384325959
_cell_length_c       15.182146277101474
_cell_angle_alpha    117.77426857259402
_cell_angle_beta     98.70053331066195
_cell_angle_gamma    98.6706575932262

_space_group_name_H-M_alt    "P 1"
_space_group_IT_number       1

loop_
  _space_group_symop_operation_xyz
  'x, y, z'

loop_
  _atom_site_type_symbol
  _atom_site_label
  _atom_site_symmetry_multiplicity
  _atom_site_fract_x
  _atom_site_fract_y
  _atom_site_fract_z
  _atom_site_occupancy
  Co  Co1       1.0  0.12059809801818475  0.5905991113434367  0.3202448055596534  1.0000
  Co  Co2       1.0  0.5300066371419587  0.729502476473847  0.4091209606344037  1.0000
  Co  Co3       1.0  0.8004001836229976  0.6794605168710108  0.27053755760871223  1.0000
  Co  Co4       1.0  0.8794017690622624  0.4093969870804202  0.6797490874091708  1.0000
  Co  Co5       1.0  0.4699933032603454  0.2704967017202691  0.5908770069254318  1.0000
  Co  Co6       1.0  0.1996053247053168  0.3205409709140169  0.7294618652965427  1.0000
  H   H1        1.0  0.37083858888377824  0.0229431230813901  0.552199633295487  1.0000
  H   H2        1.0  0.34786242280897267  0.5294321617244933  0.9771305344185918  1.0000
  H   H3        1.0  0.8185133548706248  0.44767807767264145  0.47076400811771885  1.0000
  H   H4        1.0  0.6291584195856642  0.9770560551103741  0.4478034039012969  1.0000
  H   H5        1.0  0.6521345084484835  0.4705639367573157  0.022866451944317096  1.0000
  H   H6        1.0  0.1814988025280683  0.552324949761605  0.5292339503713491  1.0000
  H   H7        1.0  0.9266575894121303  0.3717294558224324  0.23196655713722691  1.0000
  H   H8        1.0  0.5553855398685669  0.86063117246168  0.627980925341447  1.0000
  H   H9        1.0  0.6954515235124461  0.7673702218712605  0.1395862901054413  1.0000
  H   H10       1.0  0.07333878049638531  0.6282743422653496  0.7680359543838478  1.0000
  H   H11       1.0  0.4446020822784221  0.13935799624827178  0.3720319582738796  1.0000
  H   H12       1.0  0.3045413778105797  0.23262664681117676  0.8604101219369582  1.0000
  H   H13       1.0  0.3895311218248168  0.46138662333919456  0.2164058959343791  1.0000
  H   H14       1.0  0.928003264165632  0.7547808421433471  0.5382566607097133  1.0000
  H   H15       1.0  0.17400484628324606  0.7835673205909969  0.24536853876528403  1.0000
  H   H16       1.0  0.6104599105557895  0.5386094756806159  0.7835834435166618  1.0000
  H   H17       1.0  0.07199092659696756  0.24522449608910787  0.46174312661550243  1.0000
  H   H18       1.0  0.82598473698814  0.21642877816633194  0.7546318992233125  1.0000
  C   C1        1.0  0.178031194993437  0.8255125268983929  0.4385711487284425  1.0000
  C   C2        1.0  0.35235229648687033  0.6130909693548644  0.1744436744120961  1.0000
  C   C3        1.0  0.7390582997095905  0.5610981398248781  0.3867557381923703  1.0000
  C   C4        1.0  0.8219702898839927  0.1744897309867639  0.5614309935944064  1.0000
  C   C5        1.0  0.647644314193414  0.38690743909504727  0.8255523903653385  1.0000
  C   C6        1.0  0.2609498290513769  0.4389056577899026  0.6132423047238049  1.0000
  C   C7        1.0  0.08165666073359988  0.912907228980515  0.4666346116660733  1.0000
  C   C8        1.0  0.1686811720780241  0.5537896923974017  0.08706149630574342  1.0000
  C   C9        1.0  0.6147276952232588  0.5331049611268597  0.44608337095683487  1.0000
  C   C10       1.0  0.9183550579717804  0.08709194843910238  0.5333687685031734  1.0000
  C   C11       1.0  0.8313187709176972  0.4462094857565191  0.9129377887493249  1.0000
  C   C12       1.0  0.385274171882834  0.4668980667413648  0.5539178388139021  1.0000
  C   C13       1.0  0.8676273560214796  0.8995138020845203  0.435734319949546  1.0000
  C   C14       1.0  0.968014053722129  0.5361678386192636  0.10038738456919565  1.0000
  C   C15       1.0  0.43174197044196916  0.5641292445873276  0.4636573644444155  1.0000
  C   C16       1.0  0.13238436138718868  0.10048537535519837  0.5642684014720843  1.0000
  C   C17       1.0  0.03198805934255929  0.46382979953068554  0.8996100134483883  1.0000
  C   C18       1.0  0.5682536259322788  0.4358730136750353  0.5363424009475255  1.0000
  C   C19       1.0  0.20752238013725594  0.012546843741098698  0.5292093180030264  1.0000
  C   C20       1.0  0.19495439994223307  0.5167729138262941  0.9875002157564907  1.0000
  C   C21       1.0  0.6782009856604746  0.47070950828632613  0.4833348779509664  1.0000
  C   C22       1.0  0.7924901069155652  0.9874538735843358  0.47079417330486734  1.0000
  C   C23       1.0  0.8050443937740964  0.4832239544186478  0.012500549459666407  1.0000
  C   C24       1.0  0.32179972568268767  0.5292912097734187  0.5166645182427487  1.0000
  C   C25       1.0  0.07214617708995515  0.4044592366420829  0.2281706450405281  1.0000
  C   C26       1.0  0.6679074047804575  0.8239193499461451  0.595160632316535  1.0000
  C   C27       1.0  0.8448461045600553  0.7713921875179963  0.1762474984137867  1.0000
  C   C28       1.0  0.9278509598692892  0.5955461013716173  0.7718313188715699  1.0000
  C   C29       1.0  0.3320932682519597  0.1760782878006211  0.4048524754719552  1.0000
  C   C30       1.0  0.15514194331315417  0.22860083140758997  0.8237533760451472  1.0000
  C   C31       1.0  0.23919300648523728  0.4366541985745015  0.2216370624815411  1.0000
  C   C32       1.0  0.8024724053559139  0.7848848948188518  0.5629348755309921  1.0000
  C   C33       1.0  0.018468624635971792  0.7782272782604738  0.215230458984813  1.0000
  C   C34       1.0  0.760803730091439  0.5633503697375487  0.7783566115159674  1.0000
  C   C35       1.0  0.19752653111401489  0.2151181330269196  0.4370720626243171  1.0000
  C   C36       1.0  0.981522042373186  0.2217680505149673  0.7847683767374178  1.0000
  O   O1        1.0  0.05964620841015724  0.7335080321678403  0.3949334314338699  1.0000
  O   O2        1.0  0.32586011770627704  0.6610982239112884  0.26641353275243773  1.0000
  O   O3        1.0  0.6644693910308845  0.6049920114762911  0.3386428712208485  1.0000
  O   O4        1.0  0.940361857402614  0.2664926855158782  0.6050658068722613  1.0000
  O   O5        1.0  0.674140199737856  0.338901724346293  0.7335808672647984  1.0000
  O   O6        1.0  0.33552511382534067  0.39501101688856005  0.6613545439517382  1.0000
  O   O7        1.0  0.370208078336155  0.842897959335083  0.45994607115342484  1.0000
  O   O8        1.0  0.5272002062621937  0.6173673499508823  0.1571317333168595  1.0000
  O   O9        1.0  0.9097056795910774  0.5395524744582899  0.3825592192865841  1.0000
  O   O10       1.0  0.6297929600677108  0.1571004486560454  0.5400575403638754  1.0000
  O   O11       1.0  0.4727975640711435  0.3826333682472054  0.8428681212804605  1.0000
  O   O12       1.0  0.09030764005408536  0.46045286268393687  0.6174438465176096  1.0000
  O   O13       1.0  0.7342689146044918  0.80759457493982  0.3735174321945819  1.0000
  O   O14       1.0  0.9265915844612421  0.5659513427238068  0.1922677732679219  1.0000
  O   O15       1.0  0.36043721668909245  0.6262623150532389  0.433857055383612  1.0000
  O   O16       1.0  0.26573582926651074  0.19240537287908668  0.6264838558148895  1.0000
  O   O17       1.0  0.07340169649702225  0.4340462959819007  0.8077263887271187  1.0000
  O   O18       1.0  0.639567587536689  0.37374071273693227  0.5661417197406494  1.0000
