data_image0
_chemical_formula_structural       Ca2H24C12S4O24
_chemical_formula_sum              "Ca2 H24 C12 S4 O24"
_cell_length_a       6.928476699090421
_cell_length_b       10.03566112356167
_cell_length_c       10.729823713134202
_cell_angle_alpha    64.63141649560349
_cell_angle_beta     83.3363930681155
_cell_angle_gamma    85.1281651503868

_space_group_name_H-M_alt    "P 1"
_space_group_IT_number       1

loop_
  _space_group_symop_operation_xyz
  'x, y, z'

loop_
  _atom_site_type_symbol
  _atom_site_label
  _atom_site_symmetry_multiplicity
  _atom_site_fract_x
  _atom_site_fract_y
  _atom_site_fract_z
  _atom_site_occupancy
  Ca  Ca1       1.0  0.23702468941084479  0.9809896327943123  0.21671198265320163  1.0000
  Ca  Ca2       1.0  0.7629768493106964  0.019011534570360304  0.7832869330856269  1.0000
  H   H1        1.0  0.7479896294360914  0.68153616973526  0.18677406339435973  1.0000
  H   H2        1.0  0.2520003202311615  0.3184650118966132  0.813223759157367  1.0000
  H   H3        1.0  0.7320286379831275  0.6011753400178179  0.6167716902700988  1.0000
  H   H4        1.0  0.2679728823277756  0.39882583730448573  0.3832281547311283  1.0000
  H   H5        1.0  0.7160313472934944  0.1816518554225794  0.4427632999028077  1.0000
  H   H6        1.0  0.283974565576159  0.8183482154543712  0.5572376341121482  1.0000
  H   H7        1.0  0.7641193258008556  0.35187980462372076  0.7707843345986447  1.0000
  H   H8        1.0  0.23588075968623906  0.6481213670137577  0.22921467680739482  1.0000
  H   H9        1.0  0.942081677759525  0.1474905086333465  0.012866233745086227  1.0000
  H   H10       1.0  0.05791684799513064  0.8525118007343907  0.9871352143624178  1.0000
  H   H11       1.0  0.021879247348650193  0.2602029712206502  0.0597279290178392  1.0000
  H   H12       1.0  0.9781207829065153  0.7397982302897148  0.9402738701754103  1.0000
  H   H13       1.0  0.519503650535917  0.224003669262764  0.15297969808796102  1.0000
  H   H14       1.0  0.48049214095867404  0.7759953279392633  0.8470223523504429  1.0000
  H   H15       1.0  0.3952051634356621  0.3095871790635272  0.0256484403452291  1.0000
  H   H16       1.0  0.6047920812933684  0.690411813865694  0.9743535144259639  1.0000
  H   H17       1.0  0.3808656217815384  0.8560971921352658  0.9986944738627059  1.0000
  H   H18       1.0  0.6191329407944082  0.1439050973172158  0.001305115719986815  1.0000
  H   H19       1.0  0.2841004603659414  0.0092552666995545  0.9309296675415552  1.0000
  H   H20       1.0  0.7158995738550972  0.9907470085224972  0.06906889711152078  1.0000
  H   H21       1.0  0.20100556945403983  0.12496103283250898  0.41389585126000844  1.0000
  H   H22       1.0  0.7989931837413664  0.8750379259510196  0.5861032200567636  1.0000
  H   H23       1.0  0.08161321128958578  0.2202959312692485  0.2820900397188808  1.0000
  H   H24       1.0  0.9183826314710544  0.7797019623482129  0.7179124574724939  1.0000
  C   C1        1.0  0.7395398820055448  0.6569660413648178  0.39754009700139653  1.0000
  C   C2        1.0  0.26046172639269116  0.3430340124576717  0.6024583362279897  1.0000
  C   C3        1.0  0.7466481153461474  0.6052648348311251  0.2958276856530518  1.0000
  C   C4        1.0  0.2533462781459193  0.39473413677082186  0.7041716726653605  1.0000
  C   C5        1.0  0.7512197760356827  0.45363607305125  0.3346131482583061  1.0000
  C   C6        1.0  0.2487774871039932  0.5463629099203401  0.6653878772504882  1.0000
  C   C7        1.0  0.7506209682927292  0.3525060817872827  0.4744789718195078  1.0000
  C   C8        1.0  0.2493879023118738  0.6474928769594896  0.5255222176139823  1.0000
  C   C9        1.0  0.7488468342162095  0.4084648004729914  0.5749937270685592  1.0000
  C   C10       1.0  0.25116208765445686  0.591533054689215  0.42500790911789466  1.0000
  C   C11       1.0  0.7413642967535666  0.5595469118884255  0.5374400924029104  1.0000
  C   C12       1.0  0.2586371907019185  0.4404553590608202  0.4625583765829475  1.0000
  S   S1        1.0  0.7247531976264198  0.8506536101761739  0.34322448599564137  1.0000
  S   S2        1.0  0.27524986400626983  0.14934643937350245  0.6567738515665269  1.0000
  S   S3        1.0  0.7571564045939853  0.39314642368125874  0.20096877151404874  1.0000
  S   S4        1.0  0.2428408072796272  0.6068536628748974  0.7990318072417821  1.0000
  O   O1        1.0  0.9148993362603337  0.9044109906351921  0.27188204914008907  1.0000
  O   O2        1.0  0.08510372537235612  0.0955890589144914  0.7281162884220792  1.0000
  O   O3        1.0  0.5754196557918974  0.9054741367716871  0.24226851805232033  1.0000
  O   O4        1.0  0.42458335457472884  0.09452701636256222  0.7577293727568915  1.0000
  O   O5        1.0  0.6675535293040794  0.8777261440700314  0.4656629591121516  1.0000
  O   O6        1.0  0.3324479910068233  0.12227503325227221  0.5343368858890756  1.0000
  O   O7        1.0  0.6518572342571431  0.5047472273073268  0.09032109447699817  1.0000
  O   O8        1.0  0.3481386637354333  0.4952506364372553  0.9096786149271594  1.0000
  O   O9        1.0  0.9653915973870398  0.37577520910436135  0.15930587439225974  1.0000
  O   O10       1.0  0.034607184697911506  0.6242215823405459  0.8406978074800548  1.0000
  O   O11       1.0  0.6607510939172202  0.24941814527618797  0.2676889194307606  1.0000
  O   O12       1.0  0.3392461692224559  0.7505808376954022  0.7323121060780265  1.0000
  O   O13       1.0  0.7502939816977091  0.20388460477038  0.5197742721685685  1.0000
  O   O14       1.0  0.24971790187377962  0.7961132119733277  0.48022438489625335  1.0000
  O   O15       1.0  0.7479372266734927  0.30514489050789706  0.7098055503710015  1.0000
  O   O16       1.0  0.2520715598096359  0.694856265450376  0.2901938162941633  1.0000
  O   O17       1.0  0.06277115415547743  0.18038884413559228  0.030709476111248114  1.0000
  O   O18       1.0  0.9372259880414334  0.819612355962754  0.9692915851540248  1.0000
  O   O19       1.0  0.4492963215898982  0.2103361960839294  0.08377431038679362  1.0000
  O   O20       1.0  0.5507008902837214  0.7896638904722266  0.9162262683690373  1.0000
  O   O21       1.0  0.27288453063176393  0.9199206275293649  0.019265713543603524  1.0000
  O   O22       1.0  0.7271169568237141  0.08008164341988079  0.9807327554422542  1.0000
  O   O23       1.0  0.13907682156183657  0.12162195598300228  0.33662917450253366  1.0000
  O   O24       1.0  0.8609218435462224  0.8783781263003476  0.6633713085860862  1.0000
