data_image0
_chemical_formula_structural       Zn2H44C46N8O8
_chemical_formula_sum              "Zn2 H44 C46 N8 O8"
_cell_length_a       9.425454678001618
_cell_length_b       9.513670590655307
_cell_length_c       10.802124321916352
_cell_angle_alpha    94.90667172642375
_cell_angle_beta     89.99993293127413
_cell_angle_gamma    90.0000050739524

_space_group_name_H-M_alt    "P 1"
_space_group_IT_number       1

loop_
  _space_group_symop_operation_xyz
  'x, y, z'

loop_
  _atom_site_type_symbol
  _atom_site_label
  _atom_site_symmetry_multiplicity
  _atom_site_fract_x
  _atom_site_fract_y
  _atom_site_fract_z
  _atom_site_occupancy
  Zn  Zn1       1.0  0.7227905566180155  0.4413793106131435  0.08786226636576092  1.0000
  Zn  Zn2       1.0  0.22279078820653103  0.558620698027347  0.9121367750857347  1.0000
  H   H1        1.0  0.6403815381929264  0.0871246865187061  0.4547577186342552  1.0000
  H   H2        1.0  0.14038229351660192  0.9128732116474936  0.5452421711155965  1.0000
  H   H3        1.0  0.08359265871753509  0.4804481051356503  0.21984092380934336  1.0000
  H   H4        1.0  0.5835925673366803  0.5195519052640944  0.7801582600920086  1.0000
  H   H5        1.0  0.007169720610917802  0.46870835021690715  0.36779569939417917  1.0000
  H   H6        1.0  0.5071698285802881  0.5312916611486995  0.6322035627153185  1.0000
  H   H7        1.0  0.05009708765619789  0.7307240757446607  0.39298371821590194  1.0000
  H   H8        1.0  0.5500982666554677  0.26927593662615834  0.6070145743366098  1.0000
  H   H9        1.0  0.9484590876615399  0.9653647239595459  0.35885913923461743  1.0000
  H   H10       1.0  0.44846069603226363  0.03463633681288059  0.6411397521067032  1.0000
  H   H11       1.0  0.7469601584119303  0.9785338313759695  0.2054262242185416  1.0000
  H   H12       1.0  0.24696049900508396  0.021466178506813097  0.7945718668724242  1.0000
  H   H13       1.0  0.6588573102905355  0.7531520836247694  0.0955399504966508  1.0000
  H   H14       1.0  0.1588575239864127  0.24684687083971102  0.9044590755507472  1.0000
  H   H15       1.0  0.0437792027660109  0.179950188690448  0.1876423019881699  1.0000
  H   H16       1.0  0.5437790953949532  0.8200508756487536  0.8123579291138654  1.0000
  H   H17       1.0  0.06706833560340901  0.32059133767673126  0.09167401682763203  1.0000
  H   H18       1.0  0.5670670259457963  0.6794086713841094  0.9083261096109326  1.0000
  H   H19       1.0  0.05480942047802271  0.01349284050481  0.9970083798408995  1.0000
  H   H20       1.0  0.5548093519097747  0.9865061137269251  0.0029916783114317057  1.0000
  H   H21       1.0  0.920946048059143  0.9010586531189726  0.8149123364878222  1.0000
  H   H22       1.0  0.4209461515294421  0.09894134682613752  0.18509020468413692  1.0000
  H   H23       1.0  0.6875779938884606  0.0079213417246322  0.7575029471206989  1.0000
  H   H24       1.0  0.1875770401967927  0.9920786642653991  0.24249798161905292  1.0000
  H   H25       1.0  0.6033878157361768  0.2251988741794264  0.8843343873657689  1.0000
  H   H26       1.0  0.1033870123835285  0.7748021878586682  0.1156667083617364  1.0000
  H   H27       1.0  0.8533559230586577  0.3194087307767645  0.40517351301182464  1.0000
  H   H28       1.0  0.35335552997531744  0.6805912731180898  0.5948272460769815  1.0000
  H   H29       1.0  0.8513295574440461  0.16743512418496914  0.3026593952313235  1.0000
  H   H30       1.0  0.35132904070925974  0.8325659362672795  0.6973405211358995  1.0000
  H   H31       1.0  0.39311299344129214  0.2975845069425275  0.22542071276790673  1.0000
  H   H32       1.0  0.8931129260683762  0.7024144445613274  0.7745780735515171  1.0000
  H   H33       1.0  0.2866183316949105  0.5035464068306936  0.33553457892414684  1.0000
  H   H34       1.0  0.786619454233886  0.49645359635985625  0.6644671740867807  1.0000
  H   H35       1.0  0.4117040117105404  0.4145544199542144  0.42328557960840396  1.0000
  H   H36       1.0  0.911705259899712  0.5854434763306386  0.5767131068541431  1.0000
  H   H37       1.0  0.6550078981617773  0.528885273895618  0.4698304712629169  1.0000
  H   H38       1.0  0.15500545088458753  0.4711136821652885  0.5301676330989338  1.0000
  H   H39       1.0  0.7665600381031084  0.7578556431992495  0.5423907086045077  1.0000
  H   H40       1.0  0.2665597892867595  0.2421443648880767  0.4576082880552549  1.0000
  H   H41       1.0  0.42466259121407995  0.9784492982839619  0.38155304962129594  1.0000
  H   H42       1.0  0.9246647934557614  0.021549648177881398  0.6184484812890787  1.0000
  H   H43       1.0  0.3121937834758981  0.7500499970780155  0.310737160167534  1.0000
  H   H44       1.0  0.8121948504990613  0.24994684083720384  0.6892643241778276  1.0000
  C   C1        1.0  0.9814188087563379  0.47761351559744003  0.2693783656462614  1.0000
  C   C2        1.0  0.4814182193802807  0.5223864882266439  0.7306213367618499  1.0000
  C   C3        1.0  0.912418438432276  0.6192170271089737  0.25727858125073066  1.0000
  C   C4        1.0  0.41241782003999106  0.3807829775871809  0.7427211917696824  1.0000
  C   C5        1.0  0.9661951148820833  0.7399410296723374  0.324539073894897  1.0000
  C   C6        1.0  0.4661966976338904  0.26006003087592683  0.6754597992960854  1.0000
  C   C7        1.0  0.9090647332195445  0.8711412642760193  0.30537954013643553  1.0000
  C   C8        1.0  0.4090641565192641  0.1288576839307254  0.6946210811113573  1.0000
  C   C9        1.0  0.7978934955489407  0.8787751942381088  0.2207394993764282  1.0000
  C   C10       1.0  0.29789492663866923  0.12122586843722868  0.7792595460479319  1.0000
  C   C11       1.0  0.7482142299117241  0.7543459689106767  0.15957627656317191  1.0000
  C   C12       1.0  0.248213468364483  0.2456540394085138  0.8404227388712331  1.0000
  C   C13       1.0  0.9865146637452896  0.25769054146636705  0.13576037982593192  1.0000
  C   C14       1.0  0.48651497613070654  0.7423105172773459  0.8642393981977108  1.0000
  C   C15       1.0  0.9015862002488004  0.18009176676291358  0.0329264970008367  1.0000
  C   C16       1.0  0.4015853208731741  0.8199082365223873  0.9670742127312411  1.0000
  C   C17       1.0  0.9542482790480875  0.05716609831313237  0.968750080111491  1.0000
  C   C18       1.0  0.4542476040181073  0.9428339027588417  0.03125150135441146  1.0000
  C   C19       1.0  0.8783602721259954  0.9936122169558101  0.8688092969209293  1.0000
  C   C20       1.0  0.3783593785066088  0.0063867300912435  0.13119228137501443  1.0000
  C   C21       1.0  0.7488683545387785  0.05219936848019559  0.837039778807892  1.0000
  C   C22       1.0  0.24886856439616883  0.9478006351874623  0.1629620128353508  1.0000
  C   C23       1.0  0.7027442791328369  0.17388950217100774  0.9057768490906569  1.0000
  C   C24       1.0  0.20274669202706974  0.8261105067228272  0.0942222128742998  1.0000
  C   C25       1.0  0.8214317953442034  0.2795337357709542  0.31048075282140536  1.0000
  C   C26       1.0  0.32143233991537556  0.7204673250591467  0.6895191941414824  1.0000
  C   C27       1.0  0.6592730428969986  0.2876520349250383  0.30656854634236214  1.0000
  C   C28       1.0  0.1592735814923216  0.712349031050003  0.693429715314963  1.0000
  C   C29       1.0  0.45349735059330953  0.3974670929867585  0.22873823472525603  1.0000
  C   C30       1.0  0.9534972786378332  0.6025329127379635  0.7712605706300694  1.0000
  C   C31       1.0  0.4126696951327914  0.46492452098233616  0.1091829671709235  1.0000
  C   C32       1.0  0.9126705178076977  0.5350754837106279  0.8908168055916266  1.0000
  C   C33       1.0  0.40042397298103793  0.48437328838090804  0.34785077876237847  1.0000
  C   C34       1.0  0.9004251137606474  0.5156246064987613  0.6521488448700126  1.0000
  C   C35       1.0  0.4749954241384345  0.6218536743082979  0.3835394935327657  1.0000
  C   C36       1.0  0.9749944784060104  0.3781431615493743  0.6164618242087841  1.0000
  C   C37       1.0  0.6035695487093733  0.6271577893148076  0.4497764598438536  1.0000
  C   C38       1.0  0.1035691875848599  0.3728411643006737  0.5502235484094201  1.0000
  C   C39       1.0  0.6666614431898666  0.7548664120982308  0.49132630446818143  1.0000
  C   C40       1.0  0.16666006524972943  0.24513043075181423  0.5086734775580483  1.0000
  C   C41       1.0  0.6046655189569421  0.8829779220560425  0.4641973743455737  1.0000
  C   C42       1.0  0.1046672759484153  0.11702103154557618  0.5358026327850426  1.0000
  C   C43       1.0  0.4762749396182997  0.879610064337804  0.3985234940167289  1.0000
  C   C44       1.0  0.9762771735370208  0.12038676840817426  0.6014796736662761  1.0000
  C   C45       1.0  0.41349814752415887  0.7506647704144953  0.35954041420561117  1.0000
  C   C46       1.0  0.9134992798973443  0.24933417464070112  0.6404620537568207  1.0000
  N   N1        1.0  0.9010725810605819  0.3539678345872374  0.21792515632662912  1.0000
  N   N2        1.0  0.40107193390361573  0.6460321702523117  0.782074628304706  1.0000
  N   N3        1.0  0.8051737990969771  0.6279488312978001  0.176726501938532  1.0000
  N   N4        1.0  0.305175193873538  0.3720522312855222  0.8232725360354679  1.0000
  N   N5        1.0  0.7779974916341104  0.23698926673267803  0.0006273700193446961  1.0000
  N   N6        1.0  0.2779976247846889  0.7630107381145874  0.9993734661880682  1.0000
  N   N7        1.0  0.6044004137262675  0.37262876485074503  0.22986042571093182  1.0000
  N   N8        1.0  0.10439978087793382  0.6273701887542414  0.770139581692199  1.0000
  O   O1        1.0  0.590138924163938  0.2151163778564751  0.3812869991475409  1.0000
  O   O2        1.0  0.09013956945305779  0.7848846874445597  0.6187122588851325  1.0000
  O   O3        1.0  0.5101154435560105  0.4956838684674593  0.0344167645268598  1.0000
  O   O4        1.0  0.010113476694975499  0.5043161444086834  0.9655815689429165  1.0000
  O   O5        1.0  0.280753525957266  0.4832336815577277  0.0904462692390666  1.0000
  O   O6        1.0  0.7807511389957754  0.5167684347705332  0.9095538001847602  1.0000
  O   O7        1.0  0.6717741516807366  0.0051391422766471  0.5037477195672367  1.0000
  O   O8        1.0  0.17177604102858623  0.9948608654608504  0.4962522997178527  1.0000
