data_image0
_chemical_formula_structural       Zn4H16C32N32
_chemical_formula_sum              "Zn4 H16 C32 N32"
_cell_length_a       8.112829980000972
_cell_length_b       8.755305223001608
_cell_length_c       13.011250119003611
_cell_angle_alpha    89.99993301801065
_cell_angle_beta     89.99994705514679
_cell_angle_gamma    89.99998165765635

_space_group_name_H-M_alt    "P 1"
_space_group_IT_number       1

loop_
  _space_group_symop_operation_xyz
  'x, y, z'

loop_
  _atom_site_type_symbol
  _atom_site_label
  _atom_site_symmetry_multiplicity
  _atom_site_fract_x
  _atom_site_fract_y
  _atom_site_fract_z
  _atom_site_occupancy
  Zn  Zn1       1.0  0.0229530420095401  0.4100705995683498  0.8817014284624778  1.0000
  Zn  Zn2       1.0  0.47704769968056837  0.5899299161786968  0.3817023842879907  1.0000
  Zn  Zn3       1.0  0.9770480866946369  0.9100703886222874  0.6182981348119583  1.0000
  Zn  Zn4       1.0  0.5229530476558962  0.08992929436689681  0.11829820845578352  1.0000
  H   H1        1.0  0.7703374962429307  0.0404275389244546  0.46748597166116224  1.0000
  H   H2        1.0  0.7296631208363493  0.9595715372057824  0.9674852331224602  1.0000
  H   H3        1.0  0.2296632681904426  0.5404276988386483  0.032514660010790015  1.0000
  H   H4        1.0  0.2703367581558068  0.4595711394382533  0.5325142912250557  1.0000
  H   H5        1.0  0.7543801912377929  0.0544580532356704  0.2815630211517616  1.0000
  H   H6        1.0  0.7456194686442571  0.945541346013499  0.7815622844485761  1.0000
  H   H7        1.0  0.24561933573430386  0.5544578852961877  0.21843759948712468  1.0000
  H   H8        1.0  0.2543816478089838  0.44554177202642353  0.718437250931544  1.0000
  H   H9        1.0  0.9272741513818514  0.5212013154113394  0.2886981513613948  1.0000
  H   H10       1.0  0.5727254979307402  0.47879807143782915  0.7886971127980406  1.0000
  H   H11       1.0  0.07272538707628229  0.021201807728267894  0.21130249543021057  1.0000
  H   H12       1.0  0.42727560703646356  0.9787978619943514  0.7113023964293678  1.0000
  H   H13       1.0  0.9519509753230293  0.5042045939787484  0.47953377220548543  1.0000
  H   H14       1.0  0.5480483912931147  0.4957956033778145  0.9795335030657103  1.0000
  H   H15       1.0  0.048049801621616  0.004204283110581699  0.02046611938658321  1.0000
  H   H16       1.0  0.4519502425726499  0.9957945761054744  0.5204659927959343  1.0000
  C   C1        1.0  0.887943672370369  0.2593872220729168  0.59757711765392  1.0000
  C   C2        1.0  0.6120562600603064  0.7406124969283568  0.09757662824124225  1.0000
  C   C3        1.0  0.11205627576035228  0.7593879161786674  0.9024233326830288  1.0000
  C   C4        1.0  0.38794320261861504  0.24061256355665245  0.40242307744073724  1.0000
  C   C5        1.0  0.8647940007483113  0.27109222506670955  0.48667078967822885  1.0000
  C   C6        1.0  0.6352053552957386  0.728906817721878  0.9866702869807968  1.0000
  C   C7        1.0  0.13520545140298165  0.7710924463513746  0.013329660600199104  1.0000
  C   C8        1.0  0.3647946033628102  0.22890756743199595  0.5133294187601437  1.0000
  C   C9        1.0  0.806403835368563  0.14642272874731077  0.4299045960786502  1.0000
  C   C10       1.0  0.6935956047654415  0.8535764126950126  0.9299054988153163  1.0000
  C   C11       1.0  0.19359565984202476  0.646422834051883  0.07009441510814442  1.0000
  C   C12       1.0  0.30640431083438097  0.35357708107841995  0.5700948774516024  1.0000
  C   C13       1.0  0.794880190284445  0.15525975065772  0.3235535545306974  1.0000
  C   C14       1.0  0.7051218726236284  0.84474414427212  0.8235544575716391  1.0000
  C   C15       1.0  0.20511930187367963  0.6552585255481702  0.17644621827287219  1.0000
  C   C16       1.0  0.2948805112579009  0.3447434890813951  0.6764459256407566  1.0000
  C   C17       1.0  0.8393024354343481  0.28951210454508214  0.2719112567289487  1.0000
  C   C18       1.0  0.6606984713597726  0.7104895958062727  0.7719115223870506  1.0000
  C   C19       1.0  0.16069824297144913  0.7895108028669994  0.2280884104987423  1.0000
  C   C20       1.0  0.33930272627487307  0.21048883768251156  0.7280889664030215  1.0000
  C   C21       1.0  0.8947133685994898  0.4162774731971907  0.32892569707039604  1.0000
  C   C22       1.0  0.6052874537359684  0.5837264123975956  0.8289253257900386  1.0000
  C   C23       1.0  0.10528603340878108  0.9162762870481204  0.17107387046979033  1.0000
  C   C24       1.0  0.3947125550649845  0.08372573691753621  0.6710744941207951  1.0000
  C   C25       1.0  0.9076643826174474  0.40695503122039867  0.4351437765391141  1.0000
  C   C26       1.0  0.5923338171418349  0.5930452432839246  0.9351418682637632  1.0000
  C   C27       1.0  0.09233502260978807  0.9069551756765789  0.06485656689734043  1.0000
  C   C28       1.0  0.40766495582563067  0.09304474855654378  0.5648571757534031  1.0000
  C   C29       1.0  0.8340256901578369  0.296875738062056  0.15990587641914544  1.0000
  C   C30       1.0  0.665975382555075  0.7031295834386456  0.6599069133905221  1.0000
  C   C31       1.0  0.16597498570592245  0.7968708136688109  0.34009301645357953  1.0000
  C   C32       1.0  0.3340258176216152  0.20312520573135373  0.8400943497545159  1.0000
  N   N1        1.0  0.886648124662514  0.37731109539489444  0.6629912318839504  1.0000
  N   N2        1.0  0.6133517108662331  0.6226896520865991  0.16299083445901635  1.0000
  N   N3        1.0  0.1133517827400325  0.8773107606360142  0.8370091257185027  1.0000
  N   N4        1.0  0.38664779254085585  0.1226886906190856  0.3370089639574517  1.0000
  N   N5        1.0  0.9208876609369198  0.3145387843441513  0.7547795060176485  1.0000
  N   N6        1.0  0.5791108060053459  0.6854606614524669  0.25477907896620183  1.0000
  N   N7        1.0  0.07911226814616869  0.8145397614310425  0.7452201323825423  1.0000
  N   N8        1.0  0.42088744310627385  0.18546099150978532  0.24522067008722107  1.0000
  N   N9        1.0  0.9419198095755873  0.1656896069972191  0.7485418796085102  1.0000
  N   N10       1.0  0.5580811318371417  0.8343109918035764  0.24854211619054214  1.0000
  N   N11       1.0  0.05808017091697338  0.6656894373198412  0.7514578758465692  1.0000
  N   N12       1.0  0.44191953109544346  0.33431016261577895  0.25145828437294443  1.0000
  N   N13       1.0  0.9224581230865211  0.127894325743469  0.6497835188125978  1.0000
  N   N14       1.0  0.5775417320078943  0.8721053025274584  0.14978294588941315  1.0000
  N   N15       1.0  0.07754187045916439  0.6278939786565445  0.8502170349302746  1.0000
  N   N16       1.0  0.42245768525625477  0.3721054496444864  0.35021665638708316  1.0000
  N   N17       1.0  0.7332421768851488  0.21416024449599996  0.09730857089967064  1.0000
  N   N18       1.0  0.7667577559436081  0.7858417593020376  0.5973071790344806  1.0000
  N   N19       1.0  0.2667572949297322  0.714157465735916  0.4026919241510428  1.0000
  N   N20       1.0  0.23324218305191377  0.285839587038673  0.9026917133685192  1.0000
  N   N21       1.0  0.7728461785598951  0.24966793695572417  0.00047695836056500015  1.0000
  N   N22       1.0  0.7271551303257694  0.7503319507968343  0.5004771543789561  1.0000
  N   N23       1.0  0.2271545136070969  0.7496672859919186  0.49952274020017756  1.0000
  N   N24       1.0  0.272846053548072  0.25033188282711893  0.9995233030789594  1.0000
  N   N25       1.0  0.893293646093724  0.35067981254550057  0.005945228580145602  1.0000
  N   N26       1.0  0.6067064220756676  0.649321207868347  0.5059455734626682  1.0000
  N   N27       1.0  0.10670701118652198  0.85067920682674  0.4940536219795535  1.0000
  N   N28       1.0  0.3932935640695945  0.14932111366113077  0.9940549634300954  1.0000
  N   N29       1.0  0.9349855552973451  0.38319714915223096  0.10305501170940803  1.0000
  N   N30       1.0  0.5650143690169925  0.6168048446567482  0.6030561747609868  1.0000
  N   N31       1.0  0.065013858136787  0.8831955824092788  0.3969438132795205  1.0000
  N   N32       1.0  0.4349856283590796  0.11680262251901037  0.8969443877033573  1.0000
