data_image0
_chemical_formula_structural       Zn4H32C40N12O24
_chemical_formula_sum              "Zn4 H32 C40 N12 O24"
_cell_length_a       7.060487920095551
_cell_length_b       8.406692081
_cell_length_c       19.147
_cell_angle_alpha    90.0
_cell_angle_beta     99.52338735322407
_cell_angle_gamma    90.0

_space_group_name_H-M_alt    "P 1"
_space_group_IT_number       1

loop_
  _space_group_symop_operation_xyz
  'x, y, z'

loop_
  _atom_site_type_symbol
  _atom_site_label
  _atom_site_symmetry_multiplicity
  _atom_site_fract_x
  _atom_site_fract_y
  _atom_site_fract_z
  _atom_site_occupancy
  Zn  Zn1       1.0  0.3926050279079264  0.6058922999584981  0.1413190106437483  1.0000
  Zn  Zn2       1.0  0.6073933451058624  0.1058942080217236  0.3586818824163344  1.0000
  Zn  Zn3       1.0  0.6073947812310365  0.3941074525006131  0.8586819700343683  1.0000
  Zn  Zn4       1.0  0.3926050279079264  0.8941091130229568  0.6413190106437483  1.0000
  H   H1        1.0  0.9295047327066401  0.6942373937057271  0.18137929279019718  1.0000
  H   H2        1.0  0.0704950764323229  0.1942416808259892  0.3186227324379871  1.0000
  H   H3        1.0  0.0704864596812769  0.3057671168674716  0.8186216844547332  1.0000
  H   H4        1.0  0.9295032965814656  0.8057604506901654  0.6813792051721562  1.0000
  H   H5        1.0  0.6690146040860085  0.005367152688030801  0.15322794332765  1.0000
  H   H6        1.0  0.3309808966774384  0.505367623681849  0.3467743413214492  1.0000
  H   H7        1.0  0.3309866411781357  0.9946278416569997  0.8467767808937195  1.0000
  H   H8        1.0  0.6690189124615318  0.4946333183057874  0.6532255948066066  1.0000
  H   H9        1.0  0.9642431645484992  0.10593822057700923  0.11184202908319209  1.0000
  H   H10       1.0  0.0357566445904638  0.6059386915708274  0.3881594738699619  1.0000
  H   H11       1.0  0.0357609529659868  0.8940603423535833  0.8881613035491611  1.0000
  H   H12       1.0  0.9642431645484992  0.3940634399453274  0.6118404622581011  1.0000
  H   H13       1.0  0.817255752955852  0.8015780684093345  0.928056858156218  1.0000
  H   H14       1.0  0.18274549230829254  0.3015787869440345  0.5719431655898788  1.0000
  H   H15       1.0  0.1827483645586412  0.19842406310682756  0.07194281855092297  1.0000
  H   H16       1.0  0.8172457000796315  0.6984185864580397  0.4280562448299605  1.0000
  H   H17       1.0  0.5369643304315588  0.7092076101460805  0.9793628095927646  1.0000
  H   H18       1.0  0.4630326064570626  0.20920713915226236  0.5206369512992239  1.0000
  H   H19       1.0  0.46303691483258563  0.2907897632559937  0.020636691878309  1.0000
  H   H20       1.0  0.5369600220560358  0.7907854761357243  0.4793625467386491  1.0000
  H   H21       1.0  0.060358904951904414  0.49774988303155254  0.06814063811822989  1.0000
  H   H22       1.0  0.9396423403122329  0.997747974968327  0.43185938562786663  1.0000
  H   H23       1.0  0.939643776437407  0.5022498694275654  0.9318589509708771  1.0000
  H   H24       1.0  0.060358904951904414  0.0022493984337473  0.5681411603932602  1.0000
  H   H25       1.0  0.1694326119422556  0.5886750641414409  0.0117519314009442  1.0000
  H   H26       1.0  0.8305671971967146  0.08867578267614112  0.4882464379020277  1.0000
  H   H27       1.0  0.8305686333218887  0.4113246883176772  0.988247570070122  1.0000
  H   H28       1.0  0.1694326119422556  0.9113227802544517  0.5117534982260352  1.0000
  H   H29       1.0  0.9122224023587509  0.8351299098806635  0.2968507238375224  1.0000
  H   H30       1.0  0.08777884290538653  0.3351258703012833  0.2031492999085742  1.0000
  H   H31       1.0  0.08778027903056083  0.16487460069253507  0.7031499098016453  1.0000
  H   H32       1.0  0.9122238384839252  0.6648691240437472  0.7968508114555561  1.0000
  C   C1        1.0  0.054305637342103814  0.7350489277424472  0.217591665483468  1.0000
  C   C2        1.0  0.9456984801723822  0.23504488816306696  0.28240957804876393  1.0000
  C   C3        1.0  0.9456912995465105  0.2649579618877951  0.7824086176835507  1.0000
  C   C4        1.0  0.05430276509175511  0.7649524852390002  0.7175899234223024  1.0000
  C   C5        1.0  0.3470181064991777  0.7935475613621463  0.26708896037342805  1.0000
  C   C6        1.0  0.6529831387649596  0.293543521782766  0.2329094965475846  1.0000
  C   C7        1.0  0.6529802665146109  0.20645575968253385  0.7329119326866618  1.0000
  C   C8        1.0  0.3470195426243521  0.7064490935052277  0.7670885257164315  1.0000
  C   C9        1.0  0.22458987151273396  0.8503606330671758  0.3116909531371235  1.0000
  C   C10       1.0  0.7754113737514032  0.3503518353737149  0.1883069815088589  1.0000
  C   C11       1.0  0.7754113737514032  0.1496474460915849  0.6883106374340642  1.0000
  C   C12       1.0  0.22459130763790824  0.6496348322716659  0.8116915630301875  1.0000
  C   C13       1.0  0.5593506496490122  0.786749405863006  0.2700475529087214  1.0000
  C   C14       1.0  0.4406534678654808  0.2867453662836255  0.22995316834847299  1.0000
  C   C15       1.0  0.44064772336478353  0.2132503465961051  0.7299502065011794  1.0000
  C   C16       1.0  0.5593449051483149  0.7132567652325292  0.7700445910614278  1.0000
  C   C17       1.0  0.2561027662130542  0.917469074123922  0.3844037578355213  1.0000
  C   C18       1.0  0.7439027874266062  0.41746503454454154  0.11559548421463009  1.0000
  C   C19       1.0  0.7438826816741653  0.08252948880667083  0.6155963466622367  1.0000
  C   C20       1.0  0.2560941494620081  0.5825323388575327  0.8844027098522672  1.0000
  C   C21       1.0  0.712646959132492  0.9669213433392585  0.10409019476331588  1.0000
  C   C22       1.0  0.2873600306323426  0.4669173037598711  0.3959060012546871  1.0000
  C   C23       1.0  0.2873643390078656  0.0330795986483778  0.8959078309338864  1.0000
  C   C24       1.0  0.7126426507569692  0.5330812591707215  0.6040941101094504  1.0000
  C   C25       1.0  0.8744925217787627  0.019687886555765  0.0796441379719326  1.0000
  C   C26       1.0  0.12549867060915432  0.5196931156636708  0.4203584060980888  1.0000
  C   C27       1.0  0.12550010673432874  0.9803082973177837  0.9203590159911599  1.0000
  C   C28       1.0  0.8744968301542857  0.4803102053810093  0.5796423117259195  1.0000
  C   C29       1.0  0.9175619157569133  0.9682869220816883  0.014200564576626103  1.0000
  C   C30       1.0  0.0824422017575728  0.4682935882590017  0.4857975453054237  1.0000
  C   C31       1.0  0.0824479462582701  0.031714019905948  0.9857978957775657  1.0000
  C   C32       1.0  0.9175590435065646  0.5317085432571604  0.5142030007157032  1.0000
  C   C33       1.0  0.793383044182967  0.8532975789862293  0.9779828455376673  1.0000
  C   C34       1.0  0.20661245658047994  0.3533006765779731  0.5220199613864622  1.0000
  C   C35       1.0  0.2066167649560029  0.14670098394436343  0.022018657415479495  1.0000
  C   C36       1.0  0.7933816080577929  0.6467026444667072  0.477980146544482  1.0000
  C   C37       1.0  0.6345878114069736  0.8002220058950655  0.004410062317092007  1.0000
  C   C38       1.0  0.3654234867333842  0.3002167767871669  0.4955879633801104  1.0000
  C   C39       1.0  0.36542061448303553  0.1997872627922206  0.9955867435939751  1.0000
  C   C40       1.0  0.6345791946559276  0.6997817861434259  0.5044126702590503  1.0000
  N   N1        1.0  0.2370080458951662  0.7208364409701533  0.20975312486994824  1.0000
  N   N2        1.0  0.7629903271186224  0.2208335909192911  0.290246723640081  1.0000
  N   N3        1.0  0.7629831464927506  0.2791668800745271  0.7902468078249214  1.0000
  N   N4        1.0  0.2370080458951662  0.7791625929542576  0.7097531248699482  1.0000
  N   N5        1.0  0.0414867840360387  0.8103437040826691  0.2789462140362886  1.0000
  N   N6        1.0  0.9585187696036217  0.310337285446245  0.2210514611887717  1.0000
  N   N7        1.0  0.9585115889777498  0.18966199601904782  0.7210536344737406  1.0000
  N   N8        1.0  0.04148103953534131  0.6896541403132161  0.7789469081142002  1.0000
  N   N9        1.0  0.5907572710864246  0.8612495771510142  0.0658300737992903  1.0000
  N   N10       1.0  0.4092353574266667  0.3612491061571959  0.4341704687886434  1.0000
  N   N11       1.0  0.4092396658021897  0.13875255436514786  0.9341712539177819  1.0000
  N   N12       1.0  0.5907587072115987  0.6387518358304405  0.5658301614173309  1.0000
  O   O1        1.0  0.6187933067396898  0.6914348645095814  0.22695142687667413  1.0000
  O   O2        1.0  0.38120506627409884  0.1914391516298508  0.273046854808257  1.0000
  O   O3        1.0  0.38120219402375  0.3085732146491864  0.7730482463972734  1.0000
  O   O4        1.0  0.6187918706145157  0.8085582217722234  0.7269534283587618  1.0000
  O   O5        1.0  0.672041955953496  0.8736016413160215  0.3135588791572914  1.0000
  O   O6        1.0  0.32795785318547394  0.3736035493792471  0.1864400124207108  1.0000
  O   O7        1.0  0.3279564170602996  0.12640405878570254  0.6864420139027914  1.0000
  O   O8        1.0  0.6720462643290193  0.6263926344943016  0.813561231111521  1.0000
  O   O9        1.0  0.4074559983356708  0.9951690771341789  0.407634271246657  1.0000
  O   O10       1.0  0.5925466830536408  0.49516979566888614  0.09236584011747338  1.0000
  O   O11       1.0  0.5925481191788153  0.0048390020245819  0.5923659277355071  1.0000
  O   O12       1.0  0.4074617428363681  0.5048263882046697  0.9076351439938364  1.0000
  O   O13       1.0  0.1260702484285403  0.8856908196778266  0.4211944479727379  1.0000
  O   O14       1.0  0.8739338690859457  0.3856891591554898  0.078803661909312  1.0000
  O   O15       1.0  0.8739353052111198  0.11431131183832832  0.5788047940774064  1.0000
  O   O16       1.0  0.12607168455371462  0.6143082142465843  0.9211934910407179  1.0000
  O   O17       1.0  0.4297245552888285  0.8227481075026191  0.08740098223124448  1.0000
  O   O18       1.0  0.5702766899753087  0.3227488260373193  0.4125990415148522  1.0000
  O   O19       1.0  0.5702795622256573  0.1772516449564989  0.9125992167509267  1.0000
  O   O20       1.0  0.4297216830384798  0.6772497368932733  0.587402373820261  1.0000
  O   O21       1.0  0.1614879674778606  0.5761731193827444  0.0628596449888192  1.0000
  O   O22       1.0  0.838514713911451  0.07617502744597  0.4371404663753111  1.0000
  O   O23       1.0  0.838514713911451  0.4238242540193227  0.9371404663753112  1.0000
  O   O24       1.0  0.1614836591023376  0.9238259145416665  0.5628604266847717  1.0000
