data_image0
_chemical_formula_structural       Zn2H10C34N2O8F10
_chemical_formula_sum              "Zn2 H10 C34 N2 O8 F10"
_cell_length_a       11.12938817091432
_cell_length_b       16.608161036062967
_cell_length_c       17.850828580996435
_cell_angle_alpha    90.40044990405961
_cell_angle_beta     91.72613608270649
_cell_angle_gamma    89.77149484417468

_space_group_name_H-M_alt    "P 1"
_space_group_IT_number       1

loop_
  _space_group_symop_operation_xyz
  'x, y, z'

loop_
  _atom_site_type_symbol
  _atom_site_label
  _atom_site_symmetry_multiplicity
  _atom_site_fract_x
  _atom_site_fract_y
  _atom_site_fract_z
  _atom_site_occupancy
  Zn  Zn1       1.0  0.4915161002084644  0.4177287430130365  0.5005037724586784  1.0000
  Zn  Zn2       1.0  0.4904685066125509  0.5828380725101785  0.4988911399413424  1.0000
  H   H1        1.0  0.8786204471769141  0.6179450322103507  0.48533507989174746  1.0000
  H   H2        1.0  0.1010483718406832  0.6192397569935653  0.5114989536809914  1.0000
  H   H3        1.0  0.8980640768215479  0.44003487039560724  0.5314968929032273  1.0000
  H   H4        1.0  0.0859997478069019  0.43927396519797685  0.47009930626043667  1.0000
  H   H5        1.0  0.5652699793472209  0.36384734751528225  0.869557513497753  1.0000
  H   H6        1.0  0.5643763198060016  0.36275112124675263  0.12889846739231095  1.0000
  H   H7        1.0  0.5276360614894884  0.3729208977972649  0.7309841250269213  1.0000
  H   H8        1.0  0.5379135852254963  0.37129026523070513  0.2674347863394359  1.0000
  H   H9        1.0  0.3572298656488115  0.2874801951615639  0.4181807317562018  1.0000
  H   H10       1.0  0.63020157820268  0.29118374800277996  0.583159956115459  1.0000
  C   C1        1.0  0.5094474250501762  0.5001968939067397  0.3542977042885552  1.0000
  C   C2        1.0  0.4951343914268024  0.5023641968576487  0.6458272203603383  1.0000
  C   C3        1.0  0.25829094696271687  0.49950886727418725  0.4903223790451747  1.0000
  C   C4        1.0  0.7245650541634703  0.498650473839476  0.5093205959261409  1.0000
  C   C5        1.0  0.9254709585298073  0.561549220713147  0.498513904268215  1.0000
  C   C6        1.0  0.05578650544020289  0.5619811394347282  0.49987710064452523  1.0000
  C   C7        1.0  0.857502241382697  0.4970516282646573  0.5140552775834735  1.0000
  C   C8        1.0  0.12535590527637203  0.4972152226077855  0.48595853718194343  1.0000
  C   C9        1.0  0.5519559907901624  0.4219279092505064  0.8425426453864302  1.0000
  C   C10       1.0  0.5568401626170641  0.4208241089190567  0.15709907408276536  1.0000
  C   C11       1.0  0.5315776827793215  0.42698415277366325  0.7657922836207476  1.0000
  C   C12       1.0  0.5417567085785464  0.42553051629386135  0.2337126787601916  1.0000
  C   C13       1.0  0.514226021327005  0.5012224224151184  0.729433335374537  1.0000
  C   C14       1.0  0.5295569993611905  0.49968217318836866  0.2714489226409497  1.0000
  C   C15       1.0  0.5183456903566963  0.5711302187336431  0.7738987546135192  1.0000
  C   C16       1.0  0.5361722114889034  0.5699354832606577  0.22864983913039075  1.0000
  C   C17       1.0  0.5380464680337695  0.5664886145449304  0.8513054848950075  1.0000
  C   C18       1.0  0.5521190697367829  0.5656780585236448  0.15149271030760048  1.0000
  C   C19       1.0  0.5541983072757404  0.49222359254905984  0.8876550170637003  1.0000
  C   C20       1.0  0.5609582667308003  0.491507980106505  0.11360488661304657  1.0000
  C   C21       1.0  0.565857131260948  0.4899035682627474  0.9664956217545821  1.0000
  C   C22       1.0  0.5679264505598383  0.48977987792602573  0.0348711249149076  1.0000
  C   C23       1.0  0.420447010208612  0.16916881176654644  0.4525998395093466  1.0000
  C   C24       1.0  0.5750064305549857  0.17118922264419473  0.5476915602781814  1.0000
  C   C25       1.0  0.4187578283428053  0.25263363645005654  0.45401472878695137  1.0000
  C   C26       1.0  0.5710493291241718  0.25465593228901184  0.5470756484965874  1.0000
  C   C27       1.0  0.4991281078085237  0.12475248586724062  0.4999943138574493  1.0000
  C   C28       1.0  0.5007995580445694  0.040169977482932516  0.4997987041146671  1.0000
  C   C29       1.0  0.5006041145781595  0.9669023915122854  0.49943745644370097  1.0000
  C   C30       1.0  0.41522715372578745  0.8385754066043494  0.45452422796510916  1.0000
  C   C31       1.0  0.5806313110004808  0.8369227017455008  0.5435170068363746  1.0000
  C   C32       1.0  0.41646774889316174  0.7548098131480074  0.45650995600293237  1.0000
  C   C33       1.0  0.5749812445627143  0.7532111220746033  0.5416444038700303  1.0000
  C   C34       1.0  0.4989985682587773  0.8822954785457076  0.49912922831686046  1.0000
  N   N1        1.0  0.4935575994550732  0.2933503808713526  0.5007400122393049  1.0000
  N   N2        1.0  0.49452822967161586  0.7132453518114378  0.49916330835300454  1.0000
  O   O1        1.0  0.5236431841675327  0.43296081343912374  0.3875473801997486  1.0000
  O   O2        1.0  0.46839713380716563  0.43532398987246534  0.614480748359739  1.0000
  O   O3        1.0  0.4794010504752748  0.5664416688556673  0.38461852571752075  1.0000
  O   O4        1.0  0.5096588207079904  0.569065795293561  0.6129356859947632  1.0000
  O   O5        1.0  0.3119423132819534  0.4324395217869822  0.4780769165790915  1.0000
  O   O6        1.0  0.6720434429988346  0.43223822572388587  0.5237519954144785  1.0000
  O   O7        1.0  0.30979747483368675  0.5661905572754907  0.5061441270363216  1.0000
  O   O8        1.0  0.6719656552946419  0.5642535725433151  0.4910635406104332  1.0000
  F   F1        1.0  0.3367136774838997  0.713779689857475  0.4146379354029079  1.0000
  F   F2        1.0  0.6527706578323206  0.7109179434860595  0.5835306283446826  1.0000
  F   F3        1.0  0.5010436148021782  0.6454368092030267  0.7452232575744233  1.0000
  F   F4        1.0  0.5280998551349683  0.644456420473198  0.25884849593244746  1.0000
  F   F5        1.0  0.5392954190735253  0.6354964911040002  0.891835528961998  1.0000
  F   F6        1.0  0.5571651227809654  0.6350950623421385  0.11274626195400829  1.0000
  F   F7        1.0  0.3453578703040847  0.12908915432823423  0.405153602145937  1.0000
  F   F8        1.0  0.6526787291416198  0.13312365422481073  0.5947930491778095  1.0000
  F   F9        1.0  0.3344524253095003  0.8774984657233634  0.4106376184865326  1.0000
  F   F10       1.0  0.6636654762510832  0.8741087763938186  0.587283842128272  1.0000
