data_image0
_chemical_formula_structural       Mn2H32C52N4O8
_chemical_formula_sum              "Mn2 H32 C52 N4 O8"
_cell_length_a       7.079847587402288
_cell_length_b       11.690033727257186
_cell_length_c       14.485313829147675
_cell_angle_alpha    113.81296638633133
_cell_angle_beta     103.05523402213775
_cell_angle_gamma    89.95962965497213

_space_group_name_H-M_alt    "P 1"
_space_group_IT_number       1

loop_
  _space_group_symop_operation_xyz
  'x, y, z'

loop_
  _atom_site_type_symbol
  _atom_site_label
  _atom_site_symmetry_multiplicity
  _atom_site_fract_x
  _atom_site_fract_y
  _atom_site_fract_z
  _atom_site_occupancy
  Mn  Mn1       1.0  0.7499640056151479  0.6194285868139247  4.0782491708936483e-05  1.0000
  Mn  Mn2       1.0  0.25006229362459453  0.3805850449589344  0.9999971898421476  1.0000
  H   H1        1.0  0.04670116522265029  0.7982667882190527  0.2183025735024487  1.0000
  H   H2        1.0  0.45333498887136864  0.5799394598945824  0.7813931355871659  1.0000
  H   H3        1.0  0.9532739850728902  0.20177219543615632  0.7817159299376115  1.0000
  H   H4        1.0  0.546709178227573  0.4200480406665079  0.2185899397048843  1.0000
  H   H5        1.0  0.16902453835207606  0.027242859406513303  0.3210085306183643  1.0000
  H   H6        1.0  0.3311247294849622  0.706243432120708  0.6786905779867638  1.0000
  H   H7        1.0  0.8309592214783875  0.9727952500669946  0.6789940737573517  1.0000
  H   H8        1.0  0.6689172872928283  0.2937299829507722  0.3212835047963907  1.0000
  H   H9        1.0  0.05399091775117171  0.1799299304947156  0.2427171987676076  1.0000
  H   H10       1.0  0.44581110470787894  0.9372053204727779  0.7571240953545127  1.0000
  H   H11       1.0  0.9459877301421146  0.820074421847174  0.7572482426757786  1.0000
  H   H12       1.0  0.5542087035844858  0.0627746218734586  0.24285380136460324  1.0000
  H   H13       1.0  0.8639339118476174  0.21443383260901785  0.08591951059913334  1.0000
  H   H14       1.0  0.6358421657610976  0.12844902948374684  0.9139189857755383  1.0000
  H   H15       1.0  0.1360654509996451  0.7855639474948292  0.9140557435304115  1.0000
  H   H16       1.0  0.36412570447211573  0.8715326896576983  0.08605855974548857  1.0000
  H   H17       1.0  0.7821946704589419  0.6430897488426979  0.2912898309153603  1.0000
  H   H18       1.0  0.7178497183497469  0.35181452202012053  0.7085950325145233  1.0000
  H   H19       1.0  0.21781206927664698  0.35690115639283704  0.7087847832991513  1.0000
  H   H20       1.0  0.2821753174365753  0.6482180998980099  0.2913841235214392  1.0000
  H   H21       1.0  0.7947266079418965  0.6442271092760877  0.46180826236778216  1.0000
  H   H22       1.0  0.7050086351682766  0.1823360319968756  0.5380797157135788  1.0000
  H   H23       1.0  0.20534091441387403  0.35573475907088453  0.5382670440115689  1.0000
  H   H24       1.0  0.2949905893348159  0.817689027133639  0.4618947893756128  1.0000
  H   H25       1.0  0.19943022664448756  0.36061103059173405  0.4052851455592759  1.0000
  H   H26       1.0  0.3010853637307775  0.9555197547913965  0.5948989456709839  1.0000
  H   H27       1.0  0.8005194221649746  0.6393000341594403  0.5947162599487541  1.0000
  H   H28       1.0  0.6988487660984859  0.044534372151538514  0.4050619722941988  1.0000
  H   H29       1.0  0.17093875170643708  0.35577666909193795  0.23112195032299349  1.0000
  H   H30       1.0  0.3295814276551353  0.1250450215602825  0.7689996254760982  1.0000
  H   H31       1.0  0.8290484150234719  0.6441993047050332  0.7689014197054717  1.0000
  H   H32       1.0  0.670415170046624  0.8749913024475549  0.2309803472786527  1.0000
  C   C1        1.0  0.001739347846587667  0.8679155212310617  0.1876525953423352  1.0000
  C   C2        1.0  0.4981134856041222  0.6802539959571661  0.8121415665784895  1.0000
  C   C3        1.0  0.9982635318851366  0.13210566878850472  0.8123590183480828  1.0000
  C   C4        1.0  0.501907034622633  0.3197212324146435  0.18784038864075103  1.0000
  C   C5        1.0  0.06808504709788818  0.996371552993452  0.24452285899593557  1.0000
  C   C6        1.0  0.431741083597899  0.7518455675456652  0.7552709362657666  1.0000
  C   C7        1.0  0.9318981418209091  0.003653398439638501  0.7554760643437105  1.0000
  C   C8        1.0  0.5682914804562031  0.2481325085538728  0.24471052682432057  1.0000
  C   C9        1.0  0.0058780899294106  0.07987997959126862  0.20111866454258376  1.0000
  C   C10       1.0  0.4937916960269107  0.8787802289062516  0.7987523205057486  1.0000
  C   C11       1.0  0.994111818551154  0.9201318643008277  0.7988649771592619  1.0000
  C   C12       1.0  0.5062231930847007  0.12119595507054728  0.20122103821693565  1.0000
  C   C13       1.0  0.8787228474873601  0.03537976369640461  0.10066589652647907  1.0000
  C   C14       1.0  0.6208969515362809  0.9346742990817493  0.8992178412987073  1.0000
  C   C15       1.0  0.12128012576528141  0.9646133052010911  0.8993144291133959  1.0000
  C   C16       1.0  0.37910704317886973  0.0653065519794325  0.10075997825286719  1.0000
  C   C17       1.0  0.8165538595066979  0.9046191901441819  0.0506616328998391  1.0000
  C   C18       1.0  0.6831394254717224  0.8538919434422926  0.9491863852113268  1.0000
  C   C19       1.0  0.18343997271114887  0.09537103804530031  0.9493188190376995  1.0000
  C   C20       1.0  0.31687627545253594  0.1460992315728973  0.050806469270433786  1.0000
  C   C21       1.0  0.8122418283884512  0.11450239223320584  0.04837936130794419  1.0000
  C   C22       1.0  0.687489504799899  0.06605583125561762  0.9514738966697818  1.0000
  C   C23       1.0  0.18775114983672844  0.885491612173546  0.9515960189763819  1.0000
  C   C24       1.0  0.3125053364335529  0.9339315712286408  0.04850850354903004  1.0000
  C   C25       1.0  0.9565787906085818  0.49255964295324633  0.14182779977766563  1.0000
  C   C26       1.0  0.5436327219080397  0.35096938335851047  0.8582022214838219  1.0000
  C   C27       1.0  0.04341383164129547  0.5074332132405174  0.8582148200167409  1.0000
  C   C28       1.0  0.4563865882963682  0.6490358880964994  0.14179702961814666  1.0000
  C   C29       1.0  0.9722983654601478  0.497074908649708  0.2483401873824249  1.0000
  C   C30       1.0  0.5280681349092261  0.24892214330989765  0.7517138609647277  1.0000
  C   C31       1.0  0.027703798070021386  0.5029235760137354  0.7517136186236897  1.0000
  C   C32       1.0  0.47195080253234784  0.7511085805512537  0.24826675811136306  1.0000
  C   C33       1.0  0.8711491450128148  0.5799400061990597  0.3162719667099196  1.0000
  C   C34       1.0  0.629024931762295  0.263721683824798  0.6837200138784638  1.0000
  C   C35       1.0  0.1288647404593704  0.4200406047669318  0.6837904053260785  1.0000
  C   C36       1.0  0.37096616340015487  0.7363071159042818  0.3162561942133593  1.0000
  C   C37       1.0  0.8803575016243881  0.580295069901922  0.41328782737438974  1.0000
  C   C38       1.0  0.6196367560105501  0.16700984008236475  0.5866822768355531  1.0000
  C   C39       1.0  0.11967278571258078  0.419660189977904  0.5867708266995634  1.0000
  C   C40       1.0  0.3803389679104967  0.8330415062858166  0.4132927032911908  1.0000
  C   C41       1.0  0.995740776962798  0.5004398044783546  0.44860385971848166  1.0000
  C   C42       1.0  0.5043688799336793  0.05189384435210801  0.5514258074056428  1.0000
  C   C43       1.0  0.004261460213186284  0.4994835176265085  0.5514225843811785  1.0000
  C   C44       1.0  0.49558002801008166  0.9481527691853202  0.4485411946513693  1.0000
  C   C45       1.0  0.10309931429444669  0.42151987650705536  0.3810742402385755  1.0000
  C   C46       1.0  0.39737487641205865  0.040568975471721606  0.6190566176799521  1.0000
  C   C47       1.0  0.8968914845383013  0.578413789923559  0.6189453462928611  1.0000
  C   C48       1.0  0.6025802762562904  0.959480478131468  0.3809085556483467  1.0000
  C   C49       1.0  0.08924944235981508  0.4184916840886146  0.2828239671275695  1.0000
  C   C50       1.0  0.41123764873611174  0.13589323955007873  0.7172827516353522  1.0000
  C   C51       1.0  0.9107490406198268  0.5814824316437993  0.7171993603729803  1.0000
  C   C52       1.0  0.5887414112421111  0.8641327209545366  0.28269119090226263  1.0000
  N   N1        1.0  0.8780218867609831  0.8238484807346397  0.09419466900401825  1.0000
  N   N2        1.0  0.6216804962661584  0.7295960773574138  0.9056432858170068  1.0000
  N   N3        1.0  0.12197711686027189  0.17615675433732753  0.9058030063932776  1.0000
  N   N4        1.0  0.378337948106143  0.2703941499137983  0.09435370504689895  1.0000
  O   O1        1.0  0.8888780907144209  0.5869212486878725  0.1270759978065855  1.0000
  O   O2        1.0  0.6112248802815542  0.4600330265185876  0.8728996082021396  1.0000
  O   O3        1.0  0.1110650300747835  0.4130893474308408  0.8729766001839889  1.0000
  O   O4        1.0  0.3888372387866354  0.5399864478342736  0.12709730898043864  1.0000
  O   O5        1.0  0.009850652818542496  0.3974003125990109  0.07504204321637084  1.0000
  O   O6        1.0  0.49036284788652307  0.3226958076854984  0.925000145178508  1.0000
  O   O7        1.0  0.990133245838571  0.6026301250730911  0.9250084608173095  1.0000
  O   O8        1.0  0.5096662472130192  0.6773161299097199  0.0749789025087679  1.0000
