data_image0
_chemical_formula_structural       Zn2H4C12N2O10
_chemical_formula_sum              "Zn2 H4 C12 N2 O10"
_cell_length_a       7.813723671975579
_cell_length_b       8.748656815788888
_cell_length_c       14.938528817179291
_cell_angle_alpha    85.26479128093936
_cell_angle_beta     97.32642383155967
_cell_angle_gamma    82.55403569458029

_space_group_name_H-M_alt    "P 1"
_space_group_IT_number       1

loop_
  _space_group_symop_operation_xyz
  'x, y, z'

loop_
  _atom_site_type_symbol
  _atom_site_label
  _atom_site_symmetry_multiplicity
  _atom_site_fract_x
  _atom_site_fract_y
  _atom_site_fract_z
  _atom_site_occupancy
  Zn  Zn1       1.0  0.6946798182582941  0.49197824409083774  0.5402063297463187  1.0000
  Zn  Zn2       1.0  0.3052905079450454  0.5080904998018098  0.45979090537498024  1.0000
  H   H1        1.0  0.2989682940106348  0.016561911477317896  0.4808282741460276  1.0000
  H   H2        1.0  0.7010160825070746  0.9835182265590414  0.5191619815738094  1.0000
  H   H3        1.0  0.20842935830496154  0.47989876400664866  0.6360996915916529  1.0000
  H   H4        1.0  0.7915392774221671  0.5201832123185994  0.36388969200244503  1.0000
  C   C1        1.0  0.45970362187493663  0.7875821008651942  0.4972629758078427  1.0000
  C   C2        1.0  0.5018580623571935  0.49547922924047333  0.9591382286178743  1.0000
  C   C3        1.0  0.4333105576965151  0.959099864568835  0.4940775279727775  1.0000
  C   C4        1.0  0.5666715065418302  0.040973594919719886  0.5059108966187011  1.0000
  C   C5        1.0  0.5402764057962699  0.21248904826645534  0.5027268525219242  1.0000
  C   C6        1.0  0.46391919874994153  0.521860857368111  0.3050411742929526  1.0000
  C   C7        1.0  0.5360718717706803  0.47813441050470834  0.6949599259160308  1.0000
  C   C8        1.0  0.48223979911033865  0.5198407173415591  0.2105605554416172  1.0000
  C   C9        1.0  0.517799770731976  0.479997060409751  0.789464178745618  1.0000
  C   C10       1.0  0.49148500624237096  0.5128360334867068  0.1295767577690086  1.0000
  C   C11       1.0  0.5086110186875602  0.4868886144898212  0.8704392583817225  1.0000
  C   C12       1.0  0.49828890199321313  0.5042062451986669  0.040900383662659606  1.0000
  N   N1        1.0  0.07536090076119001  0.4973516396429859  0.5208432848666718  1.0000
  N   N2        1.0  0.9246039298313846  0.5027327041247247  0.4791473382746646  1.0000
  O   O1        1.0  0.6146870514115508  0.7163385842137586  0.5162622470912339  1.0000
  O   O2        1.0  0.9227063219289987  0.5173855869823498  0.3885111584753886  1.0000
  O   O3        1.0  0.38529212926128753  0.28373169431259265  0.4837410857927082  1.0000
  O   O4        1.0  0.32152225354494857  0.7254242273837902  0.48008454893118113  1.0000
  O   O5        1.0  0.6784599803407473  0.2746473296423774  0.5198978695742795  1.0000
  O   O6        1.0  0.5986892115463788  0.5207392537847612  0.3631400464786267  1.0000
  O   O7        1.0  0.40127153892103706  0.47936724394980246  0.6368653442248872  1.0000
  O   O8        1.0  0.3096378379276458  0.5231554828696758  0.3249579843332243  1.0000
  O   O9        1.0  0.6903459060707038  0.47685785287598753  0.6750350608675221  1.0000
  O   O10       1.0  0.07726570082517986  0.482665117476735  0.6114799221980576  1.0000
