data_image0
_chemical_formula_structural       Zn2H16C44N4Cl8O20
_chemical_formula_sum              "Zn2 H16 C44 N4 Cl8 O20"
_cell_length_a       14.496972659896326
_cell_length_b       15.094771214539614
_cell_length_c       16.78523441137137
_cell_angle_alpha    87.34037402663373
_cell_angle_beta     84.77002022151991
_cell_angle_gamma    89.17547196741481

_space_group_name_H-M_alt    "P 1"
_space_group_IT_number       1

loop_
  _space_group_symop_operation_xyz
  'x, y, z'

loop_
  _atom_site_type_symbol
  _atom_site_label
  _atom_site_symmetry_multiplicity
  _atom_site_fract_x
  _atom_site_fract_y
  _atom_site_fract_z
  _atom_site_occupancy
  Zn  Zn1       1.0  0.6010738434353583  0.5135728269216174  0.4985284117451555  1.0000
  Zn  Zn2       1.0  0.393510203041366  0.509624051274656  0.4962471803775158  1.0000
  H   H1        1.0  0.0511820334779785  0.4697723043536327  0.6160937211587694  1.0000
  H   H2        1.0  0.925622704060281  0.3963678860561188  0.569827098571288  1.0000
  H   H3        1.0  0.2824504309236103  0.5199002479954657  0.24017680621240337  1.0000
  H   H4        1.0  0.7371622534149721  0.27494901665438926  0.6383384369479755  1.0000
  H   H5        1.0  0.22249425786330326  0.4380556261169062  0.7401313266594369  1.0000
  H   H6        1.0  0.7387579227432892  0.7700101126980882  0.38601642797958385  1.0000
  H   H7        1.0  0.32689893773343925  0.7385790563714281  0.3599797459499072  1.0000
  H   H8        1.0  0.7621118062899727  0.2559918784288371  0.3726722571033391  1.0000
  H   H9        1.0  0.935654567614662  0.6356601904582462  0.4176050716446723  1.0000
  H   H10       1.0  0.6326696166975693  0.5328052967451098  0.24137338292265295  1.0000
  H   H11       1.0  0.39995942807893664  0.36702406609256144  0.7257771355327163  1.0000
  H   H12       1.0  0.626157972159959  0.9320880060189579  0.5986856910231424  1.0000
  H   H13       1.0  0.4043802892769505  0.07765139449765708  0.6412772403900531  1.0000
  H   H14       1.0  0.6264559180648349  0.7701409513201795  0.5744223647505888  1.0000
  H   H15       1.0  0.41058467196221926  0.2427824882915601  0.6268718142694423  1.0000
  H   H16       1.0  0.07719881559696519  0.5525834618677194  0.3653510270954783  1.0000
  C   C1        1.0  0.5066474902364034  0.6806699883196855  0.4972128097055231  1.0000
  C   C2        1.0  0.5714072560334246  0.09992890490437388  0.48623230773404186  1.0000
  C   C3        1.0  0.4995513114244545  0.9594163766808632  0.5442050031930419  1.0000
  C   C4        1.0  0.5088560921719035  0.05723515162171109  0.5442039415253247  1.0000
  C   C5        1.0  0.105815816891365  0.534096624377547  0.42166814812494363  1.0000
  C   C6        1.0  0.8932705835805025  0.45092906889242096  0.5375650933872079  1.0000
  C   C7        1.0  0.20184362558026686  0.5294687130845971  0.4236508467679555  1.0000
  C   C8        1.0  0.7969128070069615  0.45622669424142254  0.5418255013460679  1.0000
  C   C9        1.0  0.18769503783009608  0.4797113856713722  0.5559840209272905  1.0000
  C   C10       1.0  0.8023559751728797  0.5795516503828394  0.4551902006096283  1.0000
  C   C11       1.0  0.0914575065102454  0.4862781717935789  0.5595285732439164  1.0000
  C   C12       1.0  0.5212913279433594  0.34280354301404253  0.5221957566138684  1.0000
  C   C13       1.0  0.8989469203738876  0.5817619231219168  0.4517577383298457  1.0000
  C   C14       1.0  0.048367482055205406  0.5129824927530962  0.4911048260742846  1.0000
  C   C15       1.0  0.9464377486959419  0.5155021980744223  0.4928646745936689  1.0000
  C   C16       1.0  0.5039146048442477  0.47380684029846515  0.3500406311894792  1.0000
  C   C17       1.0  0.45435794936882706  0.5183149211629043  0.6487724875755275  1.0000
  C   C18       1.0  0.5161095110767135  0.4465857280029581  0.264603598358974  1.0000
  C   C19       1.0  0.45015488649008967  0.49909000665180503  0.7377050630036377  1.0000
  C   C20       1.0  0.4594459334752726  0.38436278235270993  0.23283690212993943  1.0000
  C   C21       1.0  0.4797723693871347  0.5603378963950263  0.7898273929815856  1.0000
  C   C22       1.0  0.46526329850117076  0.3746528538317476  0.14954547244178673  1.0000
  C   C23       1.0  0.5702580927985396  0.8131792214811708  0.5566702135226365  1.0000
  C   C24       1.0  0.48623066120535435  0.535591825763774  0.8708700338188179  1.0000
  C   C25       1.0  0.5285526509995933  0.4264899571191734  0.09769101210377326  1.0000
  C   C26       1.0  0.46200101816697975  0.4485929351436511  0.9000712797809096  1.0000
  C   C27       1.0  0.5935321354321843  0.47804603167444526  0.13292608223752472  1.0000
  C   C28       1.0  0.42811629995215833  0.3899118016534829  0.8470938553410148  1.0000
  C   C29       1.0  0.5858443665515978  0.489172162540676  0.21493300007784188  1.0000
  C   C30       1.0  0.42284518100485263  0.4143888396242445  0.7667502168614246  1.0000
  C   C31       1.0  0.5696554102105437  0.9032551881060229  0.5702494110854345  1.0000
  C   C32       1.0  0.45333771821938035  0.10990506311564018  0.5962976370156666  1.0000
  C   C33       1.0  0.2567498851547824  0.5578193101877317  0.3457526100584615  1.0000
  C   C34       1.0  0.45738797883184645  0.20198040621254174  0.589120858996871  1.0000
  C   C35       1.0  0.7446332103651372  0.39564751006664517  0.6037015989815939  1.0000
  C   C36       1.0  0.22603347411811103  0.4329440563814728  0.6276686856022379  1.0000
  C   C37       1.0  0.7560662149358778  0.6461515498297812  0.4013189650046199  1.0000
  C   C38       1.0  0.3460990486731034  0.7911521606420565  0.4575496325612107  1.0000
  C   C39       1.0  0.6383359570992582  0.23668853601651552  0.41225495945093366  1.0000
  C   C40       1.0  0.49964604133152324  0.7765232243065225  0.5173893687570226  1.0000
  C   C41       1.0  0.5196378821158305  0.2435236610792231  0.5311737570322704  1.0000
  C   C42       1.0  0.424655420139743  0.8301537124310627  0.49667473218703845  1.0000
  C   C43       1.0  0.5784427043358915  0.19249923965141846  0.47990528074460304  1.0000
  C   C44       1.0  0.42568080014812176  0.9210670469367627  0.509794684846831  1.0000
  N   N1        1.0  0.5326455686599161  0.43717258435287226  0.013770816841386592  1.0000
  N   N2        1.0  0.4591379874526495  0.4218895766614068  0.9818853717689887  1.0000
  N   N3        1.0  0.2436950048659696  0.5027143771153817  0.4894400448156446  1.0000
  N   N4        1.0  0.7509080576474076  0.5185471091358808  0.5000260871447181  1.0000
  Cl  Cl1       1.0  0.5070168116780849  0.6662030916671924  0.7536211016259029  1.0000
  Cl  Cl2       1.0  0.38670932038933603  0.31754154107988347  0.2947784274634272  1.0000
  Cl  Cl3       1.0  0.5173120093329473  0.6137614576393207  0.9343118333719144  1.0000
  Cl  Cl4       1.0  0.3983201298349144  0.2964795387315107  0.11225309223040364  1.0000
  Cl  Cl5       1.0  0.6803246683185121  0.5331995461932522  0.07448572687886211  1.0000
  Cl  Cl6       1.0  0.3966538748428332  0.284156051803798  0.8820623174330746  1.0000
  Cl  Cl7       1.0  0.3375883667608051  0.9881271104832976  0.47684788646901655  1.0000
  Cl  Cl8       1.0  0.6358832590215684  0.037639143381468905  0.416348692360735  1.0000
  O   O1        1.0  0.5880988352644181  0.6465738968013923  0.4932112043139155  1.0000
  O   O2        1.0  0.24684640419898332  0.49862745416136517  0.28982319792834926  1.0000
  O   O3        1.0  0.6931098980075702  0.4230595752769516  0.6583829678645825  1.0000
  O   O4        1.0  0.7717140608576543  0.31014409627413647  0.5952826877742722  1.0000
  O   O5        1.0  0.26786075895450523  0.362681854907457  0.6233413868031973  1.0000
  O   O6        1.0  0.19617191741187412  0.4721027518556865  0.6962174073242763  1.0000
  O   O7        1.0  0.7188429418963906  0.626002716180409  0.3429039601472184  1.0000
  O   O8        1.0  0.77022461352761  0.7297915540429756  0.4226608829427504  1.0000
  O   O9        1.0  0.2708766553180694  0.7728427512802225  0.49258442769907845  1.0000
  O   O10       1.0  0.37043009920814274  0.7808771780770625  0.3791471901884761  1.0000
  O   O11       1.0  0.6078873211159675  0.2752744091649574  0.35473951995673747  1.0000
  O   O12       1.0  0.4435549141721893  0.38170312325033245  0.5229870238248466  1.0000
  O   O13       1.0  0.7301614382607653  0.2272573785509522  0.4208920608895709  1.0000
  O   O14       1.0  0.43287312829676233  0.6408991192264749  0.485840375744459  1.0000
  O   O15       1.0  0.6008946252197661  0.3789728937897152  0.5145321806497802  1.0000
  O   O16       1.0  0.5767273380919917  0.4895714977797495  0.3825107558253577  1.0000
  O   O17       1.0  0.3780462489805743  0.523294869391826  0.6167564884631956  1.0000
  O   O18       1.0  0.42058848881650585  0.48321601577162443  0.38034079762137907  1.0000
  O   O19       1.0  0.5348355974886019  0.523193016731298  0.6137093111579544  1.0000
  O   O20       1.0  0.2953129953190939  0.6288090137136776  0.3324842728415546  1.0000
