data_image0
_chemical_formula_structural       Zn4H24C32N24O24
_chemical_formula_sum              "Zn4 H24 C32 N24 O24"
_cell_length_a       5.759507454357681
_cell_length_b       12.21778466814081
_cell_length_c       17.141110736343585
_cell_angle_alpha    90.00142944039604
_cell_angle_beta     89.99959627456046
_cell_angle_gamma    100.0962723076405

_space_group_name_H-M_alt    "P 1"
_space_group_IT_number       1

loop_
  _space_group_symop_operation_xyz
  'x, y, z'

loop_
  _atom_site_type_symbol
  _atom_site_label
  _atom_site_symmetry_multiplicity
  _atom_site_fract_x
  _atom_site_fract_y
  _atom_site_fract_z
  _atom_site_occupancy
  Zn  Zn1       1.0  0.1448383158636943  0.21405731756524907  0.8953730582133232  1.0000
  Zn  Zn2       1.0  0.35515308137631524  0.28593733021106965  0.3953666878834881  1.0000
  Zn  Zn3       1.0  0.8551548269521875  0.7859367659969649  0.10463073974825221  1.0000
  Zn  Zn4       1.0  0.6448632272013269  0.714067537936266  0.6046306928180201  1.0000
  H   H1        1.0  0.7130860530002112  0.061396160370620116  0.06074873215181499  1.0000
  H   H2        1.0  0.7868805361851444  0.4385972439654254  0.5607452320413273  1.0000
  H   H3        1.0  0.2869302555780139  0.9386087077665194  0.9392480651569243  1.0000
  H   H4        1.0  0.21311824957808062  0.5614118038295715  0.4392544822949204  1.0000
  H   H5        1.0  0.6074311404887495  0.38866987508281164  0.1338584905179871  1.0000
  H   H6        1.0  0.8926146295725417  0.11133846562631788  0.6338576198916002  1.0000
  H   H7        1.0  0.39257571818114917  0.6113283506961977  0.8661458908522164  1.0000
  H   H8        1.0  0.10736272592157554  0.8886597953120585  0.36613742723950793  1.0000
  H   H9        1.0  0.32094745220692295  0.37739170071226613  0.021761072918430095  1.0000
  H   H10       1.0  0.17910016557733846  0.12261726871036421  0.5217569675781206  1.0000
  H   H11       1.0  0.6790600334531406  0.6226081878283765  0.9782468088221491  1.0000
  H   H12       1.0  0.8208932907395053  0.8773776461307109  0.4782427466409871  1.0000
  H   H13       1.0  0.047037788764129104  0.3920591093185166  0.1468993675317236  1.0000
  H   H14       1.0  0.4529703553511126  0.10792849744036201  0.6468889188144331  1.0000
  H   H15       1.0  0.9529727088665679  0.6079349534657652  0.8531044304032918  1.0000
  H   H16       1.0  0.5470199659931582  0.8920581039697809  0.3531148790851333  1.0000
  H   H17       1.0  0.7194404878502142  0.06130649812504881  0.21991927033825223  1.0000
  H   H18       1.0  0.7805360480687253  0.43868746726595725  0.7199262921958081  1.0000
  H   H19       1.0  0.28055198297843026  0.9387042207223645  0.7800827775934636  1.0000
  H   H20       1.0  0.21944084842483852  0.5613049722143729  0.280072838633771  1.0000
  H   H21       1.0  0.004456136760126106  0.09210494048186041  0.3329529785033642  1.0000
  H   H22       1.0  0.49548886420758004  0.4078792641389981  0.8329570506948585  1.0000
  H   H23       1.0  0.9955081073654383  0.9078999901318312  0.6670519863837966  1.0000
  H   H24       1.0  0.504499867156568  0.5921123294975246  0.167044997073063  1.0000
  C   C1        1.0  0.6310967725138639  0.1351867884576023  0.0560946197967311  1.0000
  C   C2        1.0  0.8688725020206721  0.3648089451480913  0.5560895626568723  1.0000
  C   C3        1.0  0.3689137026273954  0.8648164231920676  0.9439010107206727  1.0000
  C   C4        1.0  0.13113308017064906  0.6351951041259698  0.4439084014464498  1.0000
  C   C5        1.0  0.6860802349179025  0.2252701112130353  0.108327072188743  1.0000
  C   C6        1.0  0.8139152801102796  0.2747282483434432  0.6083264195995568  1.0000
  C   C7        1.0  0.3139160428723216  0.7747322857495362  0.8916708919140816  1.0000
  C   C8        1.0  0.18607043929321776  0.7252691708761176  0.3916697942969094  1.0000
  C   C9        1.0  0.5748896268324872  0.3158273941871883  0.096271065387711  1.0000
  C   C10       1.0  0.9251379011394218  0.18418630854934287  0.5962754706208884  1.0000
  C   C11       1.0  0.4251224157906607  0.6841799742544127  0.9037268987352007  1.0000
  C   C12       1.0  0.0748377188702775  0.8158119545177981  0.40372249347670675  1.0000
  C   C13       1.0  0.4169554431541869  0.31020413087686904  0.0343295287356611  1.0000
  C   C14       1.0  0.0830629821178803  0.18979699556420118  0.534328072798182  1.0000
  C   C15       1.0  0.5830383266589153  0.68979161532463  0.9656707688831077  1.0000
  C   C16       1.0  0.9169121788959628  0.8101954459633374  0.46566930785576227  1.0000
  C   C17       1.0  0.02641397414687669  0.321036831457576  0.18646505029416008  1.0000
  C   C18       1.0  0.47357658994631896  0.1789471889083103  0.6864581311520864  1.0000
  C   C19       1.0  0.9735872190838959  0.6789555789948237  0.8135375808548203  1.0000
  C   C20       1.0  0.5264182883551598  0.8210468925047394  0.3135415830574715  1.0000
  C   C21       1.0  0.8532011370003119  0.22593033259705209  0.17317618044079097  1.0000
  C   C22       1.0  0.646783689006078  0.2740653158670909  0.673171940490036  1.0000
  C   C23       1.0  0.1467910428303157  0.7740704058716192  0.8268247006173937  1.0000
  C   C24       1.0  0.3532028028918858  0.7259387562117183  0.3268231066786811  1.0000
  C   C25       1.0  0.8460929342058136  0.1384630181962621  0.2253295626386418  1.0000
  C   C26       1.0  0.6538668854982179  0.361523670642633  0.7253291847698334  1.0000
  C   C27       1.0  0.1538995591169581  0.8615385517042001  0.7746759855685639  1.0000
  C   C28       1.0  0.34610147908988864  0.6384737693650636  0.2746676125459686  1.0000
  C   C29       1.0  0.0024534147141963888  0.1548635754143248  0.2881233039837383  1.0000
  C   C30       1.0  0.4975050789265367  0.34512237300156556  0.7881204238966646  1.0000
  C   C31       1.0  0.9975382836176296  0.8451404906146323  0.7118822442467945  1.0000
  C   C32       1.0  0.5024770240114691  0.6548700602453864  0.21187870692494934  1.0000
  N   N1        1.0  0.3731372632690651  0.2215805298217433  0.9874840782256555  1.0000
  N   N2        1.0  0.1268618308291209  0.2784198233180462  0.48748060226926526  1.0000
  N   N3        1.0  0.6268506731029645  0.7784135599636527  0.0125191363511306  1.0000
  N   N4        1.0  0.8731368319298198  0.7215750853304286  0.5125214455129381  1.0000
  N   N5        1.0  0.48053632896264276  0.1339113356273174  0.9970711981981281  1.0000
  N   N6        1.0  0.01944871646742285  0.36608437911945657  0.49707135266607594  1.0000
  N   N7        1.0  0.5194708432152667  0.8660877213082047  0.0029220987164109  1.0000
  N   N8        1.0  0.9805731120456257  0.6339213142466845  0.5029318619620113  1.0000
  N   N9        1.0  0.15653919821124868  0.24932880911926958  0.2981133411718915  1.0000
  N   N10       1.0  0.34343238666575354  0.2506508189367693  0.7981080885035041  1.0000
  N   N11       1.0  0.8434561390813826  0.7506710939149526  0.7018916236234531  1.0000
  N   N12       1.0  0.6565598156619431  0.7493407705339763  0.2018933758663408  1.0000
  N   N13       1.0  0.17437025099852832  0.3324441836238138  0.2465450470535799  1.0000
  N   N14       1.0  0.32562493951216714  0.16753610898094715  0.7465389589247451  1.0000
  N   N15       1.0  0.8256293522509496  0.6675532190753516  0.7534570007492931  1.0000
  N   N16       1.0  0.6743781571985181  0.8324521405443124  0.253462505398943  1.0000
  N   N17       1.0  0.8308592161616984  0.04840618701571489  0.8427403524915604  1.0000
  N   N18       1.0  0.669139387601369  0.45156376582470864  0.3427386500727607  1.0000
  N   N19       1.0  0.16914592953494878  0.951582891649437  0.1572535277304041  1.0000
  N   N20       1.0  0.33086412311807584  0.5484486031136697  0.657255230358075  1.0000
  N   N21       1.0  0.9456603124328566  0.4054396384770342  0.9185324793818097  1.0000
  N   N22       1.0  0.5543773377281624  0.09456784926328507  0.41854113364016854  1.0000
  N   N23       1.0  0.054368771502964805  0.5945668779281661  0.0814707352425401  1.0000
  N   N24       1.0  0.44562585948738587  0.9054436884472068  0.5814597474969645  1.0000
  O   O1        1.0  0.8125172083505633  0.14096624089125953  0.8127670636721618  1.0000
  O   O2        1.0  0.6874622199881983  0.3589976971177364  0.31277416611317216  1.0000
  O   O3        1.0  0.18749408428283224  0.8590253255606156  0.1872250663842081  1.0000
  O   O4        1.0  0.31254003674386155  0.6410113464197167  0.6872197142901016  1.0000
  O   O5        1.0  0.9951042091472716  0.0494189744378843  0.8960382914774598  1.0000
  O   O6        1.0  0.5049194794809608  0.4505736043724013  0.3960399875883667  1.0000
  O   O7        1.0  0.004897297585053172  0.9505742672831728  0.1039596725362912  1.0000
  O   O8        1.0  0.49508200475252556  0.5494287863771704  0.6039591432920233  1.0000
  O   O9        1.0  0.7055101678560193  0.959421017390966  0.8241669729121881  1.0000
  O   O10       1.0  0.7944991926389946  0.5405460564865976  0.3241529378893658  1.0000
  O   O11       1.0  0.29451295965089497  0.0405697031661276  0.1758251571186946  1.0000
  O   O12       1.0  0.20548713126053997  0.45946217444154763  0.6758432761019861  1.0000
  O   O13       1.0  0.9129731551195024  0.30326014556399633  0.9439541301729476  1.0000
  O   O14       1.0  0.5870306971776813  0.1967416175354302  0.44397383024154635  1.0000
  O   O15       1.0  0.08702218218311943  0.6967397572968963  0.0560409169453777  1.0000
  O   O16       1.0  0.413007668663937  0.8032757001486033  0.5560270508933485  1.0000
  O   O17       1.0  0.1244583309813194  0.4396378957825533  0.8777117053813726  1.0000
  O   O18       1.0  0.3756067420583876  0.060371849232936405  0.37770185859177025  1.0000
  O   O19       1.0  0.8755702939533592  0.560362799174797  0.12229617633421701  1.0000
  O   O20       1.0  0.6243998811289231  0.9396579822668584  0.6222949389529049  1.0000
  O   O21       1.0  0.7961711074641116  0.46426887000519196  0.9355163747400611  1.0000
  O   O22       1.0  0.7038641460060832  0.0357375507886815  0.4355270322411542  1.0000
  O   O23       1.0  0.20389124160846717  0.5357475874638028  0.0644973409915934  1.0000
  O   O24       1.0  0.29609901212817397  0.964259895615527  0.5644790993668707  1.0000
