data_image0
_chemical_formula_structural       Zn2H20C44S4N2O22
_chemical_formula_sum              "Zn2 H20 C44 S4 N2 O22"
_cell_length_a       11.872484566036704
_cell_length_b       14.568808306752329
_cell_length_c       16.009913828536508
_cell_angle_alpha    103.73077075313245
_cell_angle_beta     85.50508361445925
_cell_angle_gamma    111.21514449880368

_space_group_name_H-M_alt    "P 1"
_space_group_IT_number       1

loop_
  _space_group_symop_operation_xyz
  'x, y, z'

loop_
  _atom_site_type_symbol
  _atom_site_label
  _atom_site_symmetry_multiplicity
  _atom_site_fract_x
  _atom_site_fract_y
  _atom_site_fract_z
  _atom_site_occupancy
  Zn  Zn1       1.0  0.5489853199260183  0.6009450470750224  0.492122039306892  1.0000
  Zn  Zn2       1.0  0.45447801740746036  0.3955980817137927  0.5025424501413411  1.0000
  H   H1        1.0  0.4242775028366594  0.7341105828794454  0.06027558265485309  1.0000
  H   H2        1.0  0.34275160145787  0.21888374761657303  0.9371178742233681  1.0000
  H   H3        1.0  0.39431206130028335  0.8632105008570364  0.6048225483596141  1.0000
  H   H4        1.0  0.643051138141999  0.1525312078797896  0.41762345054066685  1.0000
  H   H5        1.0  0.3833881895592982  0.243376818242659  0.24154878960317208  1.0000
  H   H6        1.0  0.4676765570942508  0.7285483177358857  0.755732751044917  1.0000
  H   H7        1.0  0.43640123458367  0.6243770006280871  0.14930173212356831  1.0000
  H   H8        1.0  0.39700261188072977  0.34060288578964304  0.8470992738985785  1.0000
  H   H9        1.0  0.28636915010213226  0.9753882772055321  0.6741245708213057  1.0000
  H   H10       1.0  0.7640401039154483  0.0477505522848531  0.3587678240644294  1.0000
  H   H11       1.0  0.467108273401287  0.7682799624259857  0.5394739590644377  1.0000
  H   H12       1.0  0.5307084071388317  0.2254003110756031  0.45365937623488856  1.0000
  H   H13       1.0  0.7516241977496564  0.7218325250925164  0.394431336772719  1.0000
  H   H14       1.0  0.2848045008224247  0.29335288789231845  0.6298554761797419  1.0000
  H   H15       1.0  0.6424624495531716  0.6431417439368021  0.10452360800807274  1.0000
  H   H16       1.0  0.7365726409096214  0.5093503034517114  0.8598330249118646  1.0000
  H   H17       1.0  0.378295259706178  0.8955426014842234  0.8570989241196543  1.0000
  H   H18       1.0  0.39686297902441947  0.05731898222520471  0.134833605298752  1.0000
  H   H19       1.0  0.19232284017828505  0.20889628477982572  0.7302522448308791  1.0000
  H   H20       1.0  0.8723229530341714  0.821332865853499  0.3132028126773179  1.0000
  C   C1        1.0  0.5103296818425066  0.5674404573559287  0.6638965469853416  1.0000
  C   C2        1.0  0.48207926419566155  0.42875646459346245  0.33169401188717984  1.0000
  C   C3        1.0  0.45549676559027574  0.6409320940397906  0.9389870904694106  1.0000
  C   C4        1.0  0.40558503592501444  0.33054428470806135  0.05715728954377401  1.0000
  C   C5        1.0  0.4510452829067475  0.4735307458738376  0.9524914912063238  1.0000
  C   C6        1.0  0.4555925409270003  0.5061413297556216  0.04305255896179723  1.0000
  C   C7        1.0  0.4471086983112258  0.6027373382247347  0.08009308534646922  1.0000
  C   C8        1.0  0.4115689418527779  0.36774588833247185  0.9161299693925712  1.0000
  C   C9        1.0  0.44084871213097193  0.6650479409899646  0.029914227742573025  1.0000
  C   C10       1.0  0.382318998230268  0.2990270971895442  0.9667802247415479  1.0000
  C   C11       1.0  0.3093506921426511  0.1550535378981124  0.6357544156888864  1.0000
  C   C12       1.0  0.7347741154886194  0.8645286023375008  0.3930874501218539  1.0000
  C   C13       1.0  0.3288090772319734  0.23901468581811264  0.6024920957881861  1.0000
  C   C14       1.0  0.7029222956140445  0.7735814734133019  0.4178972060808519  1.0000
  C   C15       1.0  0.46815038574615647  0.20127481192812985  0.504319548364009  1.0000
  C   C16       1.0  0.5443101235344799  0.8007627482854645  0.5007125923598679  1.0000
  C   C17       1.0  0.45609731521552993  0.11372113476203792  0.5323235435555276  1.0000
  C   C18       1.0  0.5710036879788376  0.8964575475001696  0.48312117332379495  1.0000
  C   C19       1.0  0.37101003905667806  0.0872732441411301  0.5986095425827641  1.0000
  C   C20       1.0  0.6673052892090824  0.9290301021183255  0.42526490254650173  1.0000
  C   C21       1.0  0.526490163178707  0.05150309361727071  0.495371360683599  1.0000
  C   C22       1.0  0.5021903793379395  0.9596556070542733  0.5208569233604337  1.0000
  C   C23       1.0  0.2831304200900321  0.4991533898632029  0.49965344677445955  1.0000
  C   C24       1.0  0.7204962141976454  0.4989041945186514  0.4964677670456581  1.0000
  C   C25       1.0  0.4131079627422595  0.9336061001905521  0.5846975286119473  1.0000
  C   C26       1.0  0.6214629553274592  0.0807244863963916  0.4359568341415708  1.0000
  C   C27       1.0  0.3513351316280905  0.9954359624477008  0.6237820729727446  1.0000
  C   C28       1.0  0.6905341894956081  0.022996247319348094  0.40267725651389696  1.0000
  C   C29       1.0  0.16157323651934524  0.49902482995677405  0.4991248054027295  1.0000
  C   C30       1.0  0.8422337708789841  0.49951803251994426  0.4970806451068697  1.0000
  C   C31       1.0  0.058621313242028385  0.49916359855304654  0.498480874546857  1.0000
  C   C32       1.0  0.9450532980718478  0.4991790653609557  0.4977179169043068  1.0000
  C   C33       1.0  0.4981946591319685  0.5932287259784985  0.7603566540987073  1.0000
  C   C34       1.0  0.46446223860577635  0.3987876466083194  0.2352623213611125  1.0000
  C   C35       1.0  0.4557938412040344  0.7060983577062104  0.8850507571236577  1.0000
  C   C36       1.0  0.38422158855998123  0.261604856230754  0.1115324064892178  1.0000
  C   C37       1.0  0.47059206544469845  0.680255721585148  0.7972895663157189  1.0000
  C   C38       1.0  0.40612313844084724  0.2953531465135272  0.1988545660504641  1.0000
  C   C39       1.0  0.5065098917718558  0.531248167349311  0.8122703501324151  1.0000
  C   C40       1.0  0.49598426027581877  0.46781028614138626  0.18215647177807168  1.0000
  C   C41       1.0  0.4714307717065084  0.5467612103450393  0.9001648323571344  1.0000
  C   C42       1.0  0.45359818563977683  0.4368273456586139  0.09538872815421941  1.0000
  C   C43       1.0  0.23203095568830184  0.1480471134656227  0.7126087168539215  1.0000
  C   C44       1.0  0.8351983167918888  0.8837116722661662  0.3310676919015734  1.0000
  S   S1        1.0  0.6162119213529922  0.588691739474193  0.2203213339641223  1.0000
  S   S2        1.0  0.5939540330033141  0.45116471483493836  0.7672673644500421  1.0000
  S   S3        1.0  0.44206518566952013  0.8252217448319997  0.9347862874347399  1.0000
  S   S4        1.0  0.3198441013171163  0.1288000086390966  0.0663035985754235  1.0000
  N   N1        1.0  0.4052138614080719  0.2607275769655857  0.5369746288433177  1.0000
  N   N2        1.0  0.6079889622695804  0.7416509400679561  0.4694559094366966  1.0000
  O   O1        1.0  0.5632393155136627  0.6385068407676046  0.6262130395451208  1.0000
  O   O2        1.0  0.4724352315223329  0.3592035335953201  0.3700423370709061  1.0000
  O   O3        1.0  0.45744026821045486  0.4744740628886107  0.6294018422738504  1.0000
  O   O4        1.0  0.4970682820064028  0.5200498594973981  0.3669817375046733  1.0000
  O   O5        1.0  0.36778440053938516  0.5852426774813325  0.5125203423006468  1.0000
  O   O6        1.0  0.6366848298692462  0.42010514873062743  0.5102794735000984  1.0000
  O   O7        1.0  0.29401081913378146  0.41308635342296907  0.48730534188559455  1.0000
  O   O8        1.0  0.708605887398548  0.5772049082475804  0.4819754126949789  1.0000
  O   O9        1.0  0.5700586287222152  0.668542701843336  0.2564524884360679  1.0000
  O   O10       1.0  0.7030141103929923  0.5702428864822411  0.2650387734550391  1.0000
  O   O11       1.0  0.6850511780580748  0.6115549568123271  0.1324547115349688  1.0000
  O   O12       1.0  0.5202749458302734  0.347376050785563  0.735505686772278  1.0000
  O   O13       1.0  0.6865323272341541  0.5064255269903839  0.7157753236863655  1.0000
  O   O14       1.0  0.6599324951102687  0.45199111851847107  0.8522936859825094  1.0000
  O   O15       1.0  0.32441622157639227  0.8103665887052787  0.9730772708591074  1.0000
  O   O16       1.0  0.5493562789033319  0.884760278231049  0.9855209348956605  1.0000
  O   O17       1.0  0.44654842268747796  0.8717310708246019  0.8519739169488644  1.0000
  O   O18       1.0  0.19403999346103265  0.10484174503267242  0.05114860614068559  1.0000
  O   O19       1.0  0.39705880572435603  0.099767910696535  0.9991445823303308  1.0000
  O   O20       1.0  0.3282363190906211  0.08071871663397451  0.1456509033997833  1.0000
  O   O21       1.0  0.21273766814238831  0.0860769014858462  0.7570131702810983  1.0000
  O   O22       1.0  0.8764665490899688  0.9579684854828159  0.2996090770513788  1.0000
