data_image0
_chemical_formula_structural       ZnH32C36N14O6
_chemical_formula_sum              "Zn1 H32 C36 N14 O6"
_cell_length_a       7.211296827434792
_cell_length_b       8.753236923945998
_cell_length_c       15.768056716178984
_cell_angle_alpha    81.56631213570071
_cell_angle_beta     77.76840319243179
_cell_angle_gamma    69.03675228234242

_space_group_name_H-M_alt    "P 1"
_space_group_IT_number       1

loop_
  _space_group_symop_operation_xyz
  'x, y, z'

loop_
  _atom_site_type_symbol
  _atom_site_label
  _atom_site_symmetry_multiplicity
  _atom_site_fract_x
  _atom_site_fract_y
  _atom_site_fract_z
  _atom_site_occupancy
  Zn  Zn1       1.0  0.4999982808826288  2.0874539789993674e-07  5.583027799918667e-07  1.0000
  H   H1        1.0  0.9042219170351945  0.9554558353941756  0.08411957563411221  1.0000
  H   H2        1.0  0.0957760042541125  0.0445450113130832  0.9158802416060112  1.0000
  H   H3        1.0  0.6743474729889557  0.5879229356621352  0.058429762886760266  1.0000
  H   H4        1.0  0.32565186857021183  0.41207790777811226  0.941569915261887  1.0000
  H   H5        1.0  0.4832022831333659  0.8312444792736002  0.20866707595983766  1.0000
  H   H6        1.0  0.5167934044132919  0.16875146790788878  0.7913339942479851  1.0000
  H   H7        1.0  0.10695563319562497  0.2855638462029475  0.11203234951145186  1.0000
  H   H8        1.0  0.8930437168871138  0.7144369954848172  0.8879685963360088  1.0000
  H   H9        1.0  0.18059090123320232  0.785109328148799  0.1649310357424767  1.0000
  H   H10       1.0  0.8194080271968788  0.21488906520941944  0.8350682485701666  1.0000
  H   H11       1.0  0.277657657394215  0.5746944656319287  0.14572668890202317  1.0000
  H   H12       1.0  0.7223431001730133  0.4253063754175557  0.8542722163057305  1.0000
  H   H13       1.0  0.8715027577113831  0.3720197028722864  0.24793773234517852  1.0000
  H   H14       1.0  0.12850044431363725  0.627978678056195  0.7520630362412459  1.0000
  H   H15       1.0  0.02057988641351469  0.33073876869880076  0.3305156097096216  1.0000
  H   H16       1.0  0.9794238255745779  0.6692583842407984  0.669485843187168  1.0000
  H   H17       1.0  0.7789005223670384  0.7653003917977658  0.29037562164290154  1.0000
  H   H18       1.0  0.22109789609996972  0.2346992295493351  0.7096229783593697  1.0000
  H   H19       1.0  0.40558870921253737  0.47068591898585044  0.2781832877166011  1.0000
  H   H20       1.0  0.5944115469151967  0.5293161483000332  0.7218162008796014  1.0000
  H   H21       1.0  0.6710191868883512  0.1653775102009902  0.2539907802302608  1.0000
  H   H22       1.0  0.32897914753003465  0.8346257865882905  0.7460094308458594  1.0000
  H   H23       1.0  0.9234377389675787  0.2130732667921649  0.468713053078524  1.0000
  H   H24       1.0  0.07656495735616181  0.7869263412489501  0.5312876650469319  1.0000
  H   H25       1.0  0.7116794061027247  0.6806556040155414  0.4442230937854532  1.0000
  H   H26       1.0  0.2883232689120661  0.3193440084067872  0.5557744550929654  1.0000
  H   H27       1.0  0.3430818063575885  0.39106361940098816  0.4332577632199843  1.0000
  H   H28       1.0  0.6569175394633647  0.608937223163018  0.566742548778066  1.0000
  H   H29       1.0  0.45071555351231757  0.03506537080304639  0.3546458569972798  1.0000
  H   H30       1.0  0.5492828862636331  0.9649342461628477  0.6453559122520288  1.0000
  H   H31       1.0  0.713395346966287  0.07697516566284432  0.5691230078327718  1.0000
  H   H32       1.0  0.2866077624865255  0.9230268924602992  0.43087810412868777  1.0000
  C   C1        1.0  0.8768843391789004  0.8399278802856716  0.0888617953987634  1.0000
  C   C2        1.0  0.12311408781168613  0.16007173930894678  0.9111380723023217  1.0000
  C   C3        1.0  0.7633550273981271  0.650440999342308  0.07722618865716406  1.0000
  C   C4        1.0  0.2366443141610333  0.3495598440979463  0.922773489491483  1.0000
  C   C5        1.0  0.365360071107844  0.9497618778941757  0.2044044966423613  1.0000
  C   C6        1.0  0.6346370324468753  0.050234066896550196  0.795595800624575  1.0000
  C   C7        1.0  0.17752334512233867  0.1781121906501966  0.15272828789696286  1.0000
  C   C8        1.0  0.8224765149234726  0.8218874230486932  0.8472733422608698  1.0000
  C   C9        1.0  0.14527429644211765  0.6710244105700552  0.17652442130020768  1.0000
  C   C10       1.0  0.8547245394157629  0.32897765998283995  0.8234752063874706  1.0000
  C   C11       1.0  0.9507614630047954  0.2759267473384809  0.2935535256851978  1.0000
  C   C12       1.0  0.04924316355187125  0.7240716294467475  0.706447737659154  1.0000
  C   C13       1.0  0.09735016638888534  0.6240553631615171  0.272376127651789  1.0000
  C   C14       1.0  0.9026492634806899  0.3759418039603091  0.7276225732724055  1.0000
  C   C15       1.0  0.8140799850293378  0.19695834386374134  0.3542697384140894  1.0000
  C   C16       1.0  0.18591936505340087  0.8030424978240233  0.6457312074333642  1.0000
  C   C17       1.0  0.9035637280359979  0.6819072384427469  0.3212127203075426  1.0000
  C   C18       1.0  0.0964346904310105  0.3180923829043606  0.678785879694729  1.0000
  C   C19       1.0  0.2533825585831267  0.5197161584509259  0.3150500746133246  1.0000
  C   C20       1.0  0.7466167744524554  0.4802846867418041  0.684948335836502  1.0000
  C   C21       1.0  0.6794132019413225  0.14553654397358431  0.32335525904006357  1.0000
  C   C22       1.0  0.3205865527469172  0.8544667495486918  0.6766448129445806  1.0000
  C   C23       1.0  0.8204024152262194  0.1727695265098319  0.4433993478212486  1.0000
  C   C24       1.0  0.1795996828240334  0.8272349858385866  0.556601663218288  1.0000
  C   C25       1.0  0.8657164333834827  0.6337399668293529  0.40942302133999675  1.0000
  C   C26       1.0  0.1342834053533792  0.36625965125074333  0.5905754395707916  1.0000
  C   C27       1.0  0.21635478559279162  0.4735775308115464  0.40365061030355043  1.0000
  C   C28       1.0  0.7836445517045832  0.5264233135049493  0.5963484339956863  1.0000
  C   C29       1.0  0.5565788380159304  0.07046191705510549  0.3804989680051847  1.0000
  C   C30       1.0  0.44342384978423144  0.9295376927384992  0.6195004824214648  1.0000
  C   C31       1.0  0.6989512297952915  0.09588831169810419  0.5005800476724999  1.0000
  C   C32       1.0  0.30104995794817324  0.9041149759284436  0.4994217867688845  1.0000
  C   C33       1.0  0.020717002957269352  0.5271998820510363  0.45313729853603485  1.0000
  C   C34       1.0  0.9792847617507332  0.4727985056494147  0.5468610737442389  1.0000
  C   C35       1.0  0.5647115538341794  0.04172385250189589  0.47017966456638755  1.0000
  C   C36       1.0  0.4352876951527803  0.9582806681330212  0.5298203569572948  1.0000
  N   N1        1.0  0.7373852333562281  0.8128913581340527  0.0547577427876931  1.0000
  N   N2        1.0  0.2626126879330712  0.18710948857320628  0.9452420744524304  1.0000
  N   N3        1.0  0.3377528820208227  0.0466482284500671  0.1286783907083375  1.0000
  N   N4        1.0  0.6622432143931223  0.9533501696896919  0.8713224394860788  1.0000
  N   N5        1.0  0.36565475412424325  0.736853425516891  0.9402162887934296  1.0000
  N   N6        1.0  0.6343465091442724  0.26314618841995957  0.059782666875285904  1.0000
  N   N7        1.0  0.9800857241436276  0.6996620006006039  0.1300606193769482  1.0000
  N   N8        1.0  0.0199136174155328  0.3003388428396505  0.8699390587716918  1.0000
  N   N9        1.0  0.91029536076266  0.5769742247416119  0.12329275800693301  1.0000
  N   N10       1.0  0.08970590250585533  0.42302538919523147  0.8767061976617825  1.0000
  N   N11       1.0  0.2322009469785868  0.013364496415064799  0.2731222330226757  1.0000
  N   N12       1.0  0.7677970754064984  0.9866326713450421  0.7268785085412189  1.0000
  N   N13       1.0  0.11402318810584693  0.15865159075232774  0.23865816897735928  1.0000
  N   N14       1.0  0.8859785979111051  0.8413467925669166  0.7613433725499519  1.0000
  O   O1        1.0  0.32942679648692047  0.8328335184620882  0.0014094315963077875  1.0000
  O   O2        1.0  0.6705711205405933  0.16716732912141197  0.9985897517944123  1.0000
  O   O3        1.0  0.537845486171996  0.6318340496470256  0.9225785056638641  1.0000
  O   O4        1.0  0.46215527991881805  0.36816678964997607  0.07742166724271017  1.0000
  O   O5        1.0  0.22537539839898812  0.7517654212613962  0.9003398585365685  1.0000
  O   O6        1.0  0.7746259702270919  0.24823051285206083  0.09966065530533537  1.0000
