data_image0
_chemical_formula_structural       Cd2H52C48S2N16O14
_chemical_formula_sum              "Cd2 H52 C48 S2 N16 O14"
_cell_length_a       8.504759146842794
_cell_length_b       12.735431334335267
_cell_length_c       13.6248
_cell_angle_alpha    87.28202905499275
_cell_angle_beta     81.13613605779292
_cell_angle_gamma    82.26025200320903

_space_group_name_H-M_alt    "P 1"
_space_group_IT_number       1

loop_
  _space_group_symop_operation_xyz
  'x, y, z'

loop_
  _atom_site_type_symbol
  _atom_site_label
  _atom_site_symmetry_multiplicity
  _atom_site_fract_x
  _atom_site_fract_y
  _atom_site_fract_z
  _atom_site_occupancy
  Cd  Cd1       1.0  0.7657625514661888  0.2664789635932792  0.22308787967418198  1.0000
  Cd  Cd2       1.0  0.2342334701463926  0.7335250525055699  0.7769104166832718  1.0000
  H   H1        1.0  0.046530574991230395  0.3823799838074677  0.23357696012691784  1.0000
  H   H2        1.0  0.9534709810665588  0.6176200686708668  0.7664224475071749  1.0000
  H   H3        1.0  0.1091703673220508  0.2721184028625601  0.1916725138051589  1.0000
  H   H4        1.0  0.8908288086868907  0.7278816496157816  0.8083249208821357  1.0000
  H   H5        1.0  0.6051347394644963  0.7960139081027646  0.9143748529918982  1.0000
  H   H6        1.0  0.3948688869031258  0.2039877298237727  0.08562795501805451  1.0000
  H   H7        1.0  0.8234496520848468  0.7664944479524607  0.5290466934286542  1.0000
  H   H8        1.0  0.17655847357305987  0.2335024336294609  0.4709492870463237  1.0000
  H   H9        1.0  0.09005882839811359  0.7540264832592953  0.3583983081823874  1.0000
  H   H10       1.0  0.909949558067204  0.24597515466724929  0.6415989042966999  1.0000
  H   H11       1.0  0.107726359637077  0.8114228792183411  0.47132362283798573  1.0000
  H   H12       1.0  0.8922801113879046  0.188576380535892  0.5286746132407885  1.0000
  H   H13       1.0  0.7591484384275803  0.6114550533212579  0.5727592711412514  1.0000
  H   H14       1.0  0.2408607223852499  0.3885426209847722  0.4272409783667044  1.0000
  H   H15       1.0  0.04557067664494951  0.1962388517162168  0.8399998507387211  1.0000
  H   H16       1.0  0.954431498890841  0.8037580298657048  0.16000110577159188  1.0000
  H   H17       1.0  0.7343880797763589  0.9201489535755911  0.8856698598476528  1.0000
  H   H18       1.0  0.2656164758082866  0.0798479280063304  0.11433673938809362  1.0000
  H   H19       1.0  0.3789984255324654  0.7295186248886266  0.008409497095385608  1.0000
  H   H20       1.0  0.6209959903787805  0.2704814275897078  0.9915839916983202  1.0000
  H   H21       1.0  0.4254673291107167  0.7825637582458924  0.11680441841917853  1.0000
  H   H22       1.0  0.5745135319233726  0.2174386724047537  0.8831917366245465  1.0000
  H   H23       1.0  0.1559569376771819  0.9859085888220775  0.4036676714750556  1.0000
  H   H24       1.0  0.8440463789514396  0.014094634552677099  0.5963255546280523  1.0000
  H   H25       1.0  0.0384996454717665  0.158131018633199  0.33985160262951564  1.0000
  H   H26       1.0  0.9615017557165116  0.8418698265692441  0.6601404452061034  1.0000
  H   H27       1.0  0.6277329291010503  0.0385834675448677  0.2915191936224986  1.0000
  H   H28       1.0  0.3722665566468919  0.9614149994852639  0.7084841531930054  1.0000
  H   H29       1.0  0.829325306156143  0.4761425979950715  0.3283829609915188  1.0000
  H   H30       1.0  0.1706798689065039  0.523851112690437  0.6716178475631766  1.0000
  H   H31       1.0  0.32503166350260676  0.5914665150622227  0.16260429482954922  1.0000
  H   H32       1.0  0.6749603723597913  0.408533537416119  0.8373901568402715  1.0000
  H   H33       1.0  0.9973158523429222  0.2793401194415708  0.0077972474846461845  1.0000
  H   H34       1.0  0.002684513690439874  0.7206599330367637  0.9922000727424489  1.0000
  H   H35       1.0  0.894070346865618  0.4562880301094552  0.06745462697726623  1.0000
  H   H36       1.0  0.1059229849591077  0.5437175714375968  0.9325489955082844  1.0000
  H   H37       1.0  0.5767794275000568  0.22733662555574338  0.4395340768944039  1.0000
  H   H38       1.0  0.423222438296733  0.772661841474381  0.5604683070449782  1.0000
  H   H39       1.0  0.6943112666972057  0.0599394548817074  0.1251625232398226  1.0000
  H   H40       1.0  0.30568579007029234  0.9400653539412501  0.874840776106339  1.0000
  H   H41       1.0  0.7912499425630627  0.636749294002172  0.002975957711640835  1.0000
  H   H42       1.0  0.20874488902509106  0.36325472209667703  0.9970231870617355  1.0000
  H   H43       1.0  0.4427551359268804  0.4127088152670098  0.21555113248704322  1.0000
  H   H44       1.0  0.5572362804575093  0.5872944081077378  0.7844469079966458  1.0000
  H   H45       1.0  0.9100829588030095  0.0381688728389591  0.8176926217190399  1.0000
  H   H46       1.0  0.0899198362107967  0.9618248378465495  0.18231061762322304  1.0000
  H   H47       1.0  0.5244081309353703  0.3016909755277695  0.6112230459082326  1.0000
  H   H48       1.0  0.47559327025291503  0.6983098696746666  0.38877854335184747  1.0000
  H   H49       1.0  0.6329612474631858  0.46915235685415974  0.6392302155077871  1.0000
  H   H50       1.0  0.36704356892886386  0.5308492810723848  0.36077027617479024  1.0000
  H   H51       1.0  0.727063873391927  0.8590021798848966  0.35670395932859833  1.0000
  H   H52       1.0  0.2729382532122671  0.141001043489851  0.6433011245263529  1.0000
  C   C1        1.0  0.021584983269541193  0.7996009846691834  0.42139595361380344  1.0000
  C   C2        1.0  0.978421797494441  0.2003966896368468  0.5786015889916315  1.0000
  C   C3        1.0  0.9666162295474978  0.16427780132843847  0.9015563109407623  1.0000
  C   C4        1.0  0.033385791118796214  0.8357198729775845  0.09844756115126782  1.0000
  C   C5        1.0  0.47800666536387837  0.7390241796085988  0.049177190408350745  1.0000
  C   C6        1.0  0.5219835609960911  0.2609790437661488  0.9508209645355379  1.0000
  C   C7        1.0  0.0382797222753339  0.9926966853167087  0.3797659366027376  1.0000
  C   C8        1.0  0.9617250941167156  0.0073049526098359  0.6202279494782914  1.0000
  C   C9        1.0  0.9728247172204901  0.0901517558980984  0.34409340993220644  1.0000
  C   C10       1.0  0.0271775642532077  0.9098506747525406  0.6558999508722893  1.0000
  C   C11       1.0  0.7444568581468757  0.0228597849603744  0.3166727308455748  1.0000
  C   C12       1.0  0.2555426276010735  0.9771386820697572  0.6833269461912863  1.0000
  C   C13       1.0  0.7639108463675371  0.43885761253104494  0.392541761637986  1.0000
  C   C14       1.0  0.2360948992415288  0.5611392690508765  0.6074595854474723  1.0000
  C   C15       1.0  0.4522289374738547  0.5647422000993529  0.1390325917708708  1.0000
  C   C16       1.0  0.5477639786739631  0.4352594378271846  0.8609668426464694  1.0000
  C   C17       1.0  0.9409432721031763  0.2106783212537309  0.9942102937161579  1.0000
  C   C18       1.0  0.059057974215598115  0.7893233166728136  0.0057912753027267025  1.0000
  C   C19       1.0  0.7681272432289887  0.4891773604219338  0.08533181125739023  1.0000
  C   C20       1.0  0.23186624346524098  0.5108274484010167  0.9146703635578959  1.0000
  C   C21       1.0  0.6227680106624548  0.2996219656187478  0.45555773958871276  1.0000
  C   C22       1.0  0.37723520002825955  0.7003757086872824  0.544445284087395  1.0000
  C   C23       1.0  0.7727440238355712  0.0872924000583097  0.06137715304095791  1.0000
  C   C24       1.0  0.2272555678502712  0.9127116160405391  0.9386244697145474  1.0000
  C   C25       1.0  0.8937386410389437  0.6374912837626496  0.4360166648843347  1.0000
  C   C26       1.0  0.1062723292763224  0.3625032196469604  0.5639791473938232  1.0000
  C   C27       1.0  0.7113164097331719  0.5898866159247902  0.05138046883955379  1.0000
  C   C28       1.0  0.28867485178171387  0.4101174001740588  0.9486219551373125  1.0000
  C   C29       1.0  0.7403245916729801  0.4864733785063464  0.48580063606366514  1.0000
  C   C30       1.0  0.2596836888544302  0.5135227103514737  0.5141983004754139  1.0000
  C   C31       1.0  0.6365899416232992  0.8868149050412839  0.029486489352713384  1.0000
  C   C32       1.0  0.36339521489997406  0.1131899037816666  0.9705179545953869  1.0000
  C   C33       1.0  0.5171982819214876  0.4647654216677424  0.1689931324448182  1.0000
  C   C34       1.0  0.4827928247238944  0.5352393871552152  0.8310063354679471  1.0000
  C   C35       1.0  0.7934503090832976  0.0348711405701678  0.9705407889166224  1.0000
  C   C36       1.0  0.20654917666464456  0.9651273264599638  0.029464025810334225  1.0000
  C   C37       1.0  0.5504282654800788  0.6300793133989018  0.07967131191364271  1.0000
  C   C38       1.0  0.44956268629580615  0.3699262881481573  0.9203274018022045  1.0000
  C   C39       1.0  0.8921151431166265  0.0761403573762536  0.8893835805634396  1.0000
  C   C40       1.0  0.10788837731308827  0.9238557314815665  0.11062095150650461  1.0000
  C   C41       1.0  0.5939653638774232  0.3417520808007666  0.550294712502513  1.0000
  C   C42       1.0  0.406037846813291  0.6582455935052564  0.4497068432621418  1.0000
  C   C43       1.0  0.6537535632993466  0.4346926400934876  0.5659640238509027  1.0000
  C   C44       1.0  0.34625068254629093  0.565305826936644  0.43403739721236434  1.0000
  C   C45       1.0  0.9514068926829536  0.9062667690825421  0.3842831147266709  1.0000
  C   C46       1.0  0.04859807857859269  0.093734076119901  0.6157137274184663  1.0000
  C   C47       1.0  0.800666420421379  0.9231462434093203  0.3530369988326215  1.0000
  C   C48       1.0  0.19933125582413416  0.0768553945172243  0.6469641796111179  1.0000
  S   S1        1.0  0.345141480559036  0.2202021086280723  0.2839511950737403  1.0000
  S   S2        1.0  0.6548608498462656  0.7797939802297478  0.7160468458548551  1.0000
  N   N1        1.0  0.8296396678537619  0.10541724395101679  0.3114545037767654  1.0000
  N   N2        1.0  0.17036157846501968  0.8945843939755278  0.6885419275520307  1.0000
  N   N3        1.0  0.5857338572796636  0.8027504775307008  0.9898905363561569  1.0000
  N   N4        1.0  0.41425621421080894  0.1972535385681553  0.01011053416944212  1.0000
  N   N5        1.0  0.9040590288980184  0.7353459397703331  0.4700758721061788  1.0000
  N   N6        1.0  0.0959490967598953  0.2646509418115883  0.5299223102359819  1.0000
  N   N7        1.0  0.6735810229666086  0.42732585500360887  0.1435002440040734  1.0000
  N   N8        1.0  0.32641261859712506  0.5726781610952401  0.8565012170966713  1.0000
  N   N9        1.0  0.7070052113597854  0.348053444696113  0.3790539341350653  1.0000
  N   N10       1.0  0.29299903448584536  0.6519450223340186  0.6209474869282021  1.0000
  N   N11       1.0  0.8447975019538774  0.17277263281699357  0.07191259322484461  1.0000
  N   N12       1.0  0.1552023994709728  0.8272297978336525  0.9280861341901386  1.0000
  N   N13       1.0  0.7922146639403705  0.5814298351931839  0.5020925529234506  1.0000
  N   N14       1.0  0.2077968769213072  0.4185678391128391  0.49790893557557336  1.0000
  N   N15       1.0  0.7203539839452517  0.9472926195889784  0.9568517467926655  1.0000
  N   N16       1.0  0.279642812014842  0.0527074328893562  0.043152522416562505  1.0000
  O   O1        1.0  0.2789207240542737  0.3327427713693183  0.3061927033310283  1.0000
  O   O2        1.0  0.7210897816524805  0.6672541102126033  0.6938037821792875  1.0000
  O   O3        1.0  0.5122447042721207  0.213763603462894  0.22911322952543142  1.0000
  O   O4        1.0  0.4877587102196941  0.7862269363262016  0.7708820172685975  1.0000
  O   O5        1.0  0.24664501085656818  0.1808060988775537  0.21277428567160686  1.0000
  O   O6        1.0  0.7533524045815341  0.8191907827043678  0.7872263947237528  1.0000
  O   O7        1.0  0.611199607691276  0.9056857023149902  0.11944796517673954  1.0000
  O   O8        1.0  0.3887725645012523  0.0943246555766919  0.8805523439948646  1.0000
  O   O9        1.0  0.021147035938284407  0.3336448913986203  0.18671947610749132  1.0000
  O   O10       1.0  0.9788531752255736  0.6663559538038157  0.8132792917898755  1.0000
  O   O11       1.0  0.3367107337403681  0.1544432661056874  0.3762256336918313  1.0000
  O   O12       1.0  0.6632912869259258  0.8455544082003356  0.6237731007101104  1.0000
  O   O13       1.0  0.9683777700965449  0.6027239900499879  0.35585428734202657  1.0000
  O   O14       1.0  0.031626940357597284  0.3972720988078322  0.6441486623562724  1.0000
