data_image0
_chemical_formula_structural       Sr2H60C48O26
_chemical_formula_sum              "Sr2 H60 C48 O26"
_cell_length_a       8.461495345
_cell_length_b       8.447477778113868
_cell_length_c       20.905
_cell_angle_alpha    90.0
_cell_angle_beta     90.0
_cell_angle_gamma    114.35396031180436

_space_group_name_H-M_alt    "P 1"
_space_group_IT_number       1

loop_
  _space_group_symop_operation_xyz
  'x, y, z'

loop_
  _atom_site_type_symbol
  _atom_site_label
  _atom_site_symmetry_multiplicity
  _atom_site_fract_x
  _atom_site_fract_y
  _atom_site_fract_z
  _atom_site_occupancy
  Sr  Sr1       1.0  0.02437986028877498  0.9749626960049014  0.7499220282229119  1.0000
  Sr  Sr2       1.0  0.9756224728634918  0.0250422906230838  0.24992059315952994  1.0000
  H   H1        1.0  0.4577966553823599  0.503002838324818  0.694379335087298  1.0000
  H   H2        1.0  0.5422148212389785  0.496995651237313  0.19438172685960353  1.0000
  H   H3        1.0  0.503345722111348  0.4582471504911325  0.305493900980629  1.0000
  H   H4        1.0  0.4966509257499325  0.5417526384841693  0.8054905524993998  1.0000
  H   H5        1.0  0.9766504284192338  0.5730697953079016  0.6833838794546736  1.0000
  H   H6        1.0  0.02336223002630785  0.4269286942542293  0.1833872279359028  1.0000
  H   H7        1.0  0.573451237914881  0.9760607001340273  0.3166491270031102  1.0000
  H   H8        1.0  0.42654895541901533  0.023939088841274294  0.8166496053575685  1.0000
  H   H9        1.0  0.7020045321002328  0.5510187538034543  0.6335206888304229  1.0000
  H   H10       1.0  0.2980032871334757  0.4489823345850184  0.1335192537670409  1.0000
  H   H11       1.0  0.5512714320496528  0.7011009750034489  0.3666543889021767  1.0000
  H   H12       1.0  0.44872532772664186  0.2988962151455112  0.8666543889021768  1.0000
  H   H13       1.0  0.6610813016902667  0.5131512551869122  0.5155981822530507  1.0000
  H   H14       1.0  0.3389170629498182  0.48684983320155334  0.015596747189668702  1.0000
  H   H15       1.0  0.513199294165119  0.6603669709326425  0.484572111934945  1.0000
  H   H16       1.0  0.4867927383143638  0.3396302192163105  0.984572111934945  1.0000
  H   H17       1.0  0.8987990333310734  0.5104549728579997  0.4470523798134424  1.0000
  H   H18       1.0  0.10119342218798268  0.489546115530473  0.9470533365223659  1.0000
  H   H19       1.0  0.5102942255314886  0.8985948845577596  0.552998804113848  1.0000
  H   H20       1.0  0.4896966251237842  0.1014023055912006  0.0529992824683063  1.0000
  H   H21       1.0  0.1776504517576001  0.535772739073245  0.4975785697201616  1.0000
  H   H22       1.0  0.8223461961036802  0.4642270499020569  0.9975847883281546  1.0000
  H   H23       1.0  0.5354781871542541  0.177653169852988  0.5023563740731873  1.0000
  H   H24       1.0  0.46451502714943155  0.8223440202959722  0.002357330782111  1.0000
  H   H25       1.0  0.8893430933695682  0.266169195031722  0.7699837359483368  1.0000
  H   H26       1.0  0.11065591814011808  0.7338305939435799  0.2699842143027952  1.0000
  H   H27       1.0  0.2660035741651611  0.8890286047960743  0.2300373116479335  1.0000
  H   H28       1.0  0.7339955492595465  0.1109685853528859  0.7300377900023918  1.0000
  H   H29       1.0  0.0651039902479411  0.6178878549737803  0.8069351829705838  1.0000
  H   H30       1.0  0.9348960911709412  0.38211453282786306  0.306935661325042  1.0000
  H   H31       1.0  0.618417671959655  0.0652383376412686  0.19320880172207922  1.0000
  H   H32       1.0  0.3815790878166396  0.9347588525076915  0.6932088017220792  1.0000
  H   H33       1.0  0.8805419703765835  0.5326762374877915  0.881203061468547  1.0000
  H   H34       1.0  0.11945940478151573  0.4673235514875102  0.3812030614685469  1.0000
  H   H35       1.0  0.5334273767852052  0.8808085170790959  0.11884142549629222  1.0000
  H   H36       1.0  0.46657002986070484  0.11918737365669327  0.6188409471418339  1.0000
  H   H37       1.0  0.7541948059463053  0.6144197212215516  0.8346582157378606  1.0000
  H   H38       1.0  0.24580763912098283  0.38558266658009177  0.3346582157378606  1.0000
  H   H39       1.0  0.6149776980175901  0.7541625118233739  0.16534991628797263  1.0000
  H   H40       1.0  0.38502089045252313  0.2458333789124154  0.6653499162879727  1.0000
  H   H41       1.0  0.8090200349429323  0.7487881389499265  0.9416661085864604  1.0000
  H   H42       1.0  0.1909784416121667  0.2512103506122045  0.44166563023200217  1.0000
  H   H43       1.0  0.7491450886259442  0.8089626634655147  0.05834967711074061  1.0000
  H   H44       1.0  0.2508516711503574  0.1910345266834454  0.5583491987562753  1.0000
  H   H45       1.0  0.039865296257801205  0.8268906669797644  0.9298560153073439  1.0000
  H   H46       1.0  0.9601337152518922  0.1731091219955303  0.4298541018895037  1.0000
  H   H47       1.0  0.8271728774516021  0.0402064423235515  0.0701157617794763  1.0000
  H   H48       1.0  0.17282270050048956  0.9597907478254086  0.5701162401339417  1.0000
  H   H49       1.0  0.9401564709727593  0.188895692604703  0.8829480985410215  1.0000
  H   H50       1.0  0.05983899506431806  0.8111040963705989  0.3829471418320979  1.0000
  H   H51       1.0  0.18858668306492624  0.940108536530893  0.11696531930160602  1.0000
  H   H52       1.0  0.8114106116659697  0.059889953031238  0.6169648409471407  1.0000
  H   H53       1.0  0.0670862830692229  0.1262262948016328  0.9376914613728787  1.0000
  H   H54       1.0  0.9329114347012464  0.8737760930000107  0.4376900263094967  1.0000
  H   H55       1.0  0.12608557159424552  0.0673810699595307  0.0622449174838522  1.0000
  H   H56       1.0  0.8739117231366506  0.9326174196026003  0.5622444391293939  1.0000
  H   H57       1.0  0.836139704898315  0.0472518605343453  0.9487400143506335  1.0000
  H   H58       1.0  0.16385587305378377  0.9527453296146149  0.4487385792872516  1.0000
  H   H59       1.0  0.04697275398872585  0.836016445676627  0.05122123893805511  1.0000
  H   H60       1.0  0.9530262575209605  0.1639833432986748  0.5512212389380551  1.0000
  C   C1        1.0  0.585103081799282  0.780628959281394  0.7041851231762735  1.0000
  C   C2        1.0  0.4149011919618175  0.2193721291070787  0.2041879933030373  1.0000
  C   C3        1.0  0.7806112969569128  0.5854584004760497  0.2957790002391789  1.0000
  C   C4        1.0  0.21938943133157096  0.414542687912423  0.7957761301124151  1.0000
  C   C5        1.0  0.4270669760629815  0.607039054412752  0.7143267160966289  1.0000
  C   C6        1.0  0.5729403082161325  0.39296073456254976  0.21433102128677461  1.0000
  C   C7        1.0  0.6072088094321373  0.4273263146844215  0.285614446304713  1.0000
  C   C8        1.0  0.39279127198673786  0.572676073117222  0.7856101411145674  1.0000
  C   C9        1.0  0.2579244523369653  0.5636607445398596  0.6206510404209524  1.0000
  C   C10       1.0  0.7420824089025756  0.4363351461959296  0.12065773738340373  1.0000
  C   C11       1.0  0.5638631225591055  0.2579971856020506  0.3793197799569512  1.0000
  C   C12       1.0  0.4361347071263779  0.7420026033732512  0.8793169098301874  1.0000
  C   C13       1.0  0.09311729381401077  0.5543985274600871  0.5931920593159533  1.0000
  C   C14       1.0  0.9068875149016832  0.4456038603415564  0.0931968428605572  1.0000
  C   C15       1.0  0.554436128574025  0.0929002452162067  0.40678593637886  1.0000
  C   C16       1.0  0.44556181302647246  0.9070969449327535  0.9067854580243946  1.0000
  C   C17       1.0  0.9594039304593522  0.5593648845979757  0.631734034919873  1.0000
  C   C18       1.0  0.04060560555315356  0.4406375032036607  0.1317369050466368  1.0000
  C   C19       1.0  0.5595392007846414  0.9589266380669841  0.3682994498923691  1.0000
  C   C20       1.0  0.4404615275038424  0.0410744503214886  0.868298971537911  1.0000
  C   C21       1.0  0.8047004061085162  0.5450479502847188  0.6036574982061681  1.0000
  C   C22       1.0  0.19530623130098948  0.4549531381037539  0.1036579765606334  1.0000
  C   C23       1.0  0.5451799804829776  0.8040222945910358  0.39644152116718356  1.0000
  C   C24       1.0  0.4548173142479115  0.1959761949710952  0.8964419995216488  1.0000
  C   C25       1.0  0.7827658193971769  0.5263571912393417  0.5374293231284355  1.0000
  C   C26       1.0  0.21723426202169796  0.4736451965622948  0.0374288447739772  1.0000
  C   C27       1.0  0.5263621549885541  0.7821687638885136  0.4626768715618255  1.0000
  C   C28       1.0  0.4736333110485233  0.2178310250867881  0.9626763932073673  1.0000
  C   C29       1.0  0.9164609961696613  0.5233490497494913  0.4987739775173381  1.0000
  C   C30       1.0  0.08353694543084339  0.4766481403994689  0.998776847644102  1.0000
  C   C31       1.0  0.5231845017964004  0.9161148723364574  0.5012666826118136  1.0000
  C   C32       1.0  0.4768098943314882  0.0838823178125025  0.0012671609662789  1.0000
  C   C33       1.0  0.07121741880455794  0.5372618665667088  0.5265706768715646  1.0000
  C   C34       1.0  0.9287809458355196  0.46273922182176347  0.026574503707244904  1.0000
  C   C35       1.0  0.5370730413800899  0.0710350197951541  0.4734097105955541  1.0000
  C   C36       1.0  0.4629225365720016  0.9289621703538058  0.9734097105955541  1.0000
  C   C37       1.0  0.3503483564698371  0.1178814634202752  0.6428208562544881  1.0000
  C   C38       1.0  0.6496490501760732  0.8821144273155141  0.142820856254481  1.0000
  C   C39       1.0  0.11808944424841164  0.350940311452895  0.3571949294427199  1.0000
  C   C40       1.0  0.8819130008188693  0.6490620763487485  0.8571958861516364  1.0000
  C   C41       1.0  0.2078961243930024  0.0860575354600286  0.5944147333173859  1.0000
  C   C42       1.0  0.7921023521620896  0.9139409541021022  0.0944147333173859  1.0000
  C   C43       1.0  0.08620718961666542  0.2082101699719416  0.4055785697201629  1.0000
  C   C44       1.0  0.9137899931992094  0.791790918416531  0.9055785697201628  1.0000
  C   C45       1.0  0.9410138848605598  0.0832650965564881  0.9130375508251589  1.0000
  C   C46       1.0  0.05898276300072062  0.9167346924188136  0.413036115761777  1.0000
  C   C47       1.0  0.08311595715582591  0.9411103840853983  0.0869069600574051  1.0000
  C   C48       1.0  0.9168813375750702  0.05888810547673269  0.5869069600574051  1.0000
  O   O1        1.0  0.7285028682668083  0.7744359561104943  0.7162085625448427  1.0000
  O   O2        1.0  0.2715031222730886  0.2255664316911492  0.2162095192537663  1.0000
  O   O3        1.0  0.7746725068226822  0.7291150235476067  0.2836168380770161  1.0000
  O   O4        1.0  0.2253275745961929  0.2708873642540368  0.7836154030136343  1.0000
  O   O5        1.0  0.561101265258621  0.9133224334329171  0.6871911026070308  1.0000
  O   O6        1.0  0.43890117980865984  0.0866799543687264  0.187191580961489  1.0000
  O   O7        1.0  0.9128870792197575  0.5613192020065014  0.31298349677111054  1.0000
  O   O8        1.0  0.08711364906872629  0.4386818863819641  0.8129815833532633  1.0000
  O   O9        1.0  0.27189078972678965  0.6019141688680563  0.6843128438172671  1.0000
  O   O10       1.0  0.7281166064673456  0.3980830212809039  0.18431906242526  1.0000
  O   O11       1.0  0.6018729556676446  0.2718424329343988  0.3156498445348035  1.0000
  O   O12       1.0  0.3981283075754334  0.7281599548672446  0.8156464960535744  1.0000
  O   O13       1.0  0.3707270015761068  0.5392681605020542  0.5906491270031111  1.0000
  O   O14       1.0  0.6292849853793355  0.4607459220181197  0.0906582157378608  1.0000
  O   O15       1.0  0.5398349130195896  0.3711461862551388  0.4093417842621392  1.0000
  O   O16       1.0  0.460160664932502  0.6288510038938211  0.9093384357809171  1.0000
  O   O17       1.0  0.8490106093319839  0.1514907850768807  0.7498096149246578  1.0000
  O   O18       1.0  0.15098786722310817  0.8485077044852503  0.2498096149246578  1.0000
  O   O19       1.0  0.2929485137151032  0.9858374848293394  0.6911523558957172  1.0000
  O   O20       1.0  0.7070482460611913  0.0141597053196207  0.1911528342501825  1.0000
  O   O21       1.0  0.9862811800400805  0.2935959088227875  0.3088529060033451  1.0000
  O   O22       1.0  0.013725768493991104  0.7064116766315323  0.8088552977756508  1.0000
  O   O23       1.0  0.0603215591751081  0.0852246116176971  0.6283606792633307  1.0000
  O   O24       1.0  0.9396769173799839  0.9147738779444337  0.12836115761779612  1.0000
  O   O25       1.0  0.0854274588752233  0.0604746889579886  0.37161061946902413  1.0000
  O   O26       1.0  0.9145732694132676  0.9395263994304841  0.8716115761779478  1.0000
