data_image0
_chemical_formula_structural       Cd4H40C16O24
_chemical_formula_sum              "Cd4 H40 C16 O24"
_cell_length_a       8.074128482035727
_cell_length_b       8.55449317701149
_cell_length_c       11.803935673057033
_cell_angle_alpha    89.99984733416072
_cell_angle_beta     89.99967771710625
_cell_angle_gamma    90.00010959785314

_space_group_name_H-M_alt    "P 1"
_space_group_IT_number       1

loop_
  _space_group_symop_operation_xyz
  'x, y, z'

loop_
  _atom_site_type_symbol
  _atom_site_label
  _atom_site_symmetry_multiplicity
  _atom_site_fract_x
  _atom_site_fract_y
  _atom_site_fract_z
  _atom_site_occupancy
  Cd  Cd1       1.0  0.43675776108541  0.30213440089646343  0.4276655484671749  1.0000
  Cd  Cd2       1.0  0.06324087135126182  0.6978631928249612  0.9276660684826293  1.0000
  Cd  Cd3       1.0  0.5632414873569261  0.8021379046629988  0.07233672446638907  1.0000
  Cd  Cd4       1.0  0.9367602519946276  0.1978654073309372  0.5723359254641662  1.0000
  H   H1        1.0  0.6818888912547153  0.7929899120767419  0.5410022238860461  1.0000
  H   H2        1.0  0.8181106284481244  0.20700767008757742  0.041000650439386284  1.0000
  H   H3        1.0  0.3181087084813258  0.2929919229995619  0.9589961974311617  1.0000
  H   H4        1.0  0.18189090512087353  0.7070102315926975  0.45899502902646805  1.0000
  H   H5        1.0  0.4784851137993514  0.8565259980723994  0.5033235958741641  1.0000
  H   H6        1.0  0.0215120503616433  0.143470815777647  0.003322440479649899  1.0000
  H   H7        1.0  0.5215101370815134  0.3565235635735675  0.9966763969491051  1.0000
  H   H8        1.0  0.9784893549940534  0.6434758523939551  0.4966759033636378  1.0000
  H   H9        1.0  0.631851931848246  0.845653681101929  0.3983159614209553  1.0000
  H   H10       1.0  0.8681446526510116  0.15434258909084517  0.8983146636619349  1.0000
  H   H11       1.0  0.36814245032529413  0.3456524188185881  0.10168199150270135  1.0000
  H   H12       1.0  0.1318563829033508  0.6543487097876338  0.6016823313819513  1.0000
  H   H13       1.0  0.6073107283148218  0.16580434755528733  0.7991355225723564  1.0000
  H   H14       1.0  0.8926903864827055  0.8341946247575224  0.2991358378553101  1.0000
  H   H15       1.0  0.3926915688619986  0.6658059011499518  0.7008673805366213  1.0000
  H   H16       1.0  0.10731016517274132  0.3341960322532885  0.20086637308635594  1.0000
  H   H17       1.0  0.7077377727514929  0.0033437366915904996  0.7333015117445424  1.0000
  H   H18       1.0  0.7922638828505056  0.9966543083731384  0.23330105252416894  1.0000
  H   H19       1.0  0.2922654351304034  0.5033448664526432  0.7667025526707575  1.0000
  H   H20       1.0  0.20773699662593262  0.4966568252250312  0.2666991499348653  1.0000
  H   H21       1.0  0.49167320277165777  0.9957377439774363  0.7689577198126752  1.0000
  H   H22       1.0  0.0083279719144969  0.0042604324818782  0.2689585787332262  1.0000
  H   H23       1.0  0.5083297601418693  0.49573976783644713  0.7310462396879983  1.0000
  H   H24       1.0  0.9916731525361514  0.5042641304008554  0.23104088146310175  1.0000
  H   H25       1.0  0.7344931595961056  0.3115989126570753  0.31355895610315787  1.0000
  H   H26       1.0  0.7655053596729787  0.688403513622518  0.8135595625480573  1.0000
  H   H27       1.0  0.2655061079521133  0.8116002885922101  0.18644075700671434  1.0000
  H   H28       1.0  0.23449450606183586  0.1883993598265405  0.686440755348343  1.0000
  H   H29       1.0  0.6069688639366717  0.23300050704303743  0.22030648212784595  1.0000
  H   H30       1.0  0.8930316598928062  0.7670010926634278  0.7203064454202418  1.0000
  H   H31       1.0  0.3930290064862945  0.7330006028403986  0.27969423013829686  1.0000
  H   H32       1.0  0.106970841487545  0.2669998721510396  0.7796937204925666  1.0000
  H   H33       1.0  0.3600797576463535  0.0010939467912081  0.2949644846122722  1.0000
  H   H34       1.0  0.13992120340407876  0.9989064721292282  0.7949658215483663  1.0000
  H   H35       1.0  0.6399238374606641  0.501092426458804  0.20503413453196362  1.0000
  H   H36       1.0  0.8600755733073199  0.4989103983012199  0.7050330487849477  1.0000
  H   H37       1.0  0.2338626712520906  0.040524390470267214  0.3942730924919216  1.0000
  H   H38       1.0  0.26613623549215504  0.959475663812221  0.8942740195374197  1.0000
  H   H39       1.0  0.7661372878508886  0.5405234636445755  0.10572460324127056  1.0000
  H   H40       1.0  0.7338617001791761  0.4594762188252872  0.6057240798649699  1.0000
  C   C1        1.0  0.5314617142409546  0.6239886976816679  0.4498678190867904  1.0000
  C   C2        1.0  0.9685394008885597  0.37600855221192847  0.9498631645205433  1.0000
  C   C3        1.0  0.46852974360046323  0.12398780671674811  0.05013225680199439  1.0000
  C   C4        1.0  0.03146827457158001  0.8760146801446779  0.5501317075488001  1.0000
  C   C5        1.0  0.5864794776595802  0.7883128716646866  0.47543699215159296  1.0000
  C   C6        1.0  0.9135177118456925  0.21168194638488563  0.9754345615876044  1.0000
  C   C7        1.0  0.4135135502853586  0.2883131437987885  0.024561918822001892  1.0000
  C   C8        1.0  0.08648591645638251  0.7116882679738763  0.5245623225801523  1.0000
  C   C9        1.0  0.548822132341627  0.14005206556357305  0.6251114992755473  1.0000
  C   C10       1.0  0.9511804119975835  0.8599440387955753  0.12511153948962314  1.0000
  C   C11       1.0  0.45118011287030413  0.6400554241939956  0.8748923008012708  1.0000
  C   C12       1.0  0.0488164760502912  0.35994820818321227  0.3748897744924945  1.0000
  C   C13       1.0  0.592478322453715  0.0700044986516204  0.7379297866571333  1.0000
  C   C14       1.0  0.9075245336525628  0.9299923604445652  0.2379290123974157  1.0000
  C   C15       1.0  0.40752501993839735  0.5700070233850595  0.7620741488618135  1.0000
  C   C16       1.0  0.09247497278293793  0.4299958542569301  0.2620730133104842  1.0000
  O   O1        1.0  0.4293172500628871  0.5996693694398871  0.36933811892126295  1.0000
  O   O2        1.0  0.07068310003623421  0.400327269471326  0.8693383384127666  1.0000
  O   O3        1.0  0.5706729201862757  0.09966486108274351  0.13066030964702685  1.0000
  O   O4        1.0  0.9293258630021841  0.9003347298274137  0.6306607225056593  1.0000
  O   O5        1.0  0.5836193017535366  0.5103688106852574  0.5105247161437275  1.0000
  O   O6        1.0  0.916377991268334  0.48962654543357326  0.010521370559601496  1.0000
  O   O7        1.0  0.41636658098338597  0.010365043001165503  0.9894750988507038  1.0000
  O   O8        1.0  0.0836340207689901  0.989635830704927  0.4894737624098651  1.0000
  O   O9        1.0  0.40192837666742787  0.19210764588476087  0.6094483120140025  1.0000
  O   O10       1.0  0.0980728698051792  0.8078852713743244  0.10944811856064966  1.0000
  O   O11       1.0  0.5980739735958808  0.6921170582536291  0.8905536930523535  1.0000
  O   O12       1.0  0.9019239131913678  0.3078932681510551  0.39055583760360674  1.0000
  O   O13       1.0  0.6551509736579462  0.1497910502592106  0.5452997691622199  1.0000
  O   O14       1.0  0.844852226308504  0.8502065161267183  0.04529939056559579  1.0000
  O   O15       1.0  0.3448512912060409  0.6497915850817009  0.954703164910995  1.0000
  O   O16       1.0  0.1551471191371334  0.35020941629620944  0.4547019422414136  1.0000
  O   O17       1.0  0.6211238021572214  0.3200307010654129  0.27817520523549877  1.0000
  O   O18       1.0  0.8788737692498145  0.6799706861566579  0.7781762385088837  1.0000
  O   O19       1.0  0.37887548240482977  0.8200321526546263  0.22182449157062922  1.0000
  O   O20       1.0  0.12112607947813102  0.1799685348247522  0.7218224013411285  1.0000
  O   O21       1.0  0.3124125993824123  0.08891667526262378  0.33945982039575984  1.0000
  O   O22       1.0  0.1875879961585483  0.9110835802831048  0.8394602963763445  1.0000
  O   O23       1.0  0.6875899344107455  0.5889154047411508  0.16053862893691925  1.0000
  O   O24       1.0  0.8124098418690056  0.4110864144188042  0.660537896594597  1.0000
