data_image0
_chemical_formula_structural       Zn2H24C26N12Cl4O2F4
_chemical_formula_sum              "Zn2 H24 C26 N12 Cl4 O2 F4"
_cell_length_a       7.962665995242418
_cell_length_b       10.345359947157103
_cell_length_c       12.160030665249874
_cell_angle_alpha    100.18285362278579
_cell_angle_beta     105.51098912995442
_cell_angle_gamma    107.08141360447006

_space_group_name_H-M_alt    "P 1"
_space_group_IT_number       1

loop_
  _space_group_symop_operation_xyz
  'x, y, z'

loop_
  _atom_site_type_symbol
  _atom_site_label
  _atom_site_symmetry_multiplicity
  _atom_site_fract_x
  _atom_site_fract_y
  _atom_site_fract_z
  _atom_site_occupancy
  Zn  Zn1       1.0  0.8215191544368068  0.6588481845802437  0.06297245238312145  1.0000
  Zn  Zn2       1.0  0.17848358632826944  0.3411483778447534  0.9370262964062164  1.0000
  H   H1        1.0  0.28887608654530783  0.7369077437235062  0.15160235748135162  1.0000
  H   H2        1.0  0.71112135957776  0.2630940657534566  0.8483929287245432  1.0000
  H   H3        1.0  0.968047481969556  0.9967916780521264  0.12955684173613946  1.0000
  H   H4        1.0  0.03194863323022191  0.003210156127849501  0.8704439680483276  1.0000
  H   H5        1.0  0.24433687978597618  0.23851705628522527  0.1912191042781046  1.0000
  H   H6        1.0  0.7556628423036782  0.7614868867416646  0.8087834782114811  1.0000
  H   H7        1.0  0.44082389063106586  0.21858077225743952  0.159168204034728  1.0000
  H   H8        1.0  0.5591751268256927  0.7814189610760423  0.8408336365564253  1.0000
  H   H9        1.0  0.9510245661441415  0.21958328113205994  0.4736042351073237  1.0000
  H   H10       1.0  0.04896925736260741  0.7804164337158782  0.5263925671939519  1.0000
  H   H11       1.0  0.3838886760097252  0.10062644542926344  0.6783265902429038  1.0000
  H   H12       1.0  0.616108435344287  0.8993775007955022  0.3216763508021856  1.0000
  H   H13       1.0  0.5617191310362344  0.15431281533781774  0.5394133006754913  1.0000
  H   H14       1.0  0.43828108126731985  0.8456921908204152  0.460591991844666  1.0000
  H   H15       1.0  0.450171340522587  0.4602108516093681  0.357881630339314  1.0000
  H   H16       1.0  0.5498362255688318  0.5397930711604602  0.6421174098833902  1.0000
  H   H17       1.0  0.6414962907441648  0.45590826729268485  0.4727775660997153  1.0000
  H   H18       1.0  0.3585097614578458  0.5440925051823128  0.5272223882326869  1.0000
  H   H19       1.0  0.9373075116623254  0.43683768912978155  0.4080478386131858  1.0000
  H   H20       1.0  0.06270083223271429  0.5631652026772542  0.591956123202408  1.0000
  H   H21       1.0  0.5159842890999542  0.5303209263514362  0.17796563524058234  1.0000
  H   H22       1.0  0.4840190661606839  0.46967141234056003  0.822029314672129  1.0000
  H   H23       1.0  0.5812159743075325  0.1092669760649727  0.3160744705804461  1.0000
  H   H24       1.0  0.4187812298752575  0.8907317117312273  0.6839285391584652  1.0000
  C   C1        1.0  0.251337232592462  0.830333857652306  0.15770500356126144  1.0000
  C   C2        1.0  0.7486602135306054  0.16966795182465694  0.8422902826446332  1.0000
  C   C3        1.0  0.08459499429098129  0.9601581713599929  0.14390148931583724  1.0000
  C   C4        1.0  0.915402934182758  0.03984470835725771  0.8560981513208716  1.0000
  C   C5        1.0  0.3535360151156866  0.19388044138949573  0.21448697817353235  1.0000
  C   C6        1.0  0.6464632049652365  0.8061224491694716  0.7855153608858743  1.0000
  C   C7        1.0  0.47410770423370246  0.25413923056015625  0.3472032058872756  1.0000
  C   C8        1.0  0.5258923172405117  0.7458626077091781  0.6527991215642501  1.0000
  C   C9        1.0  0.3607314849076884  0.21876652538379202  0.42928186317065814  1.0000
  C   C10       1.0  0.6392646302920892  0.7812353087961839  0.5707189466138088  1.0000
  C   C11       1.0  0.19053566766471158  0.23822606255978226  0.416414076550751  1.0000
  C   C12       1.0  0.8094596422101643  0.7617768274642956  0.5835875670417181  1.0000
  C   C13       1.0  0.08561385767882967  0.20651134356729267  0.48927367553849177  1.0000
  C   C14       1.0  0.9143805528021999  0.7934841724289471  0.5107250832870419  1.0000
  C   C15       1.0  0.15894178975932496  0.15520431144334168  0.5817182612499252  1.0000
  C   C16       1.0  0.8410592318007416  0.8447996353163135  0.4182853752621015  1.0000
  C   C17       1.0  0.3296299737225183  0.137061922736784  0.6025360344489172  1.0000
  C   C18       1.0  0.6703639426130081  0.8629325336825888  0.39746083654617353  1.0000
  C   C19       1.0  0.4279575187738515  0.16837645160364903  0.5254245033406093  1.0000
  C   C20       1.0  0.5720406005292274  0.8316295960025003  0.4745781023647239  1.0000
  C   C21       1.0  0.5606476984220308  0.41593496318526496  0.3774368311102592  1.0000
  C   C22       1.0  0.43935755238668855  0.584066861579366  0.622563134830017  1.0000
  C   C23       1.0  0.8691068817114239  0.4770602155774312  0.3399009183009695  1.0000
  C   C24       1.0  0.13089865668702327  0.5229395150930574  0.6601012592016176  1.0000
  C   C25       1.0  0.6505837043829173  0.523042593265295  0.22117984726114062  1.0000
  C   C26       1.0  0.3494183435440944  0.4769497488028803  0.7788156930293867  1.0000
  N   N1        1.0  0.07130962779287123  0.8256701337409921  0.1264385027747892  1.0000
  N   N2        1.0  0.9286890942109378  0.17433170079557672  0.8735627706542957  1.0000
  N   N3        1.0  0.37433455527389004  0.9611504767856544  0.19344068227101724  1.0000
  N   N4        1.0  0.6256649720548136  0.0388503019068054  0.8065597573500722  1.0000
  N   N5        1.0  0.2656967025661032  0.04200940726819621  0.1832152184147731  1.0000
  N   N6        1.0  0.7343020155060954  0.9579924308228416  0.8167868772144403  1.0000
  N   N7        1.0  0.685655094377033  0.46601831367375  0.3133816363635234  1.0000
  N   N8        1.0  0.3143507512691954  0.533979305130238  0.6866186417007542  1.0000
  N   N9        1.0  0.9444924710386714  0.5378510659896565  0.2697628571090718  1.0000
  N   N10       1.0  0.055513370675946264  0.4621465563688005  0.7302382431553268  1.0000
  N   N11       1.0  0.8044278904416798  0.5655983275148415  0.194366287304959  1.0000
  N   N12       1.0  0.19557876446106087  0.434398231890576  0.8056323347511879  1.0000
  Cl  Cl1       1.0  0.6076974282119991  0.764726200000098  0.05387142024252966  1.0000
  Cl  Cl2       1.0  0.39230198932131777  0.2352661630383183  0.9461285896041289  1.0000
  Cl  Cl3       1.0  0.8082956535612452  0.5352508343357416  0.8890735052331636  1.0000
  Cl  Cl4       1.0  0.19171090851271083  0.4647509834982344  0.1109250481291681  1.0000
  O   O1        1.0  0.6265281257054907  0.2050629765199191  0.37039697321018394  1.0000
  O   O2        1.0  0.3734672730665593  0.7949346586300691  0.6296055612762288  1.0000
  F   F1        1.0  0.119500075046588  0.29313311724307317  0.32769889135020247  1.0000
  F   F2        1.0  0.8804984521962708  0.7068655529590658  0.6723002392103865  1.0000
  F   F3        1.0  0.05737131739432041  0.12078007029608531  0.6530606963521778  1.0000
  F   F4        1.0  0.9426240003437837  0.8792228126190478  0.34693930284003466  1.0000
