data_image0
_chemical_formula_structural       Cd2Cu2H44C52N8Cl4O4
_chemical_formula_sum              "Cd2 Cu2 H44 C52 N8 Cl4 O4"
_cell_length_a       7.140022365416056
_cell_length_b       14.421205605541232
_cell_length_c       15.535166430667358
_cell_angle_alpha    117.72577195603576
_cell_angle_beta     98.24215683470915
_cell_angle_gamma    90.02522432198936

_space_group_name_H-M_alt    "P 1"
_space_group_IT_number       1

loop_
  _space_group_symop_operation_xyz
  'x, y, z'

loop_
  _atom_site_type_symbol
  _atom_site_label
  _atom_site_symmetry_multiplicity
  _atom_site_fract_x
  _atom_site_fract_y
  _atom_site_fract_z
  _atom_site_occupancy
  Cd  Cd1       1.0  0.7500882739559033  0.9408401668923502  0.00036040022959593626  1.0000
  Cd  Cd2       1.0  0.24990351692581927  0.05915842410231414  0.9996368261489649  1.0000
  Cu  Cu1       1.0  0.5000038674377124  5.912456515378053e-07  0.4999995364674277  1.0000
  Cu  Cu2       1.0  0.9999969726964795  0.5000024647156635  0.5000003226675247  1.0000
  H   H1        1.0  0.5332246111244531  0.35241485104047837  0.6660343422158519  1.0000
  H   H2        1.0  0.9668034637526618  0.686082053303103  0.33420195692762183  1.0000
  H   H3        1.0  0.4667787170809207  0.6475842338505943  0.33396495864661807  1.0000
  H   H4        1.0  0.03319693647696909  0.31391857815021484  0.665798103598469  1.0000
  H   H5        1.0  0.46274183191399504  0.4788830238142551  0.6002674877693508  1.0000
  H   H6        1.0  0.03735477575254719  0.8784844048475264  0.3999911676979552  1.0000
  H   H7        1.0  0.5372615001952215  0.5211167055221466  0.3997324578296003  1.0000
  H   H8        1.0  0.9626442129176951  0.12151677985255563  0.6000094450324411  1.0000
  H   H9        1.0  0.3507258602940766  0.4143079017129807  0.4212133437808277  1.0000
  H   H10       1.0  0.14944062000859765  0.9934209123744963  0.5790738426075991  1.0000
  H   H11       1.0  0.6492762621620048  0.585690211842099  0.5787865540394463  1.0000
  H   H12       1.0  0.8505552309719705  0.006582699025258852  0.42092684029643834  1.0000
  H   H13       1.0  0.3046179233503139  0.2214308984493556  0.30823173474711757  1.0000
  H   H14       1.0  0.19501238364028947  0.9137438352777351  0.6920286558555517  1.0000
  H   H15       1.0  0.6953827914502285  0.7785684127978242  0.6917693600139359  1.0000
  H   H16       1.0  0.8049835721972517  0.0862593360533026  0.30797237179346837  1.0000
  H   H17       1.0  0.3034067493792564  0.05337153364578031  0.2777537521070172  1.0000
  H   H18       1.0  0.19588846305183683  0.7763228849538706  0.7224992196284462  1.0000
  H   H19       1.0  0.6965925460542055  0.9466270419575054  0.7222466053853724  1.0000
  H   H20       1.0  0.8041105256184128  0.22367829974621148  0.2775013931019501  1.0000
  H   H21       1.0  0.23384111723258635  0.8898093432573119  0.23004257562237035  1.0000
  H   H22       1.0  0.2659953464997145  0.6604890793427173  0.7700647371096495  1.0000
  H   H23       1.0  0.7661609042703716  0.11018985481181437  0.769957622189395  1.0000
  H   H24       1.0  0.7340023276604271  0.3395109296447599  0.2299354830970657  1.0000
  H   H25       1.0  0.325949494584684  0.82708449938945  0.3019678403564897  1.0000
  H   H26       1.0  0.1736301803594032  0.5256683284253968  0.6981296413068777  1.0000
  H   H27       1.0  0.6740525230144244  0.17291405423434708  0.6980317127187874  1.0000
  H   H28       1.0  0.8263699984447471  0.474331249829369  0.30186779551978304  1.0000
  H   H29       1.0  0.6694453769998107  0.7864364602118529  0.309185935899329  1.0000
  H   H30       1.0  0.8306973557942855  0.4776328823710614  0.6910520721854496  1.0000
  H   H31       1.0  0.33056070069814325  0.21356711381703514  0.6908170737014245  1.0000
  H   H32       1.0  0.16930356481635309  0.5223649042933545  0.30894906732910243  1.0000
  H   H33       1.0  0.9489129610097251  0.7462812382875014  0.21738601601291657  1.0000
  H   H34       1.0  0.5511794880083515  0.5290965092234785  0.7828351595032714  1.0000
  H   H35       1.0  0.0510931166882287  0.2537223357413864  0.782616993587837  1.0000
  H   H36       1.0  0.4488212228883413  0.4709021575783723  0.21716529052130082  1.0000
  H   H37       1.0  0.9537442994746359  0.805258121832793  0.08917430075421623  1.0000
  H   H38       1.0  0.5461743179932625  0.7165381502928909  0.9111929603740948  1.0000
  H   H39       1.0  0.04625914920309529  0.19474310077087856  0.9108279237991823  1.0000
  H   H40       1.0  0.4538230337882753  0.2834618900100736  0.08880493612468852  1.0000
  H   H41       1.0  0.4291975232304355  0.925891618643135  0.13006455169769288  1.0000
  H   H42       1.0  0.07035144571749902  0.7968249528155978  0.8702386958304018  1.0000
  H   H43       1.0  0.5708045953218034  0.07410585046661572  0.869934701386093  1.0000
  H   H44       1.0  0.9296461118741278  0.20317356290460956  0.1297592454218659  1.0000
  C   C1        1.0  0.4571833687926203  0.21454353402029364  0.5254135666368072  1.0000
  C   C2        1.0  0.0427899118602113  0.6891423450965634  0.4747701634386132  1.0000
  C   C3        1.0  0.5428213748759846  0.7854556420693442  0.4745858267578457  1.0000
  C   C4        1.0  0.9572062575951111  0.31086059054237575  0.5252321984368749  1.0000
  C   C5        1.0  0.48280998932030883  0.32497281290225993  0.5877940072088848  1.0000
  C   C6        1.0  0.017195460982954082  0.7370711690702407  0.41243380517411055  1.0000
  C   C7        1.0  0.5171948670129609  0.6750272120093187  0.41220702040372714  1.0000
  C   C8        1.0  0.9828007977139563  0.26292874871867167  0.587566322500429  1.0000
  C   C9        1.0  0.4448955001861636  0.39460469646045493  0.5505138640660691  1.0000
  C   C10       1.0  0.05514832513900104  0.8440845930630302  0.4497413509995952  1.0000
  C   C11       1.0  0.5551078280192102  0.6053943884306178  0.44948543679640107  1.0000
  C   C12       1.0  0.9448489413047982  0.15591910953529  0.5502594244366179  1.0000
  C   C13       1.0  0.38135008188976377  0.3586020556170482  0.4493849845860397  1.0000
  C   C14       1.0  0.11865280697751503  0.9094649298762364  0.5508785168927305  1.0000
  C   C15       1.0  0.6186505202461136  0.6413964068081839  0.5506144759570618  1.0000
  C   C16       1.0  0.8813419353030343  0.09053598122815745  0.4491218182411245  1.0000
  C   C17       1.0  0.3548964239962089  0.25167808412886217  0.3869934592296715  1.0000
  C   C18       1.0  0.14486835451499758  0.8650706181641397  0.613258663378943  1.0000
  C   C19       1.0  0.6451055936028993  0.7483204694949349  0.6130060938456124  1.0000
  C   C20       1.0  0.8551244558251626  0.13493369097592012  0.386741144970749  1.0000
  C   C21       1.0  0.39197183829337945  0.1783104015139898  0.4227660962133015  1.0000
  C   C22       1.0  0.1077426460707755  0.75583129322154  0.577444687729603  1.0000
  C   C23       1.0  0.6080287677463474  0.8216887053565711  0.577234009066288  1.0000
  C   C24       1.0  0.8922507934112006  0.2441703755062291  0.4225571890900213  1.0000
  C   C25       1.0  0.3615192396966691  0.06955387755278505  0.3533272866715578  1.0000
  C   C26       1.0  0.13801126725334  0.7167120912485458  0.646892465172023  1.0000
  C   C27       1.0  0.6384800557367927  0.9304446980504933  0.6466730708208318  1.0000
  C   C28       1.0  0.8619847934411666  0.28329064001378157  0.3531089072219871  1.0000
  C   C29       1.0  0.3572313018567358  0.8861021537337165  0.27933945995663845  1.0000
  C   C30       1.0  0.1424513607671685  0.6073762009590169  0.7208089524264878  1.0000
  C   C31       1.0  0.642767993576726  0.11389642186956907  0.7206608975357582  1.0000
  C   C32       1.0  0.857546095871335  0.3926233992752302  0.2791892888172783  1.0000
  C   C33       1.0  0.526540851331852  0.8579191198771879  0.22607135478961754  1.0000
  C   C34       1.0  0.973265196338197  0.6325219053296607  0.7741473155706587  1.0000
  C   C35       1.0  0.4734627953482757  0.14207928925307559  0.7739296250443032  1.0000
  C   C36       1.0  0.0267338932851757  0.36747819485637484  0.22585299716823937  1.0000
  C   C37       1.0  0.6756145597191863  0.8069466058149144  0.25034739871286865  1.0000
  C   C38       1.0  0.8243665060655161  0.5570674978487772  0.7498848807814866  1.0000
  C   C39       1.0  0.3243903005179263  0.193054063541993  0.7496542736362244  1.0000
  C   C40       1.0  0.1756312651438989  0.4429307821793315  0.2501143946972491  1.0000
  C   C41       1.0  0.830480188349519  0.7859153031605716  0.2004408755294947  1.0000
  C   C42       1.0  0.6695304937084573  0.5858428660151701  0.799810686106305  1.0000
  C   C43       1.0  0.1695259863977014  0.21408654190894064  0.7995611893432794  1.0000
  C   C44       1.0  0.33046990652118075  0.4141577654381479  0.20018937441978588  1.0000
  C   C45       1.0  0.8341613404055581  0.8178397744669823  0.12887787576203644  1.0000
  C   C46       1.0  0.6657185726315902  0.6894426039516118  0.871427100912989  1.0000
  C   C47       1.0  0.16584058404812652  0.18216115256151263  0.8711232667777083  1.0000
  C   C48       1.0  0.33428040042326757  0.31055600296715363  0.1285709328714688  1.0000
  C   C49       1.0  0.5416352154734129  0.886338047309593  0.15236878871667875  1.0000
  C   C50       1.0  0.958077745670089  0.7347600307407659  0.8478934071753629  1.0000
  C   C51       1.0  0.45836559637641017  0.11365953497821121  0.8476313613163953  1.0000
  C   C52       1.0  0.041919707064572286  0.26523892504815183  0.1521041893319222  1.0000
  N   N1        1.0  0.3952940454455103  0.989255742747332  0.3689555864853703  1.0000
  N   N2        1.0  0.10437655759164947  0.6206802425952134  0.6311920905823669  1.0000
  N   N3        1.0  0.6047064596410934  0.010744448637275394  0.6310448187857032  1.0000
  N   N4        1.0  0.8956194913913154  0.3793205553311266  0.36880734760218553  1.0000
  N   N5        1.0  0.6924651786270533  0.8675929352628202  0.10561312041100017  1.0000
  N   N6        1.0  0.807294033184725  0.7626468252247135  0.8947008625441908  1.0000
  N   N7        1.0  0.30753825443529337  0.13240570955954206  0.8943865251964594  1.0000
  N   N8        1.0  0.19270483891700965  0.23735286620809856  0.1052974712317578  1.0000
  Cl  Cl1       1.0  0.9033128972267054  0.0011771918915143209  0.8895368318543433  1.0000
  Cl  Cl2       1.0  0.5962240614257298  0.11156584947086398  0.11074190258432993  1.0000
  Cl  Cl3       1.0  0.09668628944594099  0.9988211793351524  0.1104625361565752  1.0000
  Cl  Cl4       1.0  0.4037720924142079  0.8884345083867655  0.8892578803452196  1.0000
  O   O1        1.0  0.4911075237463225  0.15175713781521682  0.5641933406830546  1.0000
  O   O2        1.0  0.009078896346636589  0.5874416065385474  0.4359151181189915  1.0000
  O   O3        1.0  0.5089000547525941  0.8482428651168732  0.43580688251244487  1.0000
  O   O4        1.0  0.9909198826096743  0.4125604582989695  0.564084805121425  1.0000
