data_image0
_chemical_formula_structural       Zn4H28C40N12O16
_chemical_formula_sum              "Zn4 H28 C40 N12 O16"
_cell_length_a       9.695653277006112
_cell_length_b       10.219679344868585
_cell_length_c       11.327890692485314
_cell_angle_alpha    97.6678866105768
_cell_angle_beta     90.00006600810806
_cell_angle_gamma    89.99988132056653

_space_group_name_H-M_alt    "P 1"
_space_group_IT_number       1

loop_
  _space_group_symop_operation_xyz
  'x, y, z'

loop_
  _atom_site_type_symbol
  _atom_site_label
  _atom_site_symmetry_multiplicity
  _atom_site_fract_x
  _atom_site_fract_y
  _atom_site_fract_z
  _atom_site_occupancy
  Zn  Zn1       1.0  0.5894653325612751  0.1056970754025954  0.39896144418622015  1.0000
  Zn  Zn2       1.0  0.0894658373063848  0.39430397550120955  0.6010379398586565  1.0000
  Zn  Zn3       1.0  0.41053390792251326  0.8943032417402039  0.601038175773553  1.0000
  Zn  Zn4       1.0  0.9105344345674243  0.6056963416406377  0.39896168010150757  1.0000
  H   H1        1.0  0.8541662460043115  0.02986355473154841  0.0121368465600682  1.0000
  H   H2        1.0  0.35416607439788095  0.47013601681809564  0.9878643842235418  1.0000
  H   H3        1.0  0.14583402587108912  0.9701357733898421  0.9878635356100461  1.0000
  H   H4        1.0  0.6458341974775195  0.5298633113032951  0.012135997946572313  1.0000
  H   H5        1.0  0.35988800580663144  0.32670842109282466  0.427475440250042  1.0000
  H   H6        1.0  0.8598896496141039  0.17329213060209986  0.5725241501175304  1.0000
  H   H7        1.0  0.640111234677157  0.6732918960499675  0.5725241797097311  1.0000
  H   H8        1.0  0.1401106222602948  0.8267081848507163  0.42747635241489956  1.0000
  H   H9        1.0  0.4527949698527395  0.2214536729510002  0.8244766413498111  1.0000
  H   H10       1.0  0.9527958482855327  0.2785457199043435  0.1755228995396507  1.0000
  H   H11       1.0  0.5472053020220643  0.7785456568594145  0.17552285824803698  1.0000
  H   H12       1.0  0.047203392197850705  0.7214555828808573  0.8244777233547042  1.0000
  H   H13       1.0  0.1444176269820758  0.09153475018727164  0.6446518628719461  1.0000
  H   H14       1.0  0.6444174317281082  0.4084652119422716  0.3553474427368641  1.0000
  H   H15       1.0  0.8555826448927277  0.9084645796231432  0.3553476367259023  1.0000
  H   H16       1.0  0.35558180875668205  0.5915341178690953  0.6446520568605862  1.0000
  H   H17       1.0  0.6568792119779729  0.1409627303504948  0.7014162762790052  1.0000
  H   H18       1.0  0.15687835510813394  0.359037207086196  0.2985839214095378  1.0000
  H   H19       1.0  0.343122091287441  0.8590365977699438  0.2985841058915  1.0000
  H   H20       1.0  0.843121916766272  0.6409631083666201  0.7014165811228922  1.0000
  H   H21       1.0  0.45029127638317606  0.20573311084892515  0.041945061736896605  1.0000
  H   H22       1.0  0.9502921432206505  0.294267273959747  0.958054597604651  1.0000
  H   H23       1.0  0.5497089954916349  0.7942662189614896  0.9580544378609447  1.0000
  H   H24       1.0  0.04970812865175131  0.7057350161559273  0.04194614565241752  1.0000
  H   H25       1.0  0.08702610328760581  0.9760252598931849  0.8095178673513531  1.0000
  H   H26       1.0  0.5870254966711458  0.5239749173151156  0.1904835068436057  1.0000
  H   H27       1.0  0.9129731371971848  0.023974069918189407  0.1904816322461045  1.0000
  H   H28       1.0  0.4129737438126427  0.4760253998276838  0.8095161131161674  1.0000
  C   C1        1.0  0.8946271552225795  0.036268788048289514  0.780022806773964  1.0000
  C   C2        1.0  0.3946269945397631  0.4637297197889085  0.21997921708974394  1.0000
  C   C3        1.0  0.10537311665382285  0.9637295527416686  0.2199774550338347  1.0000
  C   C4        1.0  0.6053743087240591  0.5362705973519797  0.7800204028708109  1.0000
  C   C5        1.0  0.7661222371021738  0.07264022401493973  0.9722915561073436  1.0000
  C   C6        1.0  0.2661229284465776  0.4273585227341885  0.027709487140036522  1.0000
  C   C7        1.0  0.23387803477322686  0.9273591041064507  0.0277088260627707  1.0000
  C   C8        1.0  0.7338783748178416  0.5726417927176828  0.9722910153927914  1.0000
  C   C9        1.0  0.7689357771574806  0.08139577885228283  0.8500780638862153  1.0000
  C   C10       1.0  0.26893562093403034  0.41860395003517675  0.1499231018697813  1.0000
  C   C11       1.0  0.2310634633259028  0.918605523932911  0.1499225590081394  1.0000
  C   C12       1.0  0.7310646509403755  0.5813963654176391  0.8500774006626485  1.0000
  C   C13       1.0  0.6525026055734602  0.1175259035784535  0.0419337566606757  1.0000
  C   C14       1.0  0.1525036172178105  0.3824730546044251  0.9580663173270735  1.0000
  C   C15       1.0  0.3474966349113303  0.8824734262329134  0.9580657429367748  1.0000
  C   C16       1.0  0.8474966546565882  0.617527260848391  0.0419341852053563  1.0000
  C   C17       1.0  0.3313371886694299  0.24677403160725225  0.4776238561446675  1.0000
  C   C18       1.0  0.8313375584491071  0.2532265744834845  0.5223748298669548  1.0000
  C   C19       1.0  0.6686620518143586  0.7532262855355399  0.5223757638151056  1.0000
  C   C20       1.0  0.1686627134247018  0.7467737426583627  0.47762479009320913  1.0000
  C   C21       1.0  0.6533350379168185  0.1056091261556134  0.1719055050942941  1.0000
  C   C22       1.0  0.15333481697116724  0.3943908178231369  0.8280946898904205  1.0000
  C   C23       1.0  0.34666523395798526  0.8943902036548083  0.8280939945035471  1.0000
  C   C24       1.0  0.8466654549026347  0.6056094993187032  0.1719049300697435  1.0000
  C   C25       1.0  0.5412109526406256  0.17974271184126425  0.8658745239280777  1.0000
  C   C26       1.0  0.041210990541323204  0.32025645179002293  0.13412546514798862  1.0000
  C   C27       1.0  0.4587913820110219  0.8202585960081665  0.1341234512506588  1.0000
  C   C28       1.0  0.9587903127240978  0.6797428763304156  0.8658749170225164  1.0000
  C   C29       1.0  0.2227743119709943  0.12795488662597884  0.5889630907165113  1.0000
  C   C30       1.0  0.7227753029013969  0.37204492916480814  0.41103715724820233  1.0000
  C   C31       1.0  0.7772259599044135  0.872044441495405  0.411037291453603  1.0000
  C   C32       1.0  0.27722496897300175  0.6279553862880081  0.5889633452842276  1.0000
  C   C33       1.0  0.6552373100510992  0.13479268051398924  0.7967598056760536  1.0000
  C   C34       1.0  0.15523734261289232  0.365205283600993  0.2032410326077496  1.0000
  C   C35       1.0  0.3447639932147197  0.8652056619640478  0.20323957355986977  1.0000
  C   C36       1.0  0.8447639606511218  0.6347960174932725  0.7967604728596598  1.0000
  C   C37       1.0  0.5393236002075029  0.17142699494076655  0.9878926923548123  1.0000
  C   C38       1.0  0.0393244869005542  0.3285731595052681  0.012107415643910697  1.0000
  C   C39       1.0  0.46067667166510523  0.8285733255791358  0.012105162460812788  1.0000
  C   C40       1.0  0.9606757849740364  0.6714281399009254  0.9878949723953738  1.0000
  N   N1        1.0  0.40763438608739483  0.13972469463288925  0.48306276820257216  1.0000
  N   N2        1.0  0.9076334826846663  0.36027576892323065  0.5169368585927145  1.0000
  N   N3        1.0  0.5923658857864069  0.8602756225089581  0.5169368517575919  1.0000
  N   N4        1.0  0.09236575779971903  0.6397245465305378  0.48306364393932455  1.0000
  N   N5        1.0  0.33854995181296493  0.06364631151387101  0.555124801657719  1.0000
  N   N6        1.0  0.838548784696542  0.43635427957428885  0.44487477242865486  1.0000
  N   N7        1.0  0.6614503200618459  0.9363530182965437  0.4448746979401221  1.0000
  N   N8        1.0  0.1614504557878433  0.5636460358794793  0.5551257301033844  1.0000
  N   N9        1.0  0.21485720513362594  0.24292745801047036  0.5427108652946373  1.0000
  N   N10       1.0  0.7148574788048805  0.25707237239618064  0.45728937662934754  1.0000
  N   N11       1.0  0.7851420353517541  0.7570718701118722  0.45728951687507907  1.0000
  N   N12       1.0  0.28514279307052703  0.742926955725203  0.5427110055407667  1.0000
  O   O1        1.0  0.5433940238201416  0.13857834755270204  0.232610454568615  1.0000
  O   O2        1.0  0.043394824693585604  0.36142179937930063  0.7673896565356628  1.0000
  O   O3        1.0  0.45660624805466193  0.8614209822577196  0.7673890450292334  1.0000
  O   O4        1.0  0.9566054471812252  0.6385775304311212  0.2326098430621855  1.0000
  O   O5        1.0  0.7589102626715772  0.06351125792281923  0.2219542429015959  1.0000
  O   O6        1.0  0.25891091348520234  0.43648849116030436  0.7780460326333555  1.0000
  O   O7        1.0  0.2410900092022246  0.9364890592190209  0.778045377058568  1.0000
  O   O8        1.0  0.7410893583886066  0.5635118259815428  0.22195358732680856  1.0000
  O   O9        1.0  0.904411885426832  0.030000899700723907  0.6705322232938613  1.0000
  O   O10       1.0  0.4044128899096506  0.4699995647353818  0.3294700487602995  1.0000
  O   O11       1.0  0.09558735505855512  0.9699984284216187  0.329468158875855  1.0000
  O   O12       1.0  0.5955894447457909  0.5299997633841045  0.6705303334105963  1.0000
  O   O13       1.0  0.9961655213134506  0.004856316719070702  0.8502100019319486  1.0000
  O   O14       1.0  0.49616519727410957  0.4951410163441921  0.14979197903930705  1.0000
  O   O15       1.0  0.0038347505629517014  0.9951420240708877  0.14979025987584296  1.0000
  O   O16       1.0  0.5038340432102687  0.5048592991095759  0.8502085234927323  1.0000
