data_image0
_chemical_formula_structural       Ag4H36C20S4N4O12
_chemical_formula_sum              "Ag4 H36 C20 S4 N4 O12"
_cell_length_a       4.717431133202258
_cell_length_b       11.449786610032087
_cell_length_c       15.816665826871292
_cell_angle_alpha    95.94921190019707
_cell_angle_beta     90.00055466046086
_cell_angle_gamma    89.99906995451029

_space_group_name_H-M_alt    "P 1"
_space_group_IT_number       1

loop_
  _space_group_symop_operation_xyz
  'x, y, z'

loop_
  _atom_site_type_symbol
  _atom_site_label
  _atom_site_symmetry_multiplicity
  _atom_site_fract_x
  _atom_site_fract_y
  _atom_site_fract_z
  _atom_site_occupancy
  Ag  Ag1       1.0  0.5340778889597785  0.28365331872880256  0.1481222775340996  1.0000
  Ag  Ag2       1.0  0.03410060760732139  0.21633636460614258  0.35186951665221494  1.0000
  Ag  Ag3       1.0  0.4659570295162111  0.7163267116045232  0.8518738068208833  1.0000
  Ag  Ag4       1.0  0.9659364300029762  0.7836769656441475  0.6481249739233661  1.0000
  H   H1        1.0  0.18003556954018052  0.2552233500487019  0.8984047157548077  1.0000
  H   H2        1.0  0.6801188267574075  0.24478699136943757  0.6016046718833294  1.0000
  H   H3        1.0  0.8198721612229602  0.7447640111369649  0.10160955695477718  1.0000
  H   H4        1.0  0.3199139713733742  0.7552255701822047  0.3983960908367976  1.0000
  H   H5        1.0  0.036285784390450694  0.27184232630414573  0.003254857243561589  1.0000
  H   H6        1.0  0.5363230892745959  0.22817662400572658  0.4967565809971716  1.0000
  H   H7        1.0  0.9636537432989484  0.7281557352491318  0.9967696068399476  1.0000
  H   H8        1.0  0.4636821512912021  0.7718500518725548  0.5032489079161593  1.0000
  H   H9        1.0  0.3745653549450764  0.2085264251570749  0.9856386341343537  1.0000
  H   H10       1.0  0.8746270471210097  0.29147373469621835  0.5143630462091765  1.0000
  H   H11       1.0  0.6253741726693248  0.7914661822993451  0.014374720631366182  1.0000
  H   H12       1.0  0.12538667288919916  0.7085344148521457  0.4856361604152184  1.0000
  H   H13       1.0  0.0683545167847086  0.5765729507943788  0.1288043496726488  1.0000
  H   H14       1.0  0.5683675680765248  0.9234154746106283  0.3711910224242345  1.0000
  H   H15       1.0  0.9316168078959277  0.4234045440212809  0.8711972577230752  1.0000
  H   H16       1.0  0.431637672607998  0.07660237713653828  0.6288113543436326  1.0000
  H   H17       1.0  0.9362854938195683  0.4433388900317539  0.162604803866401  1.0000
  H   H18       1.0  0.43628418339613967  0.05666928414806448  0.3373918842573218  1.0000
  H   H19       1.0  0.0636815909020356  0.5566570108397073  0.8373961226496931  1.0000
  H   H20       1.0  0.5637146978723492  0.9433566011729794  0.6626186107664154  1.0000
  H   H21       1.0  0.7708926291344227  0.5777160905941868  0.1979197340133609  1.0000
  H   H22       1.0  0.2708676948914075  0.9222771260899376  0.3020746333588845  1.0000
  H   H23       1.0  0.22911049222452104  0.42227452005407423  0.8020795784652179  1.0000
  H   H24       1.0  0.7291523842079854  0.07774501741407387  0.6979223363259309  1.0000
  H   H25       1.0  0.1537070058062113  0.9123013499402219  0.06082140797747118  1.0000
  H   H26       1.0  0.6537245137055833  0.5876716789844918  0.4391782478924426  1.0000
  H   H27       1.0  0.846308834476403  0.08768224727919008  0.9391780734663797  1.0000
  H   H28       1.0  0.34625104967163617  0.41234423092274125  0.5608132515547908  1.0000
  H   H29       1.0  0.403536739331848  0.9361560763223405  0.14898401278985315  1.0000
  H   H30       1.0  0.9035438331279124  0.5638353962130579  0.3510106164121609  1.0000
  H   H31       1.0  0.5965024185232507  0.06383535758453009  0.8510121926614502  1.0000
  H   H32       1.0  0.09646776685489299  0.4361769795509997  0.6489793850140018  1.0000
  H   H33       1.0  0.4104527113636464  0.02853774004756099  0.0653201599905628  1.0000
  H   H34       1.0  0.9104786927008488  0.4714389713938374  0.43467311155641397  1.0000
  H   H35       1.0  0.5895631287135217  0.9714510051516355  0.9346727063289961  1.0000
  H   H36       1.0  0.08952230839986439  0.528577102421643  0.5653278831583037  1.0000
  C   C1        1.0  0.3691456760560357  0.39410803950560325  0.9830674763277257  1.0000
  C   C2        1.0  0.8691827624075187  0.10589302291916877  0.5169336159119666  1.0000
  C   C3        1.0  0.630817169054879  0.6058932170817782  0.016938862358955486  1.0000
  C   C4        1.0  0.1308097597637286  0.8941063244327907  0.4830637445729877  1.0000
  C   C5        1.0  0.6784833999619123  0.5148175267242293  0.06856120497152318  1.0000
  C   C6        1.0  0.1784220791587785  0.9851744170578767  0.4314258603719452  1.0000
  C   C7        1.0  0.3215133622177149  0.48515899157361264  0.9314346473045417  1.0000
  C   C8        1.0  0.8215301663217998  0.014847628272804099  0.5685654120890006  1.0000
  C   C9        1.0  0.2320370104771285  0.276461601988295  0.9657953225419218  1.0000
  C   C10       1.0  0.7320849872593626  0.2235483563080507  0.534211658363823  1.0000
  C   C11       1.0  0.7679088762806856  0.7235459539930529  0.03422028440296998  1.0000
  C   C12       1.0  0.2679393319285309  0.7764510456038634  0.46578886723840174  1.0000
  C   C13       1.0  0.8752863555670983  0.528928346285376  0.1429004715625766  1.0000
  C   C14       1.0  0.3753037260059386  0.9710641121677521  0.35708971643904863  1.0000
  C   C15       1.0  0.12470616692488785  0.47106060671223554  0.8571044220288613  1.0000
  C   C16       1.0  0.6247481501203536  0.028947352626559588  0.6428983279800704  1.0000
  C   C17       1.0  0.2730934619807995  0.9765477220029337  0.10267739921224715  1.0000
  C   C18       1.0  0.7731035989620734  0.5234331439067998  0.3973136293300072  1.0000
  C   C19       1.0  0.7269372166890804  0.023442822958855896  0.8973181152048183  1.0000
  C   C20       1.0  0.22687832395551769  0.47657576352509773  0.6026786720906187  1.0000
  S   S1        1.0  0.027757826524919  0.07214564669600781  0.1594867090507535  1.0000
  S   S2        1.0  0.5277591179691257  0.42784051114738003  0.34050167276045323  1.0000
  S   S3        1.0  0.9722601335361674  0.9278424063130544  0.8405168605315367  1.0000
  S   S4        1.0  0.4722376437568697  0.5721543147976573  0.6594878014989973  1.0000
  N   N1        1.0  0.5433543506613675  0.411213148286258  0.0509224460955906  1.0000
  N   N2        1.0  0.04337661569456941  0.08879494612467198  0.4490724876755436  1.0000
  N   N3        1.0  0.45661273425150734  0.5887766937671585  0.9490831384892005  1.0000
  N   N4        1.0  0.9566010676799978  0.91121670476862  0.5509263179225456  1.0000
  O   O1        1.0  0.8552527791555062  0.12285362117845007  0.0943036437572076  1.0000
  O   O2        1.0  0.3552562390784217  0.3771322529902719  0.4056913407917904  1.0000
  O   O3        1.0  0.14475670169202456  0.8771317212089893  0.905695320679655  1.0000
  O   O4        1.0  0.6447638404103485  0.6228706173645191  0.5943068847751006  1.0000
  O   O5        1.0  0.20347747999404223  0.16509177415829865  0.2088434962711148  1.0000
  O   O6        1.0  0.7034976956019463  0.33488635419411134  0.2911530743550372  1.0000
  O   O7        1.0  0.7965616779529086  0.8348979692650644  0.7911563912584612  1.0000
  O   O8        1.0  0.29654994131892204  0.6651103151268813  0.708841580108512  1.0000
  O   O9        1.0  0.8676811673943873  0.003406934613160199  0.2160154432072829  1.0000
  O   O10       1.0  0.3676888393197402  0.4965728323798046  0.28398612842717336  1.0000
  O   O11       1.0  0.13235587109067382  0.9965670587607033  0.7839865652505295  1.0000
  O   O12       1.0  0.6323036826936955  0.5034290288319025  0.7160044429088046  1.0000
