data_image0
_chemical_formula_structural       Cu2H30C32N24O8
_chemical_formula_sum              "Cu2 H30 C32 N24 O8"
_cell_length_a       8.207629935347258
_cell_length_b       10.861808049130184
_cell_length_c       12.169224313455478
_cell_angle_alpha    80.60320526384618
_cell_angle_beta     80.11908406972361
_cell_angle_gamma    87.36596201168227

_space_group_name_H-M_alt    "P 1"
_space_group_IT_number       1

loop_
  _space_group_symop_operation_xyz
  'x, y, z'

loop_
  _atom_site_type_symbol
  _atom_site_label
  _atom_site_symmetry_multiplicity
  _atom_site_fract_x
  _atom_site_fract_y
  _atom_site_fract_z
  _atom_site_occupancy
  Cu  Cu1       1.0  0.2849893619381731  0.5245115963961953  0.08393772574452638  1.0000
  Cu  Cu2       1.0  0.7150063516974259  0.47548627367114454  0.9160651820732894  1.0000
  H   H1        1.0  0.10211695788319021  0.31551920260003646  0.2778751834683603  1.0000
  H   H2        1.0  0.8978752933091984  0.6844674747238744  0.7221231790971103  1.0000
  H   H3        1.0  0.843662735891506  0.19115873545359816  0.28623985726457596  1.0000
  H   H4        1.0  0.15632835658814057  0.8088242116288809  0.713757538468414  1.0000
  H   H5        1.0  0.6684311997454201  0.2557976515007141  0.1350465205880411  1.0000
  H   H6        1.0  0.3315485315899878  0.7441974774730797  0.8649528279131005  1.0000
  H   H7        1.0  0.5280141552920626  0.16897319718219714  0.3558624885382357  1.0000
  H   H8        1.0  0.47199007999397213  0.831034897880315  0.644133034788716  1.0000
  H   H9        1.0  0.46417720080503955  0.09165864902441712  0.4975953375578683  1.0000
  H   H10       1.0  0.5358271033254739  0.9083466430381789  0.5023981236774802  1.0000
  H   H11       1.0  0.649886595983034  0.178710569889688  0.4645013039573485  1.0000
  H   H12       1.0  0.35012148538680066  0.8212900423553222  0.5354940634967563  1.0000
  H   H13       1.0  0.15939170724625026  0.35052806984425194  0.7720736131155661  1.0000
  H   H14       1.0  0.8406213330237975  0.6494706584913034  0.227923940025903  1.0000
  H   H15       1.0  0.21674590140936797  0.511384813794159  0.7346680014595748  1.0000
  H   H16       1.0  0.78326464710306  0.48861299641078665  0.2653340743189574  1.0000
  H   H17       1.0  0.3685199896118689  0.3933201562521447  0.7677111715579912  1.0000
  H   H18       1.0  0.6314930736063358  0.6066776377501029  0.23228569421961248  1.0000
  H   H19       1.0  0.17051353948458112  0.9475746338866319  0.9462106409471145  1.0000
  H   H20       1.0  0.8294871258343405  0.05242414618511762  0.05378911325244219  1.0000
  H   H21       1.0  0.1259471749190624  0.07803507104038232  0.8435672428957444  1.0000
  H   H22       1.0  0.8740498238288409  0.9219599939830662  0.15643593209480847  1.0000
  H   H23       1.0  0.10914931182824011  0.09578514750157303  0.9879184881682619  1.0000
  H   H24       1.0  0.8908501971835677  0.9042089710241188  0.012082078967367151  1.0000
  H   H25       1.0  0.8780646255466067  0.023194636001072407  0.7626081713665228  1.0000
  H   H26       1.0  0.121935791415055  0.976818144936388  0.2373903800064809  1.0000
  H   H27       1.0  0.7345103046535898  0.0019712897754474  0.6716141080376586  1.0000
  H   H28       1.0  0.2654876640411389  0.9980396356694143  0.3283858114761387  1.0000
  H   H29       1.0  0.7447211889867733  0.889632149001095  0.795193263384938  1.0000
  H   H30       1.0  0.25528672008717024  0.1103768671958534  0.2048041784566266  1.0000
  C   C1        1.0  0.023291382395640894  0.33422268837578173  0.21337440335774008  1.0000
  C   C2        1.0  0.9767094946373619  0.6657630271826777  0.7866288857871736  1.0000
  C   C3        1.0  0.8811396067399286  0.2669458217524365  0.21758470814588543  1.0000
  C   C4        1.0  0.11886608632369194  0.7330482714099419  0.7824151696494325  1.0000
  C   C5        1.0  0.7840435781353036  0.3018469136123016  0.1337621513536149  1.0000
  C   C6        1.0  0.21594848466054367  0.6981491009872941  0.8662381505857156  1.0000
  C   C7        1.0  0.9729022414643892  0.4514941304868502  0.047899922726330084  1.0000
  C   C8        1.0  0.02709596874009179  0.548502795101861  0.9521020219914859  1.0000
  C   C9        1.0  0.38005346625426023  0.3748494991962162  0.3910082518451219  1.0000
  C   C10       1.0  0.619942155219313  0.6251549011086439  0.6089912437450734  1.0000
  C   C11       1.0  0.524396116111774  0.17414698262807352  0.4452833119964054  1.0000
  C   C12       1.0  0.4756106410969353  0.8258583023178758  0.554712340635227  1.0000
  C   C13       1.0  0.3844727525166504  0.29753080107278157  0.5848840407072444  1.0000
  C   C14       1.0  0.6155390968393561  0.7024660636688297  0.4151122755745504  1.0000
  C   C15       1.0  0.2576079402402769  0.41542666503668363  0.7292649810342055  1.0000
  C   C16       1.0  0.7424037899330499  0.5845739410763856  0.2707373742129349  1.0000
  C   C17       1.0  0.24482448281541744  0.506458408088342  0.5311755952097528  1.0000
  C   C18       1.0  0.7551711575338159  0.4935413346838545  0.46883197684566374  1.0000
  C   C19       1.0  0.2909189153640881  0.48270426364403823  0.4166916164711267  1.0000
  C   C20       1.0  0.7090853090019423  0.5173001092286711  0.5833134930623843  1.0000
  C   C21       1.0  0.39107683744045124  0.19362648819243594  0.9368969811959503  1.0000
  C   C22       1.0  0.6089150872970565  0.8063779253112882  0.0631012832434905  1.0000
  C   C23       1.0  0.17832352943084123  0.04874297063049231  0.9211011465109492  1.0000
  C   C24       1.0  0.8216747105693046  0.9512530196153507  0.07889928846552857  1.0000
  C   C25       1.0  0.47062680656883765  0.020783173475521704  0.8418369947272595  1.0000
  C   C26       1.0  0.5293799208441996  0.9792230468132956  0.1581601676457041  1.0000
  C   C27       1.0  0.7560222789888371  0.988851285394958  0.7594543392841542  1.0000
  C   C28       1.0  0.243981912806511  0.011157747029543006  0.2405443385390669  1.0000
  C   C29       1.0  0.6890657428021215  0.16880815351971282  0.8605296821191003  1.0000
  C   C30       1.0  0.3109286305717021  0.8311953225723059  0.1394733758626359  1.0000
  C   C31       1.0  0.5517881213444085  0.2370722015000126  0.914104595304636  1.0000
  C   C32       1.0  0.44820624999316294  0.7629294129923279  0.08590284459164367  1.0000
  N   N1        1.0  0.06805269407780662  0.4272803192727822  0.12782775070809288  1.0000
  N   N2        1.0  0.9319382583072482  0.5727091651141479  0.8721719894395648  1.0000
  N   N3        1.0  0.8318708418477171  0.3948887922764897  0.04833931587547368  1.0000
  N   N4        1.0  0.1681285561264119  0.605116514019386  0.9516497625673067  1.0000
  N   N5        1.0  0.25931851794780414  0.5497321244379736  0.3178207098763082  1.0000
  N   N6        1.0  0.7406747450152269  0.45026482144138663  0.6821817863137554  1.0000
  N   N7        1.0  0.32777491199360753  0.4835945829087153  0.23971511809091336  1.0000
  N   N8        1.0  0.6722207762881992  0.5164051527965442  0.760286697322222  1.0000
  N   N9        1.0  0.4039319934837097  0.37519011321096235  0.27881992784339354  1.0000
  N   N10       1.0  0.5960661016105888  0.6248142769485698  0.7211792920106745  1.0000
  N   N11       1.0  0.429276799187882  0.28496447894811894  0.4722278194077346  1.0000
  N   N12       1.0  0.5707349028566427  0.7150417170118077  0.5277655019831042  1.0000
  N   N13       1.0  0.296783817123206  0.4065758489412092  0.6092620534018067  1.0000
  N   N14       1.0  0.7032279452514275  0.59342289052438  0.3907405718725271  1.0000
  N   N15       1.0  0.5443602434956817  0.3466215528279691  0.9552727548719275  1.0000
  N   N16       1.0  0.45563789305305846  0.6533800383698961  0.044727692400421404  1.0000
  N   N17       1.0  0.3879720717513209  0.3669327256190371  0.00047539572303628057  1.0000
  N   N18       1.0  0.6120212302605168  0.6330623526032754  0.9995265481167693  1.0000
  N   N19       1.0  0.2902908735356604  0.2737145773579854  0.991691358966122  1.0000
  N   N20       1.0  0.709693775245526  0.7262814666680273  0.008308947804103194  1.0000
  N   N21       1.0  0.3502582565832739  0.0854000929466565  0.9052693362292101  1.0000
  N   N22       1.0  0.6497386822039104  0.9145996356668248  0.09473069656093  1.0000
  N   N23       1.0  0.6340712213266144  0.062078473799964215  0.8251567326131308  1.0000
  N   N24       1.0  0.36593183507353183  0.9379231011454933  0.17484645269684038  1.0000
  O   O1        1.0  0.42047711609748023  0.2160852726560449  0.6608404965736411  1.0000
  O   O2        1.0  0.5795308851384818  0.7839172133033829  0.33916035749554396  1.0000
  O   O3        1.0  0.17077490862082104  0.5993710641673715  0.563293491965375  1.0000
  O   O4        1.0  0.8292269017158205  0.40063144816492985  0.43670887382158696  1.0000
  O   O5        1.0  0.4367514936942953  0.927580460410532  0.8044220658357017  1.0000
  O   O6        1.0  0.5632528132112357  0.07242110744314091  0.19557933685126733  1.0000
  O   O7        1.0  0.8370284492559037  0.19393047556220475  0.8482421112266819  1.0000
  O   O8        1.0  0.16296092413264057  0.8060748904966459  0.1517636953325052  1.0000
