data_image0
_chemical_formula_structural       Na4H32C32O16
_chemical_formula_sum              "Na4 H32 C32 O16"
_cell_length_a       5.861547287866906
_cell_length_b       8.02322734821993
_cell_length_c       16.309345868965817
_cell_angle_alpha    89.99918882375188
_cell_angle_beta     97.31823956683085
_cell_angle_gamma    89.99997426874475

_space_group_name_H-M_alt    "P 1"
_space_group_IT_number       1

loop_
  _space_group_symop_operation_xyz
  'x, y, z'

loop_
  _atom_site_type_symbol
  _atom_site_label
  _atom_site_symmetry_multiplicity
  _atom_site_fract_x
  _atom_site_fract_y
  _atom_site_fract_z
  _atom_site_occupancy
  Na  Na1       1.0  0.6037865516573148  0.08943956227103908  0.5913909800623999  1.0000
  Na  Na2       1.0  0.89621698098658  0.589441724985697  0.40860495645424794  1.0000
  Na  Na3       1.0  0.3962066414901814  0.9105630458996856  0.4086094155018146  1.0000
  Na  Na4       1.0  0.10379317684720492  0.4105596368830645  0.591390001398402  1.0000
  H   H1        1.0  0.6406982348719197  0.5654275036373306  0.7735057838364483  1.0000
  H   H2        1.0  0.8593074280612073  0.0654568885765059  0.226498382704996  1.0000
  H   H3        1.0  0.35931896647446854  0.43455516244951997  0.2264937547650376  1.0000
  H   H4        1.0  0.14068418571339691  0.9345432267805904  0.773505627443086  1.0000
  H   H5        1.0  0.46783677987129124  0.7070422560692579  0.7064748094795164  1.0000
  H   H6        1.0  0.0321591052889048  0.20706092452588354  0.2935344831676332  1.0000
  H   H7        1.0  0.5321805619555278  0.2929528737780558  0.2935284140401464  1.0000
  H   H8        1.0  0.9678222359953491  0.7929429299619385  0.7064703329539341  1.0000
  H   H9        1.0  0.481176175679167  0.6703739703481087  0.865857417877294  1.0000
  H   H10       1.0  0.0188332791626991  0.17041706620286587  0.1341434936101749  1.0000
  H   H11       1.0  0.5188116938943635  0.3296236523603539  0.1341384674137132  1.0000
  H   H12       1.0  0.9811947331447469  0.8296266723785664  0.8658693644752163  1.0000
  H   H13       1.0  0.3303727393948891  0.6691244777313942  0.9965835645301483  1.0000
  H   H14       1.0  0.16963153793408034  0.1691463759757781  0.003416530847161401  1.0000
  H   H15       1.0  0.6696064839054259  0.3308756377604282  0.0034107404854068976  1.0000
  H   H16       1.0  0.8303896182569801  0.8308923770749458  0.9965966598610339  1.0000
  H   H17       1.0  0.7938458548663764  0.32796646974234284  0.8978974160912616  1.0000
  H   H18       1.0  0.706134664057842  0.8279909158310729  0.1021063012031505  1.0000
  H   H19       1.0  0.20617968836612016  0.6719925151925848  0.1020957187750113  1.0000
  H   H20       1.0  0.2938172986973697  0.17199175023986873  0.8978936334188818  1.0000
  H   H21       1.0  0.9538114748771421  0.32276594884093157  0.7666092960448196  1.0000
  H   H22       1.0  0.5461863127075189  0.8227916316937394  0.23339639149806862  1.0000
  H   H23       1.0  0.0462210649521637  0.6772104853851528  0.233387191116833  1.0000
  H   H24       1.0  0.45377424947391637  0.17719352713607614  0.766603895059923  1.0000
  H   H25       1.0  0.7468040134942413  0.7520063413762015  0.5584678258308601  1.0000
  H   H26       1.0  0.7531988949792917  0.2520096936209412  0.44152937815485416  1.0000
  H   H27       1.0  0.2531959421031758  0.247998759597337  0.4415297804771541  1.0000
  H   H28       1.0  0.24680110744860426  0.7479979000977722  0.5584694564653034  1.0000
  H   H29       1.0  0.8244850060184844  0.8605086225359739  0.4843880809757907  1.0000
  H   H30       1.0  0.6755140538207485  0.3605148490417277  0.5156100310136793  1.0000
  H   H31       1.0  0.17550639698593784  0.13949523204263403  0.5156104017129621  1.0000
  H   H32       1.0  0.3244893883715818  0.6394964838192505  0.4843889443708278  1.0000
  C   C1        1.0  0.6188166775040218  0.5033308401718058  0.6462521816085101  1.0000
  C   C2        1.0  0.881165064146998  0.0033516621539391002  0.3537483829493482  1.0000
  C   C3        1.0  0.38116775233808653  0.4966480868195903  0.3537435629728378  1.0000
  C   C4        1.0  0.11880412080986251  0.9966671489569449  0.6462528695912653  1.0000
  C   C5        1.0  0.5107998746227126  0.5748546358060765  0.7187279549074574  1.0000
  C   C6        1.0  0.9892109063650097  0.07487379427838899  0.2812763538793703  1.0000
  C   C7        1.0  0.4892191168337233  0.4251417404476853  0.2812734965147854  1.0000
  C   C8        1.0  0.0107824038696904  0.9251300602303375  0.7187271124834284  1.0000
  C   C9        1.0  0.22815828166083213  0.495871425187822  0.806307516978727  1.0000
  C   C10       1.0  0.2718481799536789  0.9959057760627416  0.1936952422760427  1.0000
  C   C11       1.0  0.7718554330658733  0.5041162264426972  0.19369065250523218  1.0000
  C   C12       1.0  0.7281451068355126  0.004110542266964499  0.8063076098805413  1.0000
  C   C13       1.0  0.3316046725107995  0.5933063708031554  0.8718948205212627  1.0000
  C   C14       1.0  0.16841709161840157  0.0933347275432297  0.1281053050075585  1.0000
  C   C15       1.0  0.6683968624925286  0.4066862664092028  0.1280991712575883  1.0000
  C   C16       1.0  0.8315986473322284  0.9066965473173524  0.871900918794033  1.0000
  C   C17       1.0  0.24259115140728937  0.592531292422727  0.9472678173310527  1.0000
  C   C18       1.0  0.257404747604248  0.09255556856192021  0.05272941556523851  1.0000
  C   C19       1.0  0.7574001345429479  0.40745635924307777  0.0527275946138275  1.0000
  C   C20       1.0  0.742593745660706  0.9074694744169776  0.9472748760477288  1.0000
  C   C21       1.0  0.04716202263435319  0.49932295468039456  0.9599765219286382  1.0000
  C   C22       1.0  0.452834081048664  0.9993367637557994  0.04002517565874799  1.0000
  C   C23       1.0  0.9528481586421903  0.5006671897486183  0.04001905012566451  1.0000
  C   C24       1.0  0.5471456574309456  0.0006708298332114  0.9599826408632737  1.0000
  C   C25       1.0  0.9450597584937412  0.40396716059075294  0.8923301088907538  1.0000
  C   C26       1.0  0.554927117055641  0.9039839237400854  0.1076684207609659  1.0000
  C   C27       1.0  0.054947029870867005  0.5960117663912995  0.1076665507478012  1.0000
  C   C28       1.0  0.4450367912100077  0.09600871341027777  0.8923295499051918  1.0000
  C   C29       1.0  0.0333099306048581  0.40084090468025824  0.8171341648351388  1.0000
  C   C30       1.0  0.46668500514293493  0.9008556801092381  0.1828712535548505  1.0000
  C   C31       1.0  0.9667088969531646  0.599143007821695  0.18286298750829394  1.0000
  C   C32       1.0  0.5332876196388981  0.09913944975676259  0.8171301398504056  1.0000
  O   O1        1.0  0.7942335274523914  0.5813907333541479  0.6281383581742617  1.0000
  O   O2        1.0  0.7057789914545939  0.0813835690857871  0.3718672016078273  1.0000
  O   O3        1.0  0.2058026628399858  0.41861810670476973  0.37186379709254425  1.0000
  O   O4        1.0  0.29422291823935615  0.9186078216070045  0.6281366167456285  1.0000
  O   O5        1.0  0.5338251367113073  0.3730595677974192  0.6102082927205572  1.0000
  O   O6        1.0  0.9661927630797964  0.8730473261098836  0.38978988764537803  1.0000
  O   O7        1.0  0.46619536380626414  0.626965475301823  0.38978770154020037  1.0000
  O   O8        1.0  0.0338143062814424  0.12694032543705444  0.610214141888804  1.0000
  O   O9        1.0  0.7079517806918004  0.8510355601300573  0.5231966401050557  1.0000
  O   O10       1.0  0.792047274144288  0.3510404239497475  0.47680031286319763  1.0000
  O   O11       1.0  0.2920413890376992  0.14896704804930744  0.47680314129852525  1.0000
  O   O12       1.0  0.20795607437607797  0.6489709089458129  0.5231962058788042  1.0000
  O   O13       1.0  0.3068189570404414  0.4833363979506657  0.7308481225990493  1.0000
  O   O14       1.0  0.19319267274954652  0.983369844798517  0.2691537111980153  1.0000
  O   O15       1.0  0.693199753422114  0.5166500073569862  0.2691459589321283  1.0000
  O   O16       1.0  0.806800660886637  0.0166414879889629  0.7308503692980608  1.0000
