data_image0
_chemical_formula_structural       Cd4H28C48N8O16
_chemical_formula_sum              "Cd4 H28 C48 N8 O16"
_cell_length_a       7.415316607685314
_cell_length_b       8.072852767061857
_cell_length_c       18.505183072003945
_cell_angle_alpha    89.99611692886526
_cell_angle_beta     90.00879168744319
_cell_angle_gamma    90.10658410726705

_space_group_name_H-M_alt    "P 1"
_space_group_IT_number       1

loop_
  _space_group_symop_operation_xyz
  'x, y, z'

loop_
  _atom_site_type_symbol
  _atom_site_label
  _atom_site_symmetry_multiplicity
  _atom_site_fract_x
  _atom_site_fract_y
  _atom_site_fract_z
  _atom_site_occupancy
  Cd  Cd1       1.0  0.4387556460279924  0.47301272979796494  0.30268925476067926  1.0000
  Cd  Cd2       1.0  0.06122999592837892  0.5269409369340394  0.8027086311980514  1.0000
  Cd  Cd3       1.0  0.5612538084551204  0.5269811996848478  0.6973151593014892  1.0000
  Cd  Cd4       1.0  0.9387654129720391  0.473067280124681  0.19730226712896134  1.0000
  H   H1        1.0  0.5993136586924594  0.11325991014159344  0.22719886409017687  1.0000
  H   H2        1.0  0.9008093830519714  0.8867516160240072  0.7271488582792502  1.0000
  H   H3        1.0  0.4007160648048683  0.8867343313822005  0.7727952831575993  1.0000
  H   H4        1.0  0.0991824902920371  0.1132418820931349  0.2728382628277829  1.0000
  H   H5        1.0  0.5169063763935426  0.35872364283849817  0.4748324779517932  1.0000
  H   H6        1.0  0.9830856372016897  0.6413054903408693  0.9748062094654703  1.0000
  H   H7        1.0  0.48310957870127424  0.6412898363937743  0.5251589669521196  1.0000
  H   H8        1.0  0.016893327137154298  0.35869852269574654  0.025183072826628506  1.0000
  H   H9        1.0  0.8309207601433642  0.9639782410183032  0.5666150600252282  1.0000
  H   H10       1.0  0.6689543945508662  0.0360128932779062  0.0664896818599701  1.0000
  H   H11       1.0  0.1690642418775212  0.0360130901491047  0.43338178789049675  1.0000
  H   H12       1.0  0.33102805094379323  0.9639810377229878  0.9334947370317227  1.0000
  H   H13       1.0  0.889781293006358  0.8444928001873535  0.4444985511461896  1.0000
  H   H14       1.0  0.6101926890481411  0.15554221492833156  0.9443560839593701  1.0000
  H   H15       1.0  0.11022999581381752  0.15550972835591637  0.555502080242377  1.0000
  H   H16       1.0  0.3897750117776583  0.8444536329286836  0.05562779412121442  1.0000
  H   H17       1.0  0.7469845440214514  0.3617244850221367  0.0670160131368718  1.0000
  H   H18       1.0  0.7530189885887071  0.6382172166849075  0.5669895611344843  1.0000
  H   H19       1.0  0.25293477716998325  0.6383231928174239  0.9329997465079886  1.0000
  H   H20       1.0  0.24710078483995807  0.36174560176996107  0.43303052737395137  1.0000
  H   H21       1.0  0.7652412687951298  0.3904169280684258  0.9332241214524475  1.0000
  H   H22       1.0  0.7347570756526595  0.609584237589587  0.43319517822940434  1.0000
  H   H23       1.0  0.23468327833786162  0.6096515967368532  0.06679001716945272  1.0000
  H   H24       1.0  0.26535733097801284  0.39035526053667274  0.5668200466288058  1.0000
  H   H25       1.0  0.7720899660032431  0.8922801327041372  0.29266041618755884  1.0000
  H   H26       1.0  0.7279852640650829  0.10772957931065724  0.7925382131359983  1.0000
  H   H27       1.0  0.2279211825132705  0.10771992206077391  0.7073364324735609  1.0000
  H   H28       1.0  0.27199980550964403  0.8922629906985904  0.20744782699846814  1.0000
  C   C1        1.0  0.6190310147525651  0.11114508455538902  0.2852550552573164  1.0000
  C   C2        1.0  0.8810371081872576  0.8888422759989042  0.7851898694347172  1.0000
  C   C3        1.0  0.380992602735013  0.8888606005774093  0.7147385514240627  1.0000
  C   C4        1.0  0.11894831109638203  0.11115647924561502  0.21480049382144276  1.0000
  C   C5        1.0  0.6167345046390978  0.17304326274310003  0.40000660991522363  1.0000
  C   C6        1.0  0.8832549312813001  0.8269555042200594  0.8999453650809387  1.0000
  C   C7        1.0  0.38328607073178494  0.8269563598858838  0.5999880774589104  1.0000
  C   C8        1.0  0.11673870873538313  0.17304535419879843  0.10004824074460572  1.0000
  C   C9        1.0  0.5913255081939327  0.24382656972409222  0.46802086577944385  1.0000
  C   C10       1.0  0.9086438122088083  0.7561869692627925  0.967969752749568  1.0000
  C   C11       1.0  0.4086928612440559  0.7561818373089083  0.5319700388055396  1.0000
  C   C12       1.0  0.0913388437966276  0.2438106723640914  0.03202061042785691  1.0000
  C   C13       1.0  0.6679049908470347  0.164809165214912  0.5278690098656755  1.0000
  C   C14       1.0  0.832027674791931  0.8352016742650649  0.027800130753647106  1.0000
  C   C15       1.0  0.3320995631948946  0.8351936729821008  0.4721267578279866  1.0000
  C   C16       1.0  0.16796524568885476  0.1648103810535275  0.9721902327138142  1.0000
  C   C17       1.0  0.7720378576877353  0.020259996561591703  0.5186367703677492  1.0000
  C   C18       1.0  0.7279008000651644  0.9797594404222281  0.01853593076975101  1.0000
  C   C19       1.0  0.22795578376613432  0.9797408607770707  0.48136386051671576  1.0000
  C   C20       1.0  0.2720779545367762  0.0202408614067622  0.9814511899606518  1.0000
  C   C21       1.0  0.8035303332300147  0.9518305319718647  0.45096667975556687  1.0000
  C   C22       1.0  0.6964353379815407  0.048175704940369726  0.9508475675918081  1.0000
  C   C23       1.0  0.19646976195256374  0.04816506848870721  0.5490290878123291  1.0000
  C   C24       1.0  0.30355042946327165  0.951829236702693  0.04913955333798011  1.0000
  C   C25       1.0  0.721166392169522  0.02751891385675261  0.39193891780283974  1.0000
  C   C26       1.0  0.7788107467535073  0.9724666278949029  0.8918359674036512  1.0000
  C   C27       1.0  0.27884192275112  0.9724787905259904  0.6080552288321073  1.0000
  C   C28       1.0  0.22117808491602636  0.0275208073860611  0.10815439595273804  1.0000
  C   C29       1.0  0.6456049076715331  0.2378304483349325  0.6023647814809011  1.0000
  C   C30       1.0  0.8543254580949268  0.7621986758499733  0.10230855993295764  1.0000
  C   C31       1.0  0.35440092236717663  0.7621710916487248  0.39762612274723363  1.0000
  C   C32       1.0  0.1456354407304374  0.2377962425696794  0.8976828834014302  1.0000
  C   C33       1.0  0.4885026678513071  0.48190543762854077  0.15512877255766006  1.0000
  C   C34       1.0  0.011494921987328195  0.5180592831516435  0.6551301783701577  1.0000
  C   C35       1.0  0.5114203928846877  0.5181606746810132  0.8448848256331732  1.0000
  C   C36       1.0  0.9885595775795295  0.48189536742644634  0.3448818024370227  1.0000
  C   C37       1.0  0.49267526532479883  0.4880329130650623  0.07509563687013812  1.0000
  C   C38       1.0  0.007343749825608398  0.5119353284142393  0.575102751900417  1.0000
  C   C39       1.0  0.5072371120147992  0.5120113627220633  0.9249163398530063  1.0000
  C   C40       1.0  0.9927544267341732  0.4880036733245844  0.42491625521795146  1.0000
  C   C41       1.0  0.6399060673192736  0.42324812799076034  0.03737421410529861  1.0000
  C   C42       1.0  0.8601131114894331  0.5767162982790096  0.5373582368622254  1.0000
  C   C43       1.0  0.3600186626751452  0.5767757341074359  0.9626442476455285  1.0000
  C   C44       1.0  0.1400146019543911  0.42324367587657724  0.46265698837155617  1.0000
  C   C45       1.0  0.6487084396514007  0.4367282696849344  0.9626984666302292  1.0000
  C   C46       1.0  0.8512917734051587  0.5632506526311972  0.46268701582174304  1.0000
  C   C47       1.0  0.35121570978415667  0.5633092640884456  0.0373140508201857  1.0000
  C   C48       1.0  0.1488149723804995  0.4366966384312434  0.537333612707066  1.0000
  N   N1        1.0  0.555864612884392  0.2222728858636103  0.3318763775295183  1.0000
  N   N2        1.0  0.9441539743523181  0.7777045227810434  0.8318283639837178  1.0000
  N   N3        1.0  0.44416114043952604  0.7777227779344573  0.6681193907718639  1.0000
  N   N4        1.0  0.055824920995498004  0.2222982524939283  0.16816470103071884  1.0000
  N   N5        1.0  0.7188607456977536  0.9925333988604165  0.3185051432605946  1.0000
  N   N6        1.0  0.7811776476419753  0.007465575704699696  0.8184033222863933  1.0000
  N   N7        1.0  0.281139418586406  0.0074634392787019  0.6814873819741225  1.0000
  N   N8        1.0  0.21880040920044058  0.9925223544073846  0.18158325803783987  1.0000
  O   O1        1.0  0.7228831852297476  0.17642378221687247  0.6562248892734035  1.0000
  O   O2        1.0  0.7770450425525085  0.8235911304800895  0.15615125099294866  1.0000
  O   O3        1.0  0.2771017462523703  0.8235663123521845  0.34376817591658704  1.0000
  O   O4        1.0  0.22293162608102796  0.17644399706769323  0.8438401927827573  1.0000
  O   O5        1.0  0.5429148933742811  0.36879810324671786  0.6039716342076816  1.0000
  O   O6        1.0  0.9570339924815627  0.6312359050478377  0.10394458299290933  1.0000
  O   O7        1.0  0.45710793624969176  0.6312175405256184  0.3960257551728362  1.0000
  O   O8        1.0  0.042912602704014105  0.3687447841927353  0.8960522638273787  1.0000
  O   O9        1.0  0.6202953686362705  0.41766951680169484  0.19012113127629965  1.0000
  O   O10       1.0  0.8797306081428999  0.5823137508800683  0.69010140932123  1.0000
  O   O11       1.0  0.3796675852214833  0.5824096500135171  0.8098924680518922  1.0000
  O   O12       1.0  0.12030818950128014  0.41760192916245137  0.30990138443080895  1.0000
  O   O13       1.0  0.351483842234579  0.5401234203281718  0.18860627246098016  1.0000
  O   O14       1.0  0.1485268920835665  0.45982110409403293  0.6886317517991716  1.0000
  O   O15       1.0  0.6484780661446905  0.45993718803921985  0.8114121903440081  1.0000
  O   O16       1.0  0.8515398713606714  0.5401354621544527  0.31139752181078967  1.0000
