data_image0
_chemical_formula_structural       Zr6H26C57S10Cl4O32
_chemical_formula_sum              "Zr6 H26 C57 S10 Cl4 O32"
_cell_length_a       16.437718412211026
_cell_length_b       16.46676200569863
_cell_length_c       16.46588852271653
_cell_angle_alpha    61.912349425265454
_cell_angle_beta     60.05471295981781
_cell_angle_gamma    60.05332508970537

_space_group_name_H-M_alt    "P 1"
_space_group_IT_number       1

loop_
  _space_group_symop_operation_xyz
  'x, y, z'

loop_
  _atom_site_type_symbol
  _atom_site_label
  _atom_site_symmetry_multiplicity
  _atom_site_fract_x
  _atom_site_fract_y
  _atom_site_fract_z
  _atom_site_occupancy
  Zr  Zr1       1.0  0.8858042203709782  0.9023660110994169  0.6086050260796083  1.0000
  Zr  Zr2       1.0  0.100549370176509  0.11112783535301678  0.40038185757710204  1.0000
  Zr  Zr3       1.0  0.1010097239756151  0.9018446380172449  0.6087256604028041  1.0000
  Zr  Zr4       1.0  0.886400457391204  0.11009057388220378  0.39975535935131035  1.0000
  Zr  Zr5       1.0  0.10345647389329557  0.8967739879050856  0.3954527544843884  1.0000
  Zr  Zr6       1.0  0.884317181760693  0.11545895218234378  0.6138168444183519  1.0000
  H   H1        1.0  0.08229875552027703  0.7561746044585506  0.5789348690058772  1.0000
  H   H2        1.0  0.08137199393771515  0.08065975672926132  0.25463472288343064  1.0000
  H   H3        1.0  0.07629683279854765  0.09263441123712825  0.5906622571478691  1.0000
  H   H4        1.0  0.7379988371279322  0.0925585386145969  0.5902658245537608  1.0000
  H   H5        1.0  0.11762397079268541  0.616250256112977  0.36769824981455196  1.0000
  H   H6        1.0  0.6010917417678031  0.13509906554511983  0.9033689339786832  1.0000
  H   H7        1.0  0.8581438461284491  0.12147997816570226  0.1300873864402304  1.0000
  H   H8        1.0  0.6092155052757062  0.3912591432711568  0.3764272642522214  1.0000
  H   H9        1.0  0.8968277083619327  0.6343507947257836  0.7972503498589416  1.0000
  H   H10       1.0  0.1728014917315973  0.28695586914105325  0.12147938602212345  1.0000
  H   H11       1.0  0.6053662714073341  0.8791779270444098  0.6280360886424745  1.0000
  H   H12       1.0  0.8532594115185714  0.33400287596366257  0.7105155451624581  1.0000
  H   H13       1.0  0.7888720051243463  0.46233578612457676  0.6959257236998011  1.0000
  H   H14       1.0  0.7775187490239759  0.4025579713865074  0.6372519463703268  1.0000
  H   H15       1.0  0.3257178272275567  0.8590626890047942  0.11729657968059816  1.0000
  H   H16       1.0  0.4570503475343415  0.796591283801675  0.06936150881272589  1.0000
  H   H17       1.0  0.3956348047345769  0.7917081578723001  0.19592429917839374  1.0000
  H   H18       1.0  0.19906778878392828  0.8805408559254532  0.8043443184698447  1.0000
  H   H19       1.0  0.20011903131473485  0.8218765103122436  0.9269991917991972  1.0000
  H   H20       1.0  0.13381412461176728  0.7981382535124553  0.8863132570042324  1.0000
  H   H21       1.0  0.33659893336477603  0.6223432074900047  0.7036790431302151  1.0000
  H   H22       1.0  0.4647834362743522  0.6090665148701935  0.6590061952786357  1.0000
  H   H23       1.0  0.3752448019146826  0.7230917019747168  0.6172100155658952  1.0000
  H   H24       1.0  0.32202898414872994  0.20443873591839434  0.3620481027080872  1.0000
  H   H25       1.0  0.45315138061073407  0.1773539842731681  0.29566960631218814  1.0000
  H   H26       1.0  0.38576312714944544  0.11999187844335071  0.29479684714695503  1.0000
  C   C1        1.0  0.9916358194166789  0.7386490018313198  0.49560852761185675  1.0000
  C   C2        1.0  0.272461230599177  0.9982315504885478  0.2371055051027112  1.0000
  C   C3        1.0  0.9869208742491862  0.28178226392765293  0.5060452979378455  1.0000
  C   C4        1.0  0.7234834405494439  0.0078710139055432  0.7800001395701414  1.0000
  C   C5        1.0  0.9978183244959098  0.7353812439536825  0.7633683731316481  1.0000
  C   C6        1.0  0.7244534667349144  0.0020225208506730666  0.5013075386358636  1.0000
  C   C7        1.0  0.9994202138472656  0.2650438384645003  0.23385298224290796  1.0000
  C   C8        1.0  0.2695055621362812  0.003518601552578147  0.5008784533925096  1.0000
  C   C9        1.0  0.2739140974495343  0.7397473285878817  0.49550878714953234  1.0000
  C   C10       1.0  0.9893436931644289  0.0054071374741297635  0.7797660259088415  1.0000
  C   C11       1.0  0.7251967167078985  0.28255636400412254  0.5021376771128273  1.0000
  C   C12       1.0  0.9930859940112596  0.9973955727359755  0.23611951688484117  1.0000
  C   C13       1.0  0.9169225723674046  0.4275238591331033  0.5704863349996288  1.0000
  C   C14       1.0  0.05506354184779389  0.5964653541841826  0.4299640475886832  1.0000
  C   C15       1.0  0.984361592755924  0.37258841619848243  0.5045248968020885  1.0000
  C   C16       1.0  0.9890981379910072  0.6507979394703798  0.4955837755061622  1.0000
  C   C17       1.0  0.029381584248767446  0.5152066211537162  0.4562893080537833  1.0000
  C   C18       1.0  0.9440124670574547  0.508935740465056  0.5416843234670666  1.0000
  C   C19       1.0  0.4186903855421348  0.9283392028736871  0.09724890428338975  1.0000
  C   C20       1.0  0.5826136250465836  0.07123953969677649  0.9249976205513165  1.0000
  C   C21       1.0  0.36300522339383406  0.9964316974120636  0.14990762873610905  1.0000
  C   C22       1.0  0.6370292595105767  0.004699884679475152  0.8715670517102155  1.0000
  C   C23       1.0  0.5029970654298808  0.044192188208214196  0.007393202018206945  1.0000
  C   C24       1.0  0.4983914866315898  0.9570790734456907  0.015708734754355105  1.0000
  C   C25       1.0  0.06236353984662911  0.9374545890124893  0.9143967883439926  1.0000
  C   C26       1.0  0.9222568009224189  0.06270829233635318  0.10165717778156849  1.0000
  C   C27       1.0  0.9910500231418522  0.002928028166834979  0.868934312664237  1.0000
  C   C28       1.0  0.9924401934305958  0.9973565087230373  0.1473170181536429  1.0000
  C   C29       1.0  0.9467154027057347  0.04169815250023154  0.01678126788343078  1.0000
  C   C30       1.0  0.035472721799195035  0.9606390194726872  0.9990731746134854  1.0000
  C   C31       1.0  0.4194887631606717  0.6097544387422291  0.5573076851436056  1.0000
  C   C32       1.0  0.5882246477756679  0.42060758440998575  0.4337800353823907  1.0000
  C   C33       1.0  0.3658572639889355  0.6539515525974054  0.49414413723338396  1.0000
  C   C34       1.0  0.6395006207290875  0.37474044987830274  0.49849261474075474  1.0000
  C   C35       1.0  0.5079534002252185  0.5062779937950384  0.45434288257159483  1.0000
  C   C36       1.0  0.5000346488340026  0.5248689230598133  0.5338342813227326  1.0000
  C   C37       1.0  0.07457007602473453  0.574835189152637  0.8829016129161288  1.0000
  C   C38       1.0  0.9404266713051893  0.594189599874369  0.8454741368043344  1.0000
  C   C39       1.0  0.9282173202691408  0.5095761019712556  0.9178792892802076  1.0000
  C   C40       1.0  0.9829877665827664  0.457689409498251  0.9839743388880465  1.0000
  C   C41       1.0  0.955414085126044  0.3894526627548915  0.07898929713189048  1.0000
  C   C42       1.0  0.11802256960194762  0.3391445992470139  0.08539201752667218  1.0000
  C   C43       1.0  0.1430539357542386  0.40952856891698275  0.9987965952917434  1.0000
  C   C44       1.0  0.07017061389345262  0.4811971387589864  0.9525586644024955  1.0000
  C   C45       1.0  0.00696023037055932  0.6333583980977054  0.8327129479279094  1.0000
  C   C46       1.0  0.020930413574440376  0.3336712846597152  0.13147281866361735  1.0000
  C   C47       1.0  0.41539870931388384  0.0643244461428552  0.4283668483457959  1.0000
  C   C48       1.0  0.5848459060688708  0.9367826468036071  0.5654577688984902  1.0000
  C   C49       1.0  0.36095066087509764  0.0019972686287560086  0.4970947130065325  1.0000
  C   C50       1.0  0.637790991749256  0.999848350166147  0.498641440835712  1.0000
  C   C51       1.0  0.5038818476048657  0.9593091577619222  0.5404774947526291  1.0000
  C   C52       1.0  0.4968728430955592  0.038902786271506944  0.4546699595317635  1.0000
  C   C53       1.0  0.8293267168178529  0.40580664353837653  0.6583349641804688  1.0000
  C   C54       1.0  0.39868324837073027  0.8389793291778531  0.12091358155461748  1.0000
  C   C55       1.0  0.15398868213780753  0.8550786591854592  0.8813805590400106  1.0000
  C   C56       1.0  0.398189815352829  0.6431430138099046  0.6383753012067287  1.0000
  C   C57       1.0  0.39328946018252237  0.14586283662502111  0.34034245330244056  1.0000
  S   S1        1.0  0.07760706178446246  0.4198045072371528  0.4098919187307715  1.0000
  S   S2        1.0  0.8955888392170975  0.6038875011875434  0.589170723129726  1.0000
  S   S3        1.0  0.4075435436785354  0.09238988176081629  0.10112272143786065  1.0000
  S   S4        1.0  0.5924752619489835  0.9089542565647836  0.921290095603659  1.0000
  S   S5        1.0  0.8947198430539273  0.09077806315025343  0.9279633271341792  1.0000
  S   S6        1.0  0.08820439448543747  0.9102353568617261  0.08778614197588294  1.0000
  S   S7        1.0  0.41448155902090617  0.5941971850587962  0.4073224581736311  1.0000
  S   S8        1.0  0.5911209159493467  0.4355652119945006  0.5839168153337156  1.0000
  S   S9        1.0  0.4088915960137381  0.9143503502947469  0.5902581453127526  1.0000
  S   S10       1.0  0.5903619227720184  0.08604527325614716  0.4052488926901674  1.0000
  Cl  Cl1       1.0  0.2676033493196288  0.399797991152397  0.9448503374704628  1.0000
  Cl  Cl2       1.0  0.15456130184610103  0.6194418573670435  0.8741860158416441  1.0000
  Cl  Cl3       1.0  0.8527566597419632  0.46500529893425147  0.9175074906190801  1.0000
  Cl  Cl4       1.0  0.8348402813222932  0.389421837145534  0.13309693091230182  1.0000
  O   O1        1.0  0.9224892182381834  0.7750046174052873  0.5657643548914563  1.0000
  O   O2        1.0  0.23454295901872504  0.0695452846204674  0.27221895324104384  1.0000
  O   O3        1.0  0.05820081212311114  0.24407519883791914  0.4373166305766176  1.0000
  O   O4        1.0  0.7588470730266579  0.939488800539202  0.7420208594995259  1.0000
  O   O5        1.0  0.06303006599591052  0.7719268679798006  0.7353153250096653  1.0000
  O   O6        1.0  0.7586329603038775  0.07050842775620945  0.4347009681037263  1.0000
  O   O7        1.0  0.9263066469132253  0.23579033738617058  0.27152575311055915  1.0000
  O   O8        1.0  0.2331156325867313  0.9374377784952443  0.5708390236458173  1.0000
  O   O9        1.0  0.2381026101641126  0.769838880227951  0.4285454396085697  1.0000
  O   O10       1.0  0.92040172831107  0.07592717798568333  0.7461788722070394  1.0000
  O   O11       1.0  0.7570388576657829  0.24816132964139853  0.5728698372911792  1.0000
  O   O12       1.0  0.06470794456260617  0.9301899896189881  0.2675264535541045  1.0000
  O   O13       1.0  0.05833232151380237  0.9366116502831545  0.7413587372381585  1.0000
  O   O14       1.0  0.7600033658902277  0.24355472063192013  0.4348432089589238  1.0000
  O   O15       1.0  0.9227806730734116  0.06585278983365597  0.2737627456234931  1.0000
  O   O16       1.0  0.23473878149960126  0.7770213387749294  0.5651924921771253  1.0000
  O   O17       1.0  0.9227143779318535  0.7778019095496235  0.7350386876008836  1.0000
  O   O18       1.0  0.2320280111068769  0.07136175572944127  0.4351980869810816  1.0000
  O   O19       1.0  0.061148384921928166  0.23805335169317496  0.2748783768699496  1.0000
  O   O20       1.0  0.7577720792585649  0.9364988280150046  0.5704179545955412  1.0000
  O   O21       1.0  0.7554919398569095  0.07847963217566448  0.7448799512904143  1.0000
  O   O22       1.0  0.06239214570649663  0.7705841638729822  0.4279640780364176  1.0000
  O   O23       1.0  0.2369139416885273  0.9304648117179044  0.270686306019428  1.0000
  O   O24       1.0  0.9195237135959572  0.24588309898561542  0.5758972718076761  1.0000
  O   O25       1.0  0.8105392086216483  0.0682943243423965  0.5659279187574596  1.0000
  O   O26       1.0  0.05256107975126409  0.06794712886063788  0.5665601351143721  1.0000
  O   O27       1.0  0.05561800326499626  0.061382377213156765  0.3257065935134733  1.0000
  O   O28       1.0  0.05565654288854945  0.8272486510509013  0.5595623186326789  1.0000
  O   O29       1.0  0.12833633614715712  0.961190636554406  0.45924458356569886  1.0000
  O   O30       1.0  0.949856972212842  0.9606224140758357  0.4590158336357746  1.0000
  O   O31       1.0  0.9483151406083362  0.13737264424275267  0.46329260769714137  1.0000
  O   O32       1.0  0.9484380074668265  0.9651871686987977  0.6354998834605469  1.0000
