data_image0
_chemical_formula_structural       Cu8H32C48N16
_chemical_formula_sum              "Cu8 H32 C48 N16"
_cell_length_a       8.482783921428021
_cell_length_b       11.369702128003176
_cell_length_c       12.459871974812152
_cell_angle_alpha    90.00007766833544
_cell_angle_beta     100.78013257158219
_cell_angle_gamma    89.99994971459701

_space_group_name_H-M_alt    "P 1"
_space_group_IT_number       1

loop_
  _space_group_symop_operation_xyz
  'x, y, z'

loop_
  _atom_site_type_symbol
  _atom_site_label
  _atom_site_symmetry_multiplicity
  _atom_site_fract_x
  _atom_site_fract_y
  _atom_site_fract_z
  _atom_site_occupancy
  Cu  Cu1       1.0  0.018403471039235297  0.9048992131556662  0.5475502771725473  1.0000
  Cu  Cu2       1.0  0.4815912005813843  0.4049029659957811  0.9524541176194958  1.0000
  Cu  Cu3       1.0  0.9815925397702969  0.09509659931688931  0.4524550934038202  1.0000
  Cu  Cu4       1.0  0.5184024127509588  0.5950990031898017  0.04754934078016497  1.0000
  Cu  Cu5       1.0  0.8625978460372253  0.14937801232441936  0.8157654360822021  1.0000
  Cu  Cu6       1.0  0.6374030671518439  0.649369982414953  0.6842378482453455  1.0000
  Cu  Cu7       1.0  0.1374041675418667  0.8506301135727343  0.18423909807707162  1.0000
  Cu  Cu8       1.0  0.3625953489234917  0.3506223119325824  0.3157646200452006  1.0000
  H   H1        1.0  0.7883726631272054  0.8862007420124485  0.1788346867054428  1.0000
  H   H2        1.0  0.7116328555168252  0.3861956891021592  0.32116825396305865  1.0000
  H   H3        1.0  0.21163055698109187  0.11380210669835121  0.8211659890768884  1.0000
  H   H4        1.0  0.28836556315400225  0.61379924383575  0.6788326095076513  1.0000
  H   H5        1.0  0.5373037138234196  0.9003075146620033  0.039790994157769384  1.0000
  H   H6        1.0  0.9626993983397866  0.4003068940537844  0.4602084456495205  1.0000
  H   H7        1.0  0.4627007102157065  0.0996944545162179  0.9602074280714775  1.0000
  H   H8        1.0  0.037299026819930206  0.5996941955947933  0.5397884057713469  1.0000
  H   H9        1.0  0.8286872760265992  0.8724013445225086  0.7904454628048542  1.0000
  H   H10       1.0  0.6713146628750194  0.3724040704427481  0.7095526134671815  1.0000
  H   H11       1.0  0.171317146715694  0.1275971065342247  0.2095537618330496  1.0000
  H   H12       1.0  0.3286861610583642  0.627595260144794  0.2904453477222404  1.0000
  H   H13       1.0  0.0666595460981938  0.850986025038495  0.9415761384230095  1.0000
  H   H14       1.0  0.43334357919770383  0.350985712623043  0.5584236535726248  1.0000
  H   H15       1.0  0.9333436740115528  0.1490133055502341  0.05842453735730395  1.0000
  H   H16       1.0  0.5666560395083734  0.6490100998450927  0.4415773635780269  1.0000
  H   H17       1.0  0.36741439413169996  0.7992228920357648  0.9121501461071305  1.0000
  H   H18       1.0  0.13258877892363333  0.2992272241464421  0.5878463770326263  1.0000
  H   H19       1.0  0.6325912299448504  0.20077467948956956  0.08784842979904539  1.0000
  H   H20       1.0  0.8674144502719443  0.7007773836212579  0.41214868187599757  1.0000
  H   H21       1.0  0.6200489197549075  0.9920781844364939  0.697032665560222  1.0000
  H   H22       1.0  0.8799469205502177  0.4920817861170122  0.8029647792226839  1.0000
  H   H23       1.0  0.3799447052630924  0.007921146152213501  0.30296357114187333  1.0000
  H   H24       1.0  0.12004670576425981  0.5079219421237013  0.19703065507125217  1.0000
  H   H25       1.0  0.12334415700315302  0.809022595434115  0.765037135817181  1.0000
  H   H26       1.0  0.3766590002035102  0.3090269788105573  0.7349642129972764  1.0000
  H   H27       1.0  0.8766602592491566  0.19097233750350998  0.23496610087207867  1.0000
  H   H28       1.0  0.6233430198684573  0.6909776289615693  0.2650363091066197  1.0000
  H   H29       1.0  0.3630688688070123  0.9948741981313919  0.5600329695817834  1.0000
  H   H30       1.0  0.1369269379451836  0.4948772863683646  0.9399660649439381  1.0000
  H   H31       1.0  0.6369259523517385  0.0051251324588009  0.4399658280317738  1.0000
  H   H32       1.0  0.8630678871062542  0.5051273214031582  0.06003032544061422  1.0000
  C   C1        1.0  0.9351152253247079  0.07324126814695123  0.5978040843836396  1.0000
  C   C2        1.0  0.564888141448435  0.5732608734932682  0.9022050370946102  1.0000
  C   C3        1.0  0.064891570232767  0.9267378332502149  0.40221229822621035  1.0000
  C   C4        1.0  0.4351090706855842  0.4267578067718603  0.0977996847636078  1.0000
  C   C5        1.0  0.8776217578345255  0.7947386363923883  0.5908527029907091  1.0000
  C   C6        1.0  0.6223730473162449  0.2947434481889246  0.9091427575401596  1.0000
  C   C7        1.0  0.12237066585138481  0.2052562965446185  0.4091441824401016  1.0000
  C   C8        1.0  0.37762777661423996  0.7052629186427595  0.09085520365328387  1.0000
  C   C9        1.0  0.7912646661072031  0.8819323153381902  0.0917201421517788  1.0000
  C   C10       1.0  0.7087348558685632  0.3819282721025203  0.4082820252371134  1.0000
  C   C11       1.0  0.2087349525952575  0.11807229243512302  0.9082808750039035  1.0000
  C   C12       1.0  0.2912611640286045  0.6180684198964101  0.5917177284650492  1.0000
  C   C13       1.0  0.6519626449545726  0.891143628028097  0.013472435976964878  1.0000
  C   C14       1.0  0.8480392760073273  0.39114312375723154  0.4865260372570006  1.0000
  C   C15       1.0  0.3480393777154092  0.10885746162077942  0.9865264813035709  1.0000
  C   C16       1.0  0.1519591491531216  0.6088562068303107  0.513470814162865  1.0000
  C   C17       1.0  0.6612900418407293  0.8893975311280542  0.9022054549465536  1.0000
  C   C18       1.0  0.8387130818219788  0.3893982202288626  0.5977935968576773  1.0000
  C   C19       1.0  0.33871438090120176  0.11060179945920375  0.09779376969185449  1.0000
  C   C20       1.0  0.16128774211176727  0.6106002308281617  0.40220436433123297  1.0000
  C   C21       1.0  0.8140205047742698  0.8772986378553611  0.8753217576500276  1.0000
  C   C22       1.0  0.6859802313627127  0.37730122895595747  0.6246753681342128  1.0000
  C   C23       1.0  0.18598152049264627  0.12270157226181772  0.1246755548086611  1.0000
  C   C24       1.0  0.31401819509638074  0.6226972221004772  0.3753206808744736  1.0000
  C   C25       1.0  0.9465024195771433  0.8640450090765697  0.9588197241178518  1.0000
  C   C26       1.0  0.5534995248985763  0.3640466874593002  0.5411791450047971  1.0000
  C   C27       1.0  0.0534996017949183  0.13595520104237832  0.04117999557285399  1.0000
  C   C28       1.0  0.4464988989643075  0.6359508840677962  0.45881850882472713  1.0000
  C   C29       1.0  0.5149997228798071  0.8960054310491543  0.8174319291807777  1.0000
  C   C30       1.0  0.9850033953476965  0.3960087844599515  0.6825671301842674  1.0000
  C   C31       1.0  0.48500469986284134  0.10399214047706098  0.18256729545662856  1.0000
  C   C32       1.0  0.0149974298821647  0.6039949437795898  0.3174300285969949  1.0000
  C   C33       1.0  0.3715595223110313  0.8454852604112161  0.8361328272232598  1.0000
  C   C34       1.0  0.1284448088400794  0.3454905867157549  0.6638663097516257  1.0000
  C   C35       1.0  0.6284472992052769  0.15451055205397074  0.16386750718270088  1.0000
  C   C36       1.0  0.8715560150911299  0.6545140210549008  0.33613165144080875  1.0000
  C   C37       1.0  0.5127466452438227  0.9501730030939938  0.7158750734831897  1.0000
  C   C38       1.0  0.9872516295935724  0.45017738394716383  0.784122630720475  1.0000
  C   C39       1.0  0.4872505785830867  0.049825447963911494  0.2841224266674018  1.0000
  C   C40       1.0  0.012745596827741701  0.5498263442926685  0.21587326461178688  1.0000
  C   C41       1.0  0.23592958142236853  0.8499418275100082  0.7546651247478237  1.0000
  C   C42       1.0  0.26407474346651577  0.34994894094668183  0.7453356221476354  1.0000
  C   C43       1.0  0.7640760361645677  0.15005134636569306  0.2453374632091965  1.0000
  C   C44       1.0  0.7359272753067999  0.6500565463565522  0.2546657023674399  1.0000
  C   C45       1.0  0.37031273528621267  0.9522223010881133  0.6393274320501874  1.0000
  C   C46       1.0  0.1296879079814772  0.45222703660938635  0.8606713659907754  1.0000
  C   C47       1.0  0.629685685980462  0.04777439090964461  0.3606718266001819  1.0000
  C   C48       1.0  0.8703105171771597  0.5477766916307374  0.1393254854316055  1.0000
  N   N1        1.0  0.8978076894072018  0.09815844214956122  0.6818114807044964  1.0000
  N   N2        1.0  0.6021968608144945  0.5981559103648593  0.8181954157131912  1.0000
  N   N3        1.0  0.10219672424528879  0.9018444065639032  0.3181933608106391  1.0000
  N   N4        1.0  0.397800344836419  0.401842540701317  0.18181331818681198  1.0000
  N   N5        1.0  0.7925725011301382  0.7277685978572066  0.6246942797696916  1.0000
  N   N6        1.0  0.707424756568443  0.22777506135025055  0.8753030163301574  1.0000
  N   N7        1.0  0.2074235226633334  0.27222457601788363  0.3753030666984358  1.0000
  N   N8        1.0  0.29257606606375935  0.7722313054820306  0.1246957472739538  1.0000
  N   N9        1.0  0.2334965340307775  0.9026265144046096  0.6575146428658343  1.0000
  N   N10       1.0  0.26650654619881914  0.402632010086819  0.8424868130300068  1.0000
  N   N11       1.0  0.766505480851663  0.09736929806470582  0.3424890888757162  1.0000
  N   N12       1.0  0.7334942712413266  0.5973717181562678  0.15751516021528997  1.0000
  N   N13       1.0  0.9370742608154644  0.8670233249629931  0.06559702797036239  1.0000
  N   N14       1.0  0.5629276786848862  0.3670202983904289  0.434402220079761  1.0000
  N   N15       1.0  0.06292776185271261  0.13298216233847174  0.9344018893126885  1.0000
  N   N16       1.0  0.43707314265337516  0.6329755140762218  0.5655973459289924  1.0000
