data_image0
_chemical_formula_structural       Cd4H56C24O8
_chemical_formula_sum              "Cd4 H56 C24 O8"
_cell_length_a       4.249763652007236
_cell_length_b       13.018540713014541
_cell_length_c       14.804238143008561
_cell_angle_alpha    90.00000395046072
_cell_angle_beta     89.99987646276222
_cell_angle_gamma    90.00017129762887

_space_group_name_H-M_alt    "P 1"
_space_group_IT_number       1

loop_
  _space_group_symop_operation_xyz
  'x, y, z'

loop_
  _atom_site_type_symbol
  _atom_site_label
  _atom_site_symmetry_multiplicity
  _atom_site_fract_x
  _atom_site_fract_y
  _atom_site_fract_z
  _atom_site_occupancy
  Cd  Cd1       1.0  0.0476987973283514  0.7499996135430039  0.3755019372241294  1.0000
  Cd  Cd2       1.0  0.9523035296263487  0.25000009272317664  0.6244972312564983  1.0000
  Cd  Cd3       1.0  0.04769744837091141  0.25000039876580615  0.12449744931331713  1.0000
  Cd  Cd4       1.0  0.9523025255127424  0.7500000756345032  0.8755023946503118  1.0000
  H   H1        1.0  0.8225830484699302  0.8446365508204606  0.18170179078126136  1.0000
  H   H2        1.0  0.1774154387699411  0.34463628937808716  0.8182973831725635  1.0000
  H   H3        1.0  0.8225840878722083  0.1553626817384526  0.3182977902141745  1.0000
  H   H4        1.0  0.1774126665066689  0.6553638905907986  0.6817020482784174  1.0000
  H   H5        1.0  0.1774169254066962  0.15536238730935276  0.8182980531823179  1.0000
  H   H6        1.0  0.8225845351092148  0.6553626487516979  0.18170178530876777  1.0000
  H   H7        1.0  0.1774135329524924  0.8446400970664243  0.6817013782680024  1.0000
  H   H8        1.0  0.8225849543049577  0.3446365838083593  0.31829779568593614  1.0000
  H   H9        1.0  0.45835356137673955  0.9062830684751687  0.20900692435953525  1.0000
  H   H10       1.0  0.5416478433321289  0.4062839285266903  0.7909929286401438  1.0000
  H   H11       1.0  0.45835188779266645  0.09371580848524269  0.2909935582210538  1.0000
  H   H12       1.0  0.5416443021972626  0.5937189114476238  0.7090062767072639  1.0000
  H   H13       1.0  0.5416464124973503  0.09371586965467318  0.7909935950862919  1.0000
  H   H14       1.0  0.4583544836200419  0.5937157777395256  0.20900691532272483  1.0000
  H   H15       1.0  0.5416457330174183  0.9062854340492236  0.7090076367078099  1.0000
  H   H16       1.0  0.4583533186213914  0.4062830992220368  0.2909935672571322  1.0000
  H   H17       1.0  0.576410173407048  0.9067355508319891  0.03997015812380061  1.0000
  H   H18       1.0  0.4235912354439862  0.4067363094920893  0.9600296949020406  1.0000
  H   H19       1.0  0.5764095828584531  0.0932634413875775  0.46002957568843084  1.0000
  H   H20       1.0  0.42359366221398187  0.5932671833616964  0.5399689082470759  1.0000
  H   H21       1.0  0.4235898004695784  0.09326338729782438  0.9600296858397784  1.0000
  H   H22       1.0  0.5764087384361503  0.5932633967729685  0.039970149061559816  1.0000
  H   H23       1.0  0.42359745025888174  0.9067408736924134  0.5399702682731162  1.0000
  H   H24       1.0  0.5764086647608337  0.4067363635806984  0.4600295847514176  1.0000
  H   H25       1.0  0.21498026868798095  0.8436130933992275  0.0678616058136754  1.0000
  H   H26       1.0  0.7850229153260886  0.34361343450080273  0.9321382435617735  1.0000
  H   H27       1.0  0.21498046491741013  0.15638554595678034  0.4321390278447197  1.0000
  H   H28       1.0  0.7850186519088568  0.6563896430802315  0.5678614861886118  1.0000
  H   H29       1.0  0.7850244113336943  0.15638661286816094  0.9321389136307093  1.0000
  H   H30       1.0  0.21497941162257211  0.6563855036301617  0.06786160040107353  1.0000
  H   H31       1.0  0.7850265681808111  0.8436156965822759  0.5678621670812234  1.0000
  H   H32       1.0  0.21497896891331444  0.3436131357246736  0.43213835777581283  1.0000
  H   H33       1.0  0.032557418192979505  0.9455138417764171  0.44376213025085326  1.0000
  H   H34       1.0  0.9674443456824308  0.44551433013904773  0.5562384004993249  1.0000
  H   H35       1.0  0.03255714349298701  0.05448461947992199  0.0562379411677441  1.0000
  H   H36       1.0  0.9674433934508428  0.5544843167301607  0.9437618914907305  1.0000
  H   H37       1.0  0.9674425556836398  0.054485096353395976  0.5562377137127258  1.0000
  H   H38       1.0  0.0325579812601831  0.5544838398566937  0.4437621189457489  1.0000
  H   H39       1.0  0.9674428303846271  0.9455150867851642  0.9437625782780972  1.0000
  H   H40       1.0  0.0325565804293007  0.4455153895348971  0.05623795247286981  1.0000
  H   H41       1.0  0.8107139969060883  0.9416213080217871  0.34198968085210174  1.0000
  H   H42       1.0  0.18928537825893701  0.4416210450181238  0.6580101741914747  1.0000
  H   H43       1.0  0.8107153487524245  0.05837714481430109  0.15801058299339135  1.0000
  H   H44       1.0  0.18928522382974936  0.5583776102701988  0.841989925372417  1.0000
  H   H45       1.0  0.1892859769740483  0.05837839824327768  0.6580101631114985  1.0000
  H   H46       1.0  0.8107145956176822  0.5583778931116896  0.34198966977210443  1.0000
  H   H47       1.0  0.18928697819369947  0.9416217933166847  0.8419899364517038  1.0000
  H   H48       1.0  0.8107123969723135  0.4416213278584919  0.15801059407414192  1.0000
  H   H49       1.0  0.2286181343293805  0.9464625801674058  0.33777552794569493  1.0000
  H   H50       1.0  0.7713836382276896  0.4464621176755371  0.6622250028593017  1.0000
  H   H51       1.0  0.2286170572239925  0.053536840637875095  0.1622250972471662  1.0000
  H   H52       1.0  0.7713834710416878  0.5535363377799883  0.8377747353565043  1.0000
  H   H53       1.0  0.7713841926202605  0.05353712609883128  0.6622249914994144  1.0000
  H   H54       1.0  0.2286163356489297  0.5535368204542762  0.3377748411042774  1.0000
  H   H55       1.0  0.7713829166536217  0.9464628656272109  0.8377754221986823  1.0000
  H   H56       1.0  0.22862120897999466  0.4464633684874002  0.16222578408788024  1.0000
  C   C1        1.0  0.5644510561278013  0.8405391910876643  0.17408310655396525  1.0000
  C   C2        1.0  0.4355520997385511  0.3405384141516023  0.8259167426437275  1.0000
  C   C3        1.0  0.5644497229109859  0.15945978945588732  0.32591731016457004  1.0000
  C   C4        1.0  0.4355447159134301  0.659462017833796  0.6740818530834289  1.0000
  C   C5        1.0  0.4355489177488181  0.159459747042149  0.8259167374096139  1.0000
  C   C6        1.0  0.5644525802786191  0.6594597558452546  0.1740831013183737  1.0000
  C   C7        1.0  0.43554789791118514  0.840542989349025  0.6740825337998473  1.0000
  C   C8        1.0  0.5644505518312146  0.3405384565641612  0.3259166399171677  1.0000
  C   C9        1.0  0.47326988573461654  0.840591375713849  0.07508851008476823  1.0000
  C   C10       1.0  0.526730917538906  0.3405914640532898  0.9249120145989381  1.0000
  C   C11       1.0  0.47326781067753393  0.15940751580919968  0.42491263871860957  1.0000
  C   C12       1.0  0.5267266276671307  0.6594105932220415  0.5750878754908799  1.0000
  C   C13       1.0  0.5267300881490442  0.1594090986864671  0.9249113338788535  1.0000
  C   C14       1.0  0.473271409407225  0.659407474077703  0.0750885048461569  1.0000
  C   C15       1.0  0.5267321632071147  0.8405937267263824  0.5750878807272813  1.0000
  C   C16       1.0  0.4732709931480059  0.34059064931236777  0.4249119684735022  1.0000
  C   C17       1.0  0.0269948736256751  0.9147769042789162  0.3747467592654417  1.0000
  C   C18       1.0  0.9730066088454378  0.4147774037338933  0.6252530942253287  1.0000
  C   C19       1.0  0.026994363487723702  0.08522231968184711  0.1252533156063009  1.0000
  C   C20       1.0  0.9730041017979332  0.5852220167002145  0.8747465188301079  1.0000
  C   C21       1.0  0.9730051002509513  0.08522203385089708  0.6252530846981375  1.0000
  C   C22       1.0  0.026995718106732604  0.5852223025323153  0.3747467497375467  1.0000
  C   C23       1.0  0.9730056103863735  0.9147766184479947  0.8747472038395191  1.0000
  C   C24       1.0  0.026993519003141803  0.4147761532932036  0.1252533251341745  1.0000
  O   O1        1.0  0.44837813709197155  0.7499998027053036  0.21876021105710924  1.0000
  O   O2        1.0  0.5516241898602062  0.24999990356090504  0.7812396329057593  1.0000
  O   O3        1.0  0.44837561430937717  0.25000060078617986  0.2812402777162148  1.0000
  O   O4        1.0  0.5516196534286737  0.7500006417471353  0.7187609172133804  1.0000
  O   O5        1.0  0.40961716696531175  0.750002100980282  0.5305810648908037  1.0000
  O   O6        1.0  0.5903828069228466  0.2499999096905512  0.4694194545551086  1.0000
  O   O7        1.0  0.40961794106238614  0.24999984195937938  0.9694188978979242  1.0000
  O   O8        1.0  0.5903820328142403  0.7499990961704339  0.03058094606565481  1.0000
