data_image0
_chemical_formula_structural       Al2H12C48N12O36
_chemical_formula_sum              "Al2 H12 C48 N12 O36"
_cell_length_a       3.9419421746926377
_cell_length_b       29.12947295373651
_cell_length_c       29.129542273778714
_cell_angle_alpha    119.99824476407899
_cell_angle_beta     89.99855233954145
_cell_angle_gamma    89.9994161295366

_space_group_name_H-M_alt    "P 1"
_space_group_IT_number       1

loop_
  _space_group_symop_operation_xyz
  'x, y, z'

loop_
  _atom_site_type_symbol
  _atom_site_label
  _atom_site_symmetry_multiplicity
  _atom_site_fract_x
  _atom_site_fract_y
  _atom_site_fract_z
  _atom_site_occupancy
  Al  Al1       1.0  4.794258131800011e-06  0.4999984992813039  0.5000028593053187  1.0000
  Al  Al2       1.0  0.9996105417533202  0.1666603954689521  0.8333406277958774  1.0000
  H   H1        1.0  0.45937004589993785  0.16640047274348296  0.6852479736109062  1.0000
  H   H2        1.0  0.5401641010867734  0.31477297110643565  0.8336027388566832  1.0000
  H   H3        1.0  0.5403884966489726  0.3518853351587054  0.4997258331805909  1.0000
  H   H4        1.0  0.45966825758497265  0.5002588012472913  0.6481030837610007  1.0000
  H   H5        1.0  0.45937204304122053  0.018816734621566404  0.8335931011558558  1.0000
  H   H6        1.0  0.5401021122992377  0.01882476239276806  0.6852280631968314  1.0000
  H   H7        1.0  0.5403667699866758  0.6478336217298164  0.6481045508111052  1.0000
  H   H8        1.0  0.45967641097980316  0.6478323019052965  0.4997263128619238  1.0000
  H   H9        1.0  0.45939858948686657  0.31476125276233113  0.9811661219110379  1.0000
  H   H10       1.0  0.5401890261525608  0.16640794157319058  0.9811994778741993  1.0000
  H   H11       1.0  0.5403610292208327  0.5002884796848761  0.35217474080263855  1.0000
  H   H12       1.0  0.45967015700968966  0.35190673183581106  0.35216867248401945  1.0000
  C   C1        1.0  0.500023572468919  0.45923920624028364  0.4184650466747827  1.0000
  C   C2        1.0  0.5000200445605288  0.4592230256409237  0.5407681215374325  1.0000
  C   C3        1.0  0.5000130647383755  0.581537880395416  0.5407702657052978  1.0000
  C   C4        1.0  0.49963334315516056  0.207451098125027  0.7925759275238207  1.0000
  C   C5        1.0  0.4996174945782528  0.0851085537994083  0.7925520399277205  1.0000
  C   C6        1.0  0.4996348877655805  0.20743040795448323  0.9148931238795442  1.0000
  C   C7        1.0  0.49977955928189033  0.23696020854498565  0.763049106017128  1.0000
  C   C8        1.0  0.478237840939272  0.20944934637635265  0.7077514629040068  1.0000
  C   C9        1.0  0.496106125097711  0.2372641253681848  0.6806624318011387  1.0000
  C   C10       1.0  0.4997851868624324  0.29339737445020847  0.7066053429743634  1.0000
  C   C11       1.0  0.503439764255333  0.319347890898662  0.7627349626786355  1.0000
  C   C12       1.0  0.521325335734083  0.2922645105049  0.790558934140016  1.0000
  C   C13       1.0  0.49984252400795265  0.3212659800643819  0.6787238248887348  1.0000
  C   C14       1.0  0.4998032568628473  0.34538740549835006  0.6545887830577399  1.0000
  C   C15       1.0  0.49987581369703094  0.37326315267716825  0.6267179741647979  1.0000
  C   C16       1.0  0.5033522377939263  0.347331771437666  0.5705932141073617  1.0000
  C   C17       1.0  0.5214108770982975  0.37440984468977223  0.5427702531407093  1.0000
  C   C18       1.0  0.5000082816603991  0.4297079380006464  0.5702782627905734  1.0000
  C   C19       1.0  0.47856357541105865  0.45721454507265946  0.6255776266284911  1.0000
  C   C20       1.0  0.49652027313994296  0.4293872930360509  0.6526521779003503  1.0000
  C   C21       1.0  0.4997719994649188  0.026073274644424858  0.7630367788574688  1.0000
  C   C22       1.0  0.47824984754896593  0.9982791548006629  0.7905448784408762  1.0000
  C   C23       1.0  0.49610851874842865  0.9433756599455236  0.7627246779850908  1.0000
  C   C24       1.0  0.4997499915333635  0.9131895176922525  0.7065910633426498  1.0000
  C   C25       1.0  0.5033687640056287  0.9433797740906726  0.6806466765160409  1.0000
  C   C26       1.0  0.5212641085029261  0.998282288191966  0.7077364852874766  1.0000
  C   C27       1.0  0.49982812307812463  0.8574427243304469  0.6787148394283874  1.0000
  C   C28       1.0  0.49980670546374745  0.8091834150704358  0.6545848122719704  1.0000
  C   C29       1.0  0.49988737285671914  0.7534417035861123  0.6267172378752832  1.0000
  C   C30       1.0  0.5033615515895917  0.7232504451425896  0.652652293236109  1.0000
  C   C31       1.0  0.5214180265995765  0.6683531452160238  0.6255783767148202  1.0000
  C   C32       1.0  0.5000107700386707  0.6405608643424969  0.5702799703761415  1.0000
  C   C33       1.0  0.47856852182755455  0.6683520755366246  0.5427698039403666  1.0000
  C   C34       1.0  0.49651453598475115  0.7232517286496217  0.5705936696012088  1.0000
  C   C35       1.0  0.4998034792023063  0.23695463650427223  0.9739289054887266  1.0000
  C   C36       1.0  0.4782636214006075  0.29225916044194367  0.0017109397304153594  1.0000
  C   C37       1.0  0.49611431698401987  0.3193513447055025  0.05661369248829123  1.0000
  C   C38       1.0  0.49978075098876207  0.29341846295021407  0.08681346013720058  1.0000
  C   C39       1.0  0.5034284130227819  0.2372803458425991  0.05663444309099927  1.0000
  C   C40       1.0  0.5213113983176285  0.20946113324689009  0.001732835425464375  1.0000
  C   C41       1.0  0.49983554427683435  0.32130003403358387  0.14256507160278886  1.0000
  C   C42       1.0  0.4997744634620105  0.34542992030825553  0.19081342221374337  1.0000
  C   C43       1.0  0.4998368676293837  0.3733008455162902  0.24656469435979028  1.0000
  C   C44       1.0  0.503315134272242  0.4294229747304357  0.27675348496968877  1.0000
  C   C45       1.0  0.5213966540719069  0.457244818555324  0.3316557169577051  1.0000
  C   C46       1.0  0.4999919675927629  0.42973211712496345  0.35944164751158786  1.0000
  C   C47       1.0  0.4785451524934103  0.37443513604781486  0.331650556954628  1.0000
  C   C48       1.0  0.496483920747771  0.3473613539697951  0.2767491361609373  1.0000
  N   N1        1.0  0.4807758350156278  0.37785570269380736  0.7948258354009283  1.0000
  N   N2        1.0  0.5188653625960882  0.2051739702410061  0.6221602067839457  1.0000
  N   N3        1.0  0.5191574420661952  0.4614515484089169  0.7111395711612262  1.0000
  N   N4        1.0  0.48077704253743997  0.2888428402611182  0.5385303705908129  1.0000
  N   N5        1.0  0.4807237812496723  0.9169659591163889  0.6221387369676279  1.0000
  N   N6        1.0  0.5188491526780368  0.916953742453721  0.7948098666954025  1.0000
  N   N7        1.0  0.5191398622170241  0.7496778739075367  0.5385301191169916  1.0000
  N   N8        1.0  0.4807800984704329  0.7496765811729914  0.711141269063816  1.0000
  N   N9        1.0  0.4808215625147695  0.20520237605136765  0.08306877311177623  1.0000
  N   N10       1.0  0.518859994240927  0.37785551193210404  0.0830156409135937  1.0000
  N   N11       1.0  0.5191321120135017  0.28887434852126137  0.25032705596864696  1.0000
  N   N12       1.0  0.48077418879036316  0.46148719452329345  0.2503276349092686  1.0000
  O   O1        1.0  0.7350798012573493  0.558307063756608  0.55147679126474  1.0000
  O   O2        1.0  0.7351073867740396  0.4931713334028345  0.4416936112876471  1.0000
  O   O3        1.0  0.7351056127242828  0.44851966480627675  0.506833664526404  1.0000
  O   O4        1.0  0.26491461563374225  0.5583105207677761  0.5068369845731624  1.0000
  O   O5        1.0  0.2649205270829285  0.49315862455071613  0.5514752570874251  1.0000
  O   O6        1.0  0.26493214651591773  0.4485295416818502  0.4416954080672611  1.0000
  O   O7        1.0  0.7346112439025135  0.17347993643157628  0.8916435113857946  1.0000
  O   O8        1.0  0.7345927213216541  0.2181464051951209  0.8265202403323002  1.0000
  O   O9        1.0  0.7346210717590936  0.10835601663615793  0.7818547001166183  1.0000
  O   O10       1.0  0.2644911051412819  0.2181306990624774  0.8916675884829958  1.0000
  O   O11       1.0  0.26448580937779553  0.10833235526673243  0.8264808989224691  1.0000
  O   O12       1.0  0.26447482007616685  0.1735238253114773  0.7818730828490886  1.0000
  O   O13       1.0  0.28200643184576535  0.39972124559969296  0.7791233347826889  1.0000
  O   O14       1.0  0.6560123793568876  0.3994557043286519  0.8354440303990885  1.0000
  O   O15       1.0  0.7177788829016903  0.22088014594885413  0.6003131370934299  1.0000
  O   O16       1.0  0.34366075691764314  0.16455341169279336  0.6005466869328586  1.0000
  O   O17       1.0  0.717842348059655  0.4457124862881513  0.732985984747387  1.0000
  O   O18       1.0  0.3440296633886035  0.5020792164514133  0.7327525146912492  1.0000
  O   O19       1.0  0.2821230577646219  0.26698940687674616  0.5542666614880289  1.0000
  O   O20       1.0  0.6559540614987966  0.26723231038433687  0.497906558276526  1.0000
  O   O21       1.0  0.2819850033993347  0.8793948855265652  0.6002722589187073  1.0000
  O   O22       1.0  0.6559610122429474  0.935987047196086  0.6005388082525871  1.0000
  O   O23       1.0  0.7176651136561036  0.8793886559686256  0.7790925939104129  1.0000
  O   O24       1.0  0.34365954406707994  0.9359610233079323  0.8354348185566778  1.0000
  O   O25       1.0  0.7178183141374106  0.7872636530563141  0.5542666203898251  1.0000
  O   O26       1.0  0.3440072342921708  0.7306658286064687  0.49790341995505116  1.0000
  O   O27       1.0  0.282123397558955  0.7872659776650864  0.7329934431836448  1.0000
  O   O28       1.0  0.6559538917392729  0.7306638067287636  0.7327524402842798  1.0000
  O   O29       1.0  0.2821185609218518  0.22091997144897135  0.12064785040869445  1.0000
  O   O30       1.0  0.6560252089295417  0.16457900765649208  0.0640549998678068  1.0000
  O   O31       1.0  0.7177349025062866  0.3997091594769555  0.1205699470636006  1.0000
  O   O32       1.0  0.3436503547216319  0.39946341990123807  0.0640011847478518  1.0000
  O   O33       1.0  0.7178327998608083  0.267030264976448  0.2127420018609314  1.0000
  O   O34       1.0  0.34401951507457806  0.2672573830326854  0.2693406250400301  1.0000
  O   O35       1.0  0.2821425963837995  0.4457514787642012  0.2127370545841671  1.0000
  O   O36       1.0  0.6559764949419175  0.5021064406001159  0.26933625067292155  1.0000
