data_image0
_chemical_formula_structural       Cu8H66C24Br8N6
_chemical_formula_sum              "Cu8 H66 C24 Br8 N6"
_cell_length_a       6.32178205299081
_cell_length_b       13.587130885606356
_cell_length_c       14.273
_cell_angle_alpha    68.69684534162829
_cell_angle_beta     84.19381332573126
_cell_angle_gamma    89.28566111732847

_space_group_name_H-M_alt    "P 1"
_space_group_IT_number       1

loop_
  _space_group_symop_operation_xyz
  'x, y, z'

loop_
  _atom_site_type_symbol
  _atom_site_label
  _atom_site_symmetry_multiplicity
  _atom_site_fract_x
  _atom_site_fract_y
  _atom_site_fract_z
  _atom_site_occupancy
  Cu  Cu1       1.0  0.851754471103  0.7393724869821838  0.586163658554945  1.0000
  Cu  Cu2       1.0  0.1482305849538079  0.2606280687141691  0.4138316342443746  1.0000
  Cu  Cu3       1.0  0.3703514179965097  0.0988305012466881  0.22722387243383935  1.0000
  Cu  Cu4       1.0  0.6296480313134581  0.901171634928481  0.7727702288423047  1.0000
  Cu  Cu5       1.0  0.4571696030968938  0.0075665423258258  0.4103589838547991  1.0000
  Cu  Cu6       1.0  0.5428204793448971  0.9924087257094882  0.5896385237129352  1.0000
  Cu  Cu7       1.0  0.26196974567617565  0.8690697394817946  0.7146237817521952  1.0000
  Cu  Cu8       1.0  0.7379907873810299  0.1309482014815231  0.2854044309296811  1.0000
  H   H1        1.0  0.8831225293158695  0.6855690369295644  0.7654543274665359  1.0000
  H   H2        1.0  0.11686892837280992  0.3144323090061931  0.23454250706345203  1.0000
  H   H3        1.0  0.6300998955595463  0.7031226248860705  0.7453203769738935  1.0000
  H   H4        1.0  0.3698897637689599  0.2968747698526499  0.25467860525925806  1.0000
  H   H5        1.0  0.8611368637136678  0.8537888800609607  0.4072393237820792  1.0000
  H   H6        1.0  0.13887053554344675  0.1462132561142084  0.5927600262666104  1.0000
  H   H7        1.0  0.09893511304566263  0.8385222449494592  0.443825497414089  1.0000
  H   H8        1.0  0.9010751744712665  0.16147435954985667  0.5561791394370134  1.0000
  H   H9        1.0  0.16918044142504843  0.2425410691576673  0.10820798022248113  1.0000
  H   H10       1.0  0.8308081280038024  0.7574658084539436  0.891785669375757  1.0000
  H   H11       1.0  0.42837302973520514  0.2693531020112374  0.08078954442019182  1.0000
  H   H12       1.0  0.5716157897385374  0.7306585170368151  0.919199651680117  1.0000
  H   H13       1.0  0.775606226268188  0.536906828891837  0.9238753060983244  1.0000
  H   H14       1.0  0.22439167472649765  0.4630960975227367  0.07612489686570718  1.0000
  H   H15       1.0  0.6373990466170484  0.42739229085714203  0.9178042812508524  1.0000
  H   H16       1.0  0.36259868768105014  0.5726074745998062  0.08219632175876514  1.0000
  H   H17       1.0  0.5034309148225944  0.5483463345533082  0.897888302932799  1.0000
  H   H18       1.0  0.49656853448737354  0.4516558016218539  0.10211000208467169  1.0000
  H   H19       1.0  0.9966405810619536  0.5279897674187666  0.6736316670957124  1.0000
  H   H20       1.0  0.003363511762863404  0.4720099980381747  0.3263697019406423  1.0000
  H   H21       1.0  0.9162073539840351  0.4128993001254813  0.7816901633516268  1.0000
  H   H22       1.0  0.0837951086081929  0.5870996750920554  0.2183119023428546  1.0000
  H   H23       1.0  0.058750607153427815  0.5180453947160828  0.7954922615628278  1.0000
  H   H24       1.0  0.9412487588082501  0.4819551609802701  0.2045093962834344  1.0000
  H   H25       1.0  0.5211456710302473  0.4394276370317982  0.7419105488463202  1.0000
  H   H26       1.0  0.47885808983237876  0.5605658065098922  0.2580912699053074  1.0000
  H   H27       1.0  0.6086157949644786  0.5518573682403769  0.6326377800057372  1.0000
  H   H28       1.0  0.39138784087570144  0.44813370458308543  0.3673648642477404  1.0000
  H   H29       1.0  0.4084636026833409  0.5651318098058269  0.7237782911899233  1.0000
  H   H30       1.0  0.5915401165051365  0.4348608434964447  0.2762202996112109  1.0000
  H   H31       1.0  0.08278863873441371  0.5918632382398457  0.5212586960457628  1.0000
  H   H32       1.0  0.9171960005809154  0.4081294150624331  0.47873794717929746  1.0000
  H   H33       1.0  0.3061641815594315  0.6763643283122036  0.4572221197031396  1.0000
  H   H34       1.0  0.6938207494749379  0.3236338566659214  0.5427789029629224  1.0000
  H   H35       1.0  0.2058183870105594  0.5880858938724884  0.4047235628935724  1.0000
  H   H36       1.0  0.7941791805909447  0.4119107106268274  0.5952760389145197  1.0000
  H   H37       1.0  0.7218842263122838  0.6310757078742881  0.458124378208062  1.0000
  H   H38       1.0  0.2781089047141165  0.3689272185402857  0.541864828508622  1.0000
  H   H39       1.0  0.8258408492437823  0.6199491370181391  0.34175497543008493  1.0000
  H   H40       1.0  0.17415257350165095  0.380059321072288  0.6582351076098263  1.0000
  H   H41       1.0  0.6913229592962794  0.7359657648968962  0.34165290127356235  1.0000
  H   H42       1.0  0.3086816350493109  0.2640434834329355  0.658338509767475  1.0000
  H   H43       1.0  0.15793216411177724  0.7381926595469394  0.23939896713062594  1.0000
  H   H44       1.0  0.8420756102126675  0.2618165887828923  0.7605986070360516  1.0000
  H   H45       1.0  0.26901256710466015  0.8264521282408808  0.28868365591264233  1.0000
  H   H46       1.0  0.730997637063979  0.1735428957796188  0.711327136261474  1.0000
  H   H47       1.0  0.01729973312598081  0.8521696795151996  0.2405165703450437  1.0000
  H   H48       1.0  0.9827191711244654  0.1478395688146321  0.7594868107313746  1.0000
  H   H49       1.0  0.2229434944513713  0.0179984927428691  0.09246163879054592  1.0000
  H   H50       1.0  0.7770557464878538  0.9819996922352558  0.9075373414397988  1.0000
  H   H51       1.0  0.14800343502339083  0.0633914247825658  0.9669516849929991  1.0000
  H   H52       1.0  0.8519975626018594  0.9366099211531917  0.033047524572133224  1.0000
  H   H53       1.0  0.0006164780370597006  0.1010542349391059  0.06140810517039342  1.0000
  H   H54       1.0  0.9993843097864571  0.8989431597996216  0.9385928306070641  1.0000
  H   H55       1.0  0.5985367066239251  0.0946611981332595  0.0311920780016237  1.0000
  H   H56       1.0  0.40146270101189435  0.905340147802498  0.9688029990653607  1.0000
  H   H57       1.0  0.639469461725753  0.2288296251999213  0.9493560693286583  1.0000
  H   H58       1.0  0.3605299042359178  0.7711709304964245  0.050641384776270205  1.0000
  H   H59       1.0  0.5327167757788942  0.1355608289024985  0.9041840066069826  1.0000
  H   H60       1.0  0.4672763552475062  0.8644420975120752  0.09581290696880981  1.0000
  H   H61       1.0  0.3166454183248888  0.347519632993901  0.9002230930246925  1.0000
  H   H62       1.0  0.683350517613036  0.6524761812660032  0.09978105893519285  1.0000
  H   H63       1.0  0.056032114059320313  0.2918077547724209  0.944856910413016  1.0000
  H   H64       1.0  0.9439717301516026  0.7081872692480786  0.05514575925114694  1.0000
  H   H65       1.0  0.21360590254745662  0.2566128622851878  0.8515020759756597  1.0000
  H   H66       1.0  0.786393671784957  0.7433916446082023  0.14849400229284984  1.0000
  C   C1        1.0  0.7276173779441921  0.5499054769041081  0.7707775771588886  1.0000
  C   C2        1.0  0.2723803563538994  0.4500942885528403  0.22922022335650646  1.0000
  C   C3        1.0  0.6560996894161591  0.5138468527445852  0.8842626224748928  1.0000
  C   C4        1.0  0.3438997182196601  0.4861544931911723  0.11573665833341816  1.0000
  C   C5        1.0  0.9375430000061586  0.4990899220508567  0.7542423666893187  1.0000
  C   C6        1.0  0.062462684239079615  0.5009098434060917  0.2457599819750699  1.0000
  C   C7        1.0  0.5560718018975663  0.5247900880582179  0.7140267162255327  1.0000
  C   C8        1.0  0.4439271889967743  0.4752033554834654  0.2859739150085191  1.0000
  C   C9        1.0  0.16051204010478415  0.6402227290149086  0.446403315965931  1.0000
  C   C10       1.0  0.8394839791814377  0.3597746657238119  0.5535932794238292  1.0000
  C   C11       1.0  0.010982502494265101  0.7247522677059308  0.38854802046373044  1.0000
  C   C12       1.0  0.989016821793257  0.2752474977510104  0.6114462056907115  1.0000
  C   C13       1.0  0.8000022693474378  0.674949009533556  0.38191416834596487  1.0000
  C   C14       1.0  0.19999584001799064  0.3250578680780549  0.6180776525460917  1.0000
  C   C15       1.0  0.1196837659924697  0.7892136766461135  0.2830708829763965  1.0000
  C   C16       1.0  0.8803332148753569  0.2107892497684603  0.7169298663166046  1.0000
  C   C17       1.0  0.3073685271555108  0.18273338008764736  0.00375824504975241  1.0000
  C   C18       1.0  0.692627700501447  0.8172679658481101  0.9962390763742524  1.0000
  C   C19       1.0  0.16071716053782134  0.0854643919099729  0.03294563765698651  1.0000
  C   C20       1.0  0.8392838370874288  0.9145369540257846  0.967054272531705  1.0000
  C   C21       1.0  0.5330633954352707  0.1590175052322564  0.9701477538282149  1.0000
  C   C22       1.0  0.4669342555145307  0.8409806797458684  0.029853399515971595  1.0000
  C   C23       1.0  0.2184071020825016  0.2752648830179751  0.9199942382880906  1.0000
  C   C24       1.0  0.7815922222050206  0.7247348824389661  0.08000208973701477  1.0000
  Br  Br1       1.0  0.08540018229196993  0.0662141599457868  0.3628063249310784  1.0000
  Br  Br2       1.0  0.9146267552539131  0.9337966688628611  0.63719965271266  1.0000
  Br  Br3       1.0  0.6391957513563116  0.9672269567533789  0.25445025708533825  1.0000
  Br  Br4       1.0  0.36080039295235633  0.0327728087035624  0.7455595252736701  1.0000
  Br  Br5       1.0  0.4204377923870127  0.8373550613447307  0.5519673933853115  1.0000
  Br  Br6       1.0  0.5796224162862417  0.1626233676482087  0.4480461968965131  1.0000
  Br  Br7       1.0  0.19833913355792995  0.7045561191710874  0.852068085831924  1.0000
  Br  Br8       1.0  0.8016711539589991  0.2954404853282284  0.14793514977206715  1.0000
  N   N1        1.0  0.7658367270429098  0.6675349834133613  0.728351319959451  1.0000
  N   N2        1.0  0.23415933391746088  0.3324632015647708  0.27164780275725064  1.0000
  N   N3        1.0  0.9621724589446361  0.7969509106839395  0.44614354866288153  1.0000
  N   N4        1.0  0.0378284553323169  0.20304885477300869  0.5538583131074902  1.0000
  N   N5        1.0  0.31397904799678145  0.2110618823640138  0.09574423838020611  1.0000
  N   N6        1.0  0.6860175130533649  0.7889457854870088  0.9042501810819631  1.0000
