data_image0
_chemical_formula_structural       Cd2H16C20Se4N12
_chemical_formula_sum              "Cd2 H16 C20 Se4 N12"
_cell_length_a       5.759600886730907
_cell_length_b       8.661799375069585
_cell_length_c       14.28105187640739
_cell_angle_alpha    77.50839451484681
_cell_angle_beta     90.00176664762763
_cell_angle_gamma    89.99645236933047

_space_group_name_H-M_alt    "P 1"
_space_group_IT_number       1

loop_
  _space_group_symop_operation_xyz
  'x, y, z'

loop_
  _atom_site_type_symbol
  _atom_site_label
  _atom_site_symmetry_multiplicity
  _atom_site_fract_x
  _atom_site_fract_y
  _atom_site_fract_z
  _atom_site_occupancy
  Cd  Cd1       1.0  0.4999986237642489  0.9999994739747609  0.4999970919192479  1.0000
  Cd  Cd2       1.0  0.9999965714803026  0.9999968283105649  0.9999973864101009  1.0000
  H   H1        1.0  0.04863514673537851  0.17640567839271884  0.3767705710248492  1.0000
  H   H2        1.0  0.5486775087119469  0.8236060513329733  0.12321976027153879  1.0000
  H   H3        1.0  0.9513562113568454  0.8236083340736331  0.6232174957660988  1.0000
  H   H4        1.0  0.4513312150094322  0.17639867745756277  0.8767836049053913  1.0000
  H   H5        1.0  0.1222738715964553  0.6630879383316566  0.3079717330285519  1.0000
  H   H6        1.0  0.6224083713791658  0.33692140380176033  0.1920186511026927  1.0000
  H   H7        1.0  0.8777331158961914  0.33692087815579436  0.6920441594087664  1.0000
  H   H8        1.0  0.3775795172885665  0.6630831322032337  0.8079804815488245  1.0000
  H   H9        1.0  0.5324745586150285  0.6374643257268958  0.3720008788191649  1.0000
  H   H10       1.0  0.0325980175084339  0.3625386280838256  0.1279886337401308  1.0000
  H   H11       1.0  0.46754111279244626  0.3625293732257759  0.6280051436831188  1.0000
  H   H12       1.0  0.9673881370437982  0.6374567018259896  0.8720102395914254  1.0000
  H   H13       1.0  0.6773460395925709  0.3600632362384886  0.4435230479612287  1.0000
  H   H14       1.0  0.17740806907188045  0.6399388397254241  0.056473477198999  1.0000
  H   H15       1.0  0.3226574788370726  0.6399245498215081  0.5564733641146162  1.0000
  H   H16       1.0  0.8225885031447362  0.3600553196963928  0.9435254529964042  1.0000
  C   C1        1.0  0.9946794888292203  0.10057260708249055  0.5974560255270449  1.0000
  C   C2        1.0  0.49467367411951807  0.8993946069941643  0.9025401944111949  1.0000
  C   C3        1.0  0.0053292367307165005  0.8994220429789485  0.4025407597415692  1.0000
  C   C4        1.0  0.5052968573879966  0.10059056437042811  0.0974676570081883  1.0000
  C   C5        1.0  0.1560595622516558  0.2798511230466971  0.3767014180871371  1.0000
  C   C6        1.0  0.6561221487140116  0.7201639271340666  0.1232925776775318  1.0000
  C   C7        1.0  0.8439300603459402  0.7201609017205824  0.6232902803779297  1.0000
  C   C8        1.0  0.34387789458625667  0.279837450907408  0.8767102434829326  1.0000
  C   C9        1.0  0.19770058920793324  0.5476331725450762  0.3389139831835379  1.0000
  C   C10       1.0  0.6978202293262186  0.45238490047862007  0.16107942999068575  1.0000
  C   C11       1.0  0.8023098701932696  0.45237457997596653  0.6610913559513778  1.0000
  C   C12       1.0  0.3021763413269483  0.5476168039107704  0.8389219613153218  1.0000
  C   C13       1.0  0.4236023511736989  0.5338055213784259  0.3743831184592281  1.0000
  C   C14       1.0  0.9236980384516613  0.466203939387718  0.1255991611332163  1.0000
  C   C15       1.0  0.5764046369600065  0.466196020395877  0.6256189877014506  1.0000
  C   C16       1.0  0.07628985187254499  0.533794250966878  0.8744024010980667  1.0000
  C   C17       1.0  0.5042987843473696  0.38229646972376946  0.41284135224513113  1.0000
  C   C18       1.0  0.004377522647978101  0.6177106180086797  0.08716027308769009  1.0000
  C   C19       1.0  0.4957082037845595  0.6177023468447372  0.5871524024183048  1.0000
  C   C20       1.0  0.9956207841444424  0.3822912497782199  0.9128404032620665  1.0000
  Se  Se1       1.0  0.2581238113406883  0.06076437308917087  0.6662963883905989  1.0000
  Se  Se2       1.0  0.7580958587969207  0.9392568685631063  0.833698970272181  1.0000
  Se  Se3       1.0  0.741905744672053  0.9392488535660848  0.3337002004310961  1.0000
  Se  Se4       1.0  0.2419024447733449  0.060755483334503396  0.1662912982368567  1.0000
  N   N1        1.0  0.8214415457071951  0.12421324030263745  0.5521232788795203  1.0000
  N   N2        1.0  0.32147094891373484  0.8757331685331098  0.9478743495426514  1.0000
  N   N3        1.0  0.1785446118806675  0.8757685255606804  0.4478741330377076  1.0000
  N   N4        1.0  0.6785169468397853  0.12424380583873781  0.0521339003879859  1.0000
  N   N5        1.0  0.370739464016431  0.2542016214590035  0.4139297105397972  1.0000
  N   N6        1.0  0.870784497961239  0.7458132874499699  0.0860606340091863  1.0000
  N   N7        1.0  0.6292553712315937  0.7457938441368981  0.5860635001361914  1.0000
  N   N8        1.0  0.1292207544004853  0.25418539387955963  0.9139387832517728  1.0000
  N   N9        1.0  0.06236131569136921  0.42105580671688614  0.3404771920667073  1.0000
  N   N10       1.0  0.5624376165047663  0.5789682329334839  0.15951239695965566  1.0000
  N   N11       1.0  0.9376474053620926  0.5789604703743337  0.6595263185428806  1.0000
  N   N12       1.0  0.43756589889057557  0.4210351610773628  0.8404917401534533  1.0000
