data_image0
_chemical_formula_structural       Cd6H128C168N12O28
_chemical_formula_sum              "Cd6 H128 C168 N12 O28"
_cell_length_a       11.648892724433429
_cell_length_b       19.005173389019117
_cell_length_c       21.902311366575827
_cell_angle_alpha    90.00002576329273
_cell_angle_beta     96.75200124621855
_cell_angle_gamma    90.00015543805848

_space_group_name_H-M_alt    "P 1"
_space_group_IT_number       1

loop_
  _space_group_symop_operation_xyz
  'x, y, z'

loop_
  _atom_site_type_symbol
  _atom_site_label
  _atom_site_symmetry_multiplicity
  _atom_site_fract_x
  _atom_site_fract_y
  _atom_site_fract_z
  _atom_site_occupancy
  Cd  Cd1       1.0  0.6423388541164172  0.023618851002027003  0.05150004353361481  1.0000
  Cd  Cd2       1.0  0.3576593630417547  0.023623446744466002  0.4484988690484144  1.0000
  Cd  Cd3       1.0  0.3576701307698116  0.9763730971975164  0.9484987949222868  1.0000
  Cd  Cd4       1.0  0.6423409885516519  0.9763790248988827  0.5515021787805381  1.0000
  Cd  Cd5       1.0  0.9999931334705251  0.4999938789494537  0.9999959337566438  1.0000
  Cd  Cd6       1.0  2.8159632990003797e-06  0.5000013474512957  0.5000002555821013  1.0000
  H   H1        1.0  0.6826164375390745  0.17287426271527556  0.994661790273021  1.0000
  H   H2        1.0  0.3173754325187089  0.1728791030327415  0.5053381201767166  1.0000
  H   H3        1.0  0.3173795936669563  0.8271192639916692  0.005339448862045493  1.0000
  H   H4        1.0  0.6826162690774851  0.8271265256381001  0.494661026833306  1.0000
  H   H5        1.0  0.8179323693385425  0.23966196507333853  0.9363453889371199  1.0000
  H   H6        1.0  0.18205721789718873  0.23966345224233984  0.5636553225881329  1.0000
  H   H7        1.0  0.18205241483419599  0.76033682334878  0.0636528767772617  1.0000
  H   H8        1.0  0.8179327603658421  0.760339019392255  0.436345088332537  1.0000
  H   H9        1.0  0.0019369611538095999  0.04447811330646092  0.9172566697372132  1.0000
  H   H10       1.0  0.9980560331174998  0.044476753416873314  0.5827396031425707  1.0000
  H   H11       1.0  0.9980642270786004  0.95552751537106  0.0827375808528856  1.0000
  H   H12       1.0  0.0019356554910884998  0.9555251920455351  0.41725634705218795  1.0000
  H   H13       1.0  0.8543150112631821  0.9854363109328972  0.9751746988143425  1.0000
  H   H14       1.0  0.14567798152233277  0.9854382451262258  0.5248215131641558  1.0000
  H   H15       1.0  0.1456939680786817  0.0145635298541222  0.024822769581199104  1.0000
  H   H16       1.0  0.8543171722845314  0.0145658050296333  0.47517647608494684  1.0000
  H   H17       1.0  0.074280275951125  0.14485767323435544  0.8741015588682827  1.0000
  H   H18       1.0  0.925708862784731  0.14485568812881408  0.6258958892275999  1.0000
  H   H19       1.0  0.9257010170819766  0.8551463769080317  0.1258882741663996  1.0000
  H   H20       1.0  0.07428630214349141  0.8551467835101576  0.37410484014721135  1.0000
  H   H21       1.0  0.9367681249705482  0.28337593671582084  0.8794830779396889  1.0000
  H   H22       1.0  0.0632216519437634  0.28337304501480537  0.6205149241733565  1.0000
  H   H23       1.0  0.06321059327522248  0.7166296919430695  0.1205111627455793  1.0000
  H   H24       1.0  0.9367743811333539  0.7166278481075495  0.3794867716520116  1.0000
  H   H25       1.0  0.028959588295656098  0.3848870104326068  0.8493550386771885  1.0000
  H   H26       1.0  0.9710323690020883  0.3848866909910029  0.6506394874131588  1.0000
  H   H27       1.0  0.9710113351069509  0.615113356493609  0.15063507082333422  1.0000
  H   H28       1.0  0.028971453343615394  0.6151142021384787  0.34936496953197593  1.0000
  H   H29       1.0  0.16185387837361984  0.4445261292026146  0.784000250692344  1.0000
  H   H30       1.0  0.8381392173397944  0.4445261472499668  0.7159943703791996  1.0000
  H   H31       1.0  0.8381239754267469  0.5554789732830229  0.2159939369170516  1.0000
  H   H32       1.0  0.16186806649707103  0.555477376745273  0.2840112122450407  1.0000
  H   H33       1.0  0.29046682190568873  0.3730951448637967  0.7255416445632932  1.0000
  H   H34       1.0  0.7095268193856726  0.3730965565017712  0.774455262832049  1.0000
  H   H35       1.0  0.7095188285762859  0.6269083791118536  0.2744571309161543  1.0000
  H   H36       1.0  0.2904821970479147  0.6269069674951453  0.22555133931900434  1.0000
  H   H37       1.0  0.1583785949396272  0.1837103039365289  0.7998454342563406  1.0000
  H   H38       1.0  0.8416159200713195  0.18370979389629136  0.7001550997202486  1.0000
  H   H39       1.0  0.8416105040495339  0.816293746214001  0.20015127008750971  1.0000
  H   H40       1.0  0.1583861789533145  0.8162932039221574  0.2998506211373808  1.0000
  H   H41       1.0  0.37143255241723944  0.26427430993462764  0.7012382035211431  1.0000
  H   H42       1.0  0.628564067143131  0.2642750729281643  0.7987638632786584  1.0000
  H   H43       1.0  0.6285582902936184  0.735729740218261  0.2987622604757689  1.0000
  H   H44       1.0  0.3714432296777019  0.7357305557579467  0.20124491616029871  1.0000
  H   H45       1.0  0.24162262469840104  0.1310257549484746  0.734687948226778  1.0000
  H   H46       1.0  0.7583759538291374  0.13102776932217347  0.7653087039209866  1.0000
  H   H47       1.0  0.7583768494716664  0.8689767166933534  0.2653098497125157  1.0000
  H   H48       1.0  0.24162699851713396  0.8689762808413735  0.23469432988643754  1.0000
  H   H49       1.0  0.2855786031745636  0.025349290336237104  0.6856852513506837  1.0000
  H   H50       1.0  0.7144298762049244  0.0253512555842335  0.8143151602658206  1.0000
  H   H51       1.0  0.7144286584075059  0.9746521289675629  0.314314851020292  1.0000
  H   H52       1.0  0.2855739405843352  0.9746522684075248  0.1856879266171134  1.0000
  H   H53       1.0  0.4124986612241557  0.9563416761589992  0.6241396615280692  1.0000
  H   H54       1.0  0.5875227709184117  0.9563434607953599  0.8758696986976062  1.0000
  H   H55       1.0  0.587516389634963  0.043663426359579205  0.3758632019639734  1.0000
  H   H56       1.0  0.4124853736519042  0.04365901085533611  0.1241350236265433  1.0000
  H   H57       1.0  0.6251859454153105  0.12783427931189814  0.606236551855659  1.0000
  H   H58       1.0  0.3748247503231567  0.12783045821701222  0.8937681481106026  1.0000
  H   H59       1.0  0.374807470245642  0.8721755587396774  0.39375904780553833  1.0000
  H   H60       1.0  0.6251851212753435  0.8721693825724233  0.10623622367629079  1.0000
  H   H61       1.0  0.506950773404391  0.20485690774793855  0.6651456014201287  1.0000
  H   H62       1.0  0.49304901613715657  0.2048532541439272  0.8348529824295952  1.0000
  H   H63       1.0  0.4930426422541458  0.7951518779585882  0.3348499982407064  1.0000
  H   H64       1.0  0.5069565425148069  0.7951481651599935  0.16515340741795367  1.0000
  H   H65       1.0  0.055288212183093294  0.6613602023261153  0.9653963546258452  1.0000
  H   H66       1.0  0.9447162807772143  0.6613645185454758  0.5346059060294905  1.0000
  H   H67       1.0  0.944700024190652  0.3386327982008481  0.034600753326131384  1.0000
  H   H68       1.0  0.055290982662647495  0.338638479276007  0.4653946530297617  1.0000
  H   H69       1.0  0.1792226027068011  0.7324404098716286  0.9037581262643499  1.0000
  H   H70       1.0  0.8207874164250837  0.7324440242950419  0.5962476996033175  1.0000
  H   H71       1.0  0.8207708388810103  0.26755574769596546  0.09624386701998588  1.0000
  H   H72       1.0  0.1792241803571172  0.2675573950131919  0.4037558649600896  1.0000
  H   H73       1.0  0.32450612957921976  0.5363723238274006  0.8471900787046921  1.0000
  H   H74       1.0  0.6755012581091647  0.5363751985888003  0.6528150465565048  1.0000
  H   H75       1.0  0.6754994253619983  0.46362804313125155  0.15281539776706413  1.0000
  H   H76       1.0  0.3245059960635075  0.4636293777496832  0.347183229064747  1.0000
  H   H77       1.0  0.19676187143487303  0.47409498056924815  0.9136335940319923  1.0000
  H   H78       1.0  0.803240896816561  0.47409750877069706  0.5863684819652306  1.0000
  H   H79       1.0  0.8032402034711409  0.5259017031774889  0.0863661898831793  1.0000
  H   H80       1.0  0.19676376031156906  0.5259054890478085  0.413628721052973  1.0000
  H   H81       1.0  0.3944646140553231  0.6408276149792869  0.8075470697730226  1.0000
  H   H82       1.0  0.6055501838600748  0.640827235924313  0.6924622069896884  1.0000
  H   H83       1.0  0.6055253623463058  0.3591716996200632  0.19245288445882378  1.0000
  H   H84       1.0  0.3944683340321474  0.3591715525274921  0.3075431522414505  1.0000
  H   H85       1.0  0.28744164830605706  0.7819138560146827  0.8422932313355105  1.0000
  H   H86       1.0  0.7125556203078742  0.7819167946001498  0.6577090930327856  1.0000
  H   H87       1.0  0.7125517784557048  0.21808545858713305  0.15770510844825483  1.0000
  H   H88       1.0  0.28744473684922406  0.21808620321605332  0.3422933248594831  1.0000
  H   H89       1.0  0.5000014508955956  0.6881127083326463  0.750002913400877  1.0000
  H   H90       1.0  0.4999989006869256  0.3118850277580095  0.24999813442641278  1.0000
  H   H91       1.0  0.363273506059798  0.8838950903418167  0.8088431135469563  1.0000
  H   H92       1.0  0.6367198976853456  0.8838958147040191  0.6911562769728975  1.0000
  H   H93       1.0  0.6367121203023487  0.116101593389601  0.1911497249898488  1.0000
  H   H94       1.0  0.3632726572070979  0.11609981668897972  0.3088401829830474  1.0000
  H   H95       1.0  0.4999933866338964  0.9495846716836315  0.7499974509407111  1.0000
  H   H96       1.0  0.49999137157814727  0.05041306439186851  0.2499944211453595  1.0000
  H   H97       1.0  0.12451718070423107  0.2848312052243287  0.9726159392410594  1.0000
  H   H98       1.0  0.8754847329609274  0.28484329573667116  0.5273896572751227  1.0000
  H   H99       1.0  0.8754970075189304  0.715153902737825  0.02738732785597618  1.0000
  H   H100      1.0  0.1245165034773024  0.7151612805987214  0.4726164671950741  1.0000
  H   H101      1.0  0.21187327084805924  0.1639020990180953  0.970945024639768  1.0000
  H   H102      1.0  0.7881332887840526  0.16391141463040532  0.5290644588605034  1.0000
  H   H103      1.0  0.7881487159229648  0.8360866921593983  0.029063287016889205  1.0000
  H   H104      1.0  0.21187140542613034  0.8360910570178249  0.47094187791172  1.0000
  H   H105      1.0  0.5129284983958298  0.238107718269184  0.08440093776433599  1.0000
  H   H106      1.0  0.48706815895197747  0.23810935561635918  0.4156098401805295  1.0000
  H   H107      1.0  0.4870813954490103  0.7618905440040322  0.9156089142745286  1.0000
  H   H108      1.0  0.5129296308271875  0.7618920636816712  0.584398812112056  1.0000
  H   H109      1.0  0.42101496617306117  0.3574477807443799  0.09045319393509743  1.0000
  H   H110      1.0  0.578983074179284  0.35745009373908243  0.4095504139365502  1.0000
  H   H111      1.0  0.5789888524546497  0.6425489030047089  0.909550349633136  1.0000
  H   H112      1.0  0.4210164315115533  0.6425523779046575  0.5904551476938167  1.0000
  H   H113      1.0  0.9245626873425292  0.9193189218029475  0.2041509478899357  1.0000
  H   H114      1.0  0.07543183295717167  0.9193171876733573  0.295840352680699  1.0000
  H   H115      1.0  0.07544195494504888  0.0806809189795317  0.7958426016254733  1.0000
  H   H116      1.0  0.9245719448765326  0.0806784437282175  0.7041531437575373  1.0000
  H   H117      1.0  0.9209011418394224  0.14484137559659166  0.2054874537613642  1.0000
  H   H118      1.0  0.0791019432672471  0.1448370160364476  0.2945090692466508  1.0000
  H   H119      1.0  0.0791147419310363  0.8551584651956009  0.7945076991134528  1.0000
  H   H120      1.0  0.9209113453019594  0.8551565106831803  0.7054854677111564  1.0000
  H   H121      1.0  0.08163472802915808  0.521550721045905  0.1298994767746109  1.0000
  H   H122      1.0  0.9183597142991573  0.5215556823594342  0.3700966740229816  1.0000
  H   H123      1.0  0.9183534916281174  0.47842965133953913  0.870093520983538  1.0000
  H   H124      1.0  0.08164926315349419  0.4784288994243581  0.6299003376794943  1.0000
  H   H125      1.0  0.17914583548658664  0.5045633117880542  0.0875942472553604  1.0000
  H   H126      1.0  0.8208476736359527  0.5045702366062346  0.412404121969594  1.0000
  H   H127      1.0  0.8208449756696652  0.49542600553233024  0.9123984530452987  1.0000
  H   H128      1.0  0.1791569946038578  0.49542697331521174  0.5875958211728403  1.0000
  C   C1        1.0  0.7546017576076592  0.14680510035989167  0.9762200182603422  1.0000
  C   C2        1.0  0.2453873975039613  0.14680877790419802  0.5237792579567255  1.0000
  C   C3        1.0  0.2453908102651425  0.8531910572064091  0.0237796385097511  1.0000
  C   C4        1.0  0.7546025714918867  0.8531952722473974  0.47621886952594394  1.0000
  C   C5        1.0  0.8306872480918487  0.1833588868026652  0.9437602446218135  1.0000
  C   C6        1.0  0.16930381123719937  0.18335877071150725  0.5562409901806475  1.0000
  C   C7        1.0  0.169299268682451  0.81664200631122  0.056239040620113215  1.0000
  C   C8        1.0  0.8306870314700274  0.8166437009238123  0.4437594738157102  1.0000
  C   C9        1.0  0.9223194245227757  0.14724668476069516  0.9209390359019523  1.0000
  C   C10       1.0  0.0776688533308629  0.1472464277848786  0.5790565340466358  1.0000
  C   C11       1.0  0.07766620741515598  0.8527557868687907  0.0790551727000164  1.0000
  C   C12       1.0  0.9223202475112513  0.8527570961932371  0.4209406269847307  1.0000
  C   C13       1.0  0.931507837299847  0.07455543538548429  0.933309720221331  1.0000
  C   C14       1.0  0.0684835755209932  0.07455305249064993  0.5666887510790772  1.0000
  C   C15       1.0  0.0684890361258041  0.9254491409437904  0.0666860917407845  1.0000
  C   C16       1.0  0.9315063934700231  0.9254488929708559  0.4333093764028462  1.0000
  C   C17       1.0  0.8507447512126161  0.04181902668286601  0.9656713182741541  1.0000
  C   C18       1.0  0.1492482327039042  0.0418204452303144  0.5343254094259109  1.0000
  C   C19       1.0  0.14926163479786672  0.9581813402744929  0.034325990894501494  1.0000
  C   C20       1.0  0.8507434596190533  0.9581841310949246  0.4656714541451876  1.0000
  C   C21       1.0  0.0055088889018506  0.18008434305200893  0.8852679194104028  1.0000
  C   C22       1.0  0.9944812835184678  0.18008194039816064  0.6147314332638629  1.0000
  C   C23       1.0  0.9944732926771491  0.8199186547475252  0.11472790363983168  1.0000
  C   C24       1.0  0.005510421777593399  0.8199200050652565  0.38526862712028986  1.0000
  C   C25       1.0  0.0034787643229279006  0.24781589457060701  0.8662721756998409  1.0000
  C   C26       1.0  0.9965108473823461  0.2478135044895852  0.6337253447394318  1.0000
  C   C27       1.0  0.9964982139046299  0.7521876293960619  0.1337192187070428  1.0000
  C   C28       1.0  0.0034843231047361  0.7521873886321516  0.3662767546979495  1.0000
  C   C29       1.0  0.0843553023473049  0.2802876373135987  0.8286477678087182  1.0000
  C   C30       1.0  0.9156318559341441  0.2802898669117226  0.6713473327828012  1.0000
  C   C31       1.0  0.9156208077204793  0.7197127296169867  0.17134266014594599  1.0000
  C   C32       1.0  0.08436936566473459  0.7197120785601712  0.3286551381847929  1.0000
  C   C33       1.0  0.0864260724097505  0.35425907557411307  0.8237293280056122  1.0000
  C   C34       1.0  0.9135674842059412  0.3542602517833516  0.6762680228422013  1.0000
  C   C35       1.0  0.913556099898443  0.6457439222248598  0.17626421160607464  1.0000
  C   C36       1.0  0.08643287480653329  0.6457432722054861  0.3237348517379672  1.0000
  C   C37       1.0  0.1610398695960811  0.38722962500376923  0.787461769231271  1.0000
  C   C38       1.0  0.8389486425401316  0.3872291165467773  0.712533002889991  1.0000
  C   C39       1.0  0.8389388393716215  0.6127728466194285  0.212530188014334  1.0000
  C   C40       1.0  0.1610577768501216  0.6127733551026894  0.2874725266581919  1.0000
  C   C41       1.0  0.23391046431792964  0.3472795027129507  0.7550538786348824  1.0000
  C   C42       1.0  0.7660813276353193  0.3472794153074403  0.7449424477814902  1.0000
  C   C43       1.0  0.7660751787461918  0.652723495089731  0.2449430700935338  1.0000
  C   C44       1.0  0.23392595434376054  0.6527225301701237  0.2550626781544878  1.0000
  C   C45       1.0  0.23358769520866218  0.2731570541102286  0.7588258914333323  1.0000
  C   C46       1.0  0.7664063514257861  0.2731564392410776  0.7411709988155479  1.0000
  C   C47       1.0  0.7663979385870616  0.726846996036933  0.24116877385691277  1.0000
  C   C48       1.0  0.23360007167399735  0.7268465585811301  0.25883544410823595  1.0000
  C   C49       1.0  0.1590409307498462  0.24087789571607499  0.7962773529439104  1.0000
  C   C50       1.0  0.8409555609343683  0.24087791248035728  0.7037196738513316  1.0000
  C   C51       1.0  0.8409472945194663  0.7591240497430791  0.20371701488495117  1.0000
  C   C52       1.0  0.15905171733516713  0.7591235068244587  0.2962845387090383  1.0000
  C   C53       1.0  0.30921911126721097  0.2329017533005811  0.7233421843763921  1.0000
  C   C54       1.0  0.6907773549054639  0.2329036610855369  0.7766575769413465  1.0000
  C   C55       1.0  0.6907751855072775  0.7671001921649108  0.2766575785471233  1.0000
  C   C56       1.0  0.3092247404108477  0.7670993367326845  0.22334723054085967  1.0000
  C   C57       1.0  0.3068094008379915  0.16238989587799324  0.7150210878263366  1.0000
  C   C58       1.0  0.6931893273314528  0.1623912855209397  0.7849769564223337  1.0000
  C   C59       1.0  0.6931900751874379  0.8376131019364764  0.2849771668008501  1.0000
  C   C60       1.0  0.30681103538692867  0.837611186123077  0.2150268315328816  1.0000
  C   C61       1.0  0.3828988840303466  0.12216406126562163  0.6801823367655473  1.0000
  C   C62       1.0  0.6171013900880027  0.1221637631090502  0.8198162420569659  1.0000
  C   C63       1.0  0.6170988705245577  0.8778394627203524  0.3198176384612879  1.0000
  C   C64       1.0  0.38290068111935227  0.8778371300176318  0.18018262848426053  1.0000
  C   C65       1.0  0.35972745108848153  0.05045724803887452  0.6685812261855375  1.0000
  C   C66       1.0  0.6402828836452628  0.05045909862744941  0.8314220493506638  1.0000
  C   C67       1.0  0.6402789460530228  0.9495457497817626  0.3314188231103046  1.0000
  C   C68       1.0  0.35972266202634967  0.9495417945031621  0.1685811436827223  1.0000
  C   C69       1.0  0.43040704139795577  0.011549471272353203  0.6344243659406814  1.0000
  C   C70       1.0  0.5696057134921374  0.011549642702426905  0.8655804115466097  1.0000
  C   C71       1.0  0.5695967624109598  0.9884535265460956  0.36557552412808997  1.0000
  C   C72       1.0  0.43040155735712193  0.9884501980843726  0.1344219742623736  1.0000
  C   C73       1.0  0.5479458213342524  0.10763445648335329  0.6239936132852151  1.0000
  C   C74       1.0  0.45206218457428793  0.10763285954706701  0.8760099998859444  1.0000
  C   C75       1.0  0.4520553817350787  0.8923727507126317  0.3760042908071171  1.0000
  C   C76       1.0  0.5479416322113481  0.8923690859271289  0.12399308699643542  1.0000
  C   C77       1.0  0.4810988112094349  0.15027963957146545  0.6570165244671458  1.0000
  C   C78       1.0  0.5189050591113329  0.15027813746898033  0.8429845698516587  1.0000
  C   C79       1.0  0.5188997892528704  0.8497259891042079  0.3429789369590139  1.0000
  C   C80       1.0  0.4810996239750764  0.8497248603510958  0.1570190267944866  1.0000
  C   C81       1.0  0.11686131137461327  0.6361344838264603  0.9384412137606049  1.0000
  C   C82       1.0  0.8831422049650823  0.6361376586663141  0.5615618894692247  1.0000
  C   C83       1.0  0.8831321190858075  0.36386062139541764  0.06155803939710581  1.0000
  C   C84       1.0  0.1168633295851791  0.36386481298118417  0.43843856343845283  1.0000
  C   C85       1.0  0.18569621903976946  0.6752107347232653  0.9034985756188619  1.0000
  C   C86       1.0  0.8143048816217586  0.6752138123573489  0.5965039391530526  1.0000
  C   C87       1.0  0.8142972206950887  0.3247859490167357  0.09650296097795061  1.0000
  C   C88       1.0  0.18570151366920123  0.32479076398073664  0.4034956534556358  1.0000
  C   C89       1.0  0.2626668123931779  0.6404939270631119  0.8683445564162042  1.0000
  C   C90       1.0  0.737338458424581  0.6404974202820812  0.6316600260914029  1.0000
  C   C91       1.0  0.7373335466120422  0.3595064398905948  0.1316583181628488  1.0000
  C   C92       1.0  0.26266966760893945  0.35950715605758193  0.3683401293563762  1.0000
  C   C93       1.0  0.26573843539843267  0.5664304126824007  0.8724688010264431  1.0000
  C   C94       1.0  0.7342690959373639  0.5664349511563886  0.627537715418768  1.0000
  C   C95       1.0  0.7342619180394577  0.43356784958088923  0.1275327034887468  1.0000
  C   C96       1.0  0.2657399019557971  0.4335690990119332  0.3724643198553608  1.0000
  C   C97       1.0  0.1949185153520716  0.5313393912356119  0.909141883141828  1.0000
  C   C98       1.0  0.8050845158692324  0.5313419246710821  0.5908602330781463  1.0000
  C   C99       1.0  0.8050827006710222  0.4686567663382064  0.0908592177606025  1.0000
  C   C100      1.0  0.19491927681469423  0.4686610731466914  0.4091369168643624  1.0000
  C   C101      1.0  0.3375620633060236  0.6759643217900404  0.8296639363456464  1.0000
  C   C102      1.0  0.6624477075075602  0.6759666572277255  0.6703445899649481  1.0000
  C   C103      1.0  0.6624305175519607  0.3240344666396524  0.1703389172393486  1.0000
  C   C104      1.0  0.3375673489019633  0.32403318356597316  0.3296596435883785  1.0000
  C   C105      1.0  0.34347428691040693  0.7462094083025549  0.8200540105741538  1.0000
  C   C106      1.0  0.656528011763356  0.7462112124150337  0.6799504339110243  1.0000
  C   C107      1.0  0.656520006152128  0.25379095864515483  0.179944838973384  1.0000
  C   C108      1.0  0.3434749387227071  0.253790206885796  0.3200521432077679  1.0000
  C   C109      1.0  0.5000015714972718  0.7454623561196101  0.750000193422963  1.0000
  C   C110      1.0  0.5000005071194876  0.2545353799723955  0.2500005038680015  1.0000
  C   C111      1.0  0.4227833772041194  0.7815993027708289  0.7833442186930243  1.0000
  C   C112      1.0  0.5772164832909112  0.781599414648099  0.7166582646803334  1.0000
  C   C113      1.0  0.5772161043680909  0.2183968548011919  0.21665540599489216  1.0000
  C   C114      1.0  0.42278040680528756  0.2183977952668883  0.28334165746858997  1.0000
  C   C115      1.0  0.4233281582214516  0.8559122267784713  0.7827416757327583  1.0000
  C   C116      1.0  0.5766642488194265  0.8559112856922441  0.7172567286732559  1.0000
  C   C117      1.0  0.5766600559059611  0.1440823522647108  0.2172499519672542  1.0000
  C   C118      1.0  0.42332571830533533  0.1440853980439414  0.282740942119112  1.0000
  C   C119      1.0  0.49999498934000286  0.8922271313099659  0.7499989070041053  1.0000
  C   C120      1.0  0.4999871810971044  0.10776850007359683  0.2499941759172799  1.0000
  C   C121      1.0  0.2109773253716938  0.3981722940009008  0.03513096528320861  1.0000
  C   C122      1.0  0.7890174405903068  0.3981807699858281  0.4648715455274798  1.0000
  C   C123      1.0  0.7890299232094903  0.6018196541967387  0.9648659402704709  1.0000
  C   C124      1.0  0.21097775030465724  0.6018253848623659  0.5351355774765665  1.0000
  C   C125      1.0  0.26744666295853387  0.3276083955534759  0.0319211542678346  1.0000
  C   C126      1.0  0.7325555588403603  0.32761520094662444  0.46808178464180367  1.0000
  C   C127      1.0  0.732566646005253  0.6723846049948677  0.9680784062546054  1.0000
  C   C128      1.0  0.2674448131548743  0.672389901560564  0.5319242867528899  1.0000
  C   C129      1.0  0.2087920915850248  0.2735348833038317  0.9976535471747852  1.0000
  C   C130      1.0  0.7912089020208198  0.2735410340384804  0.5023510749508446  1.0000
  C   C131      1.0  0.7912212266447439  0.7264560125549907  0.002348296785463319  1.0000
  C   C132      1.0  0.20878973736923703  0.7264603852593725  0.49765397691574975  1.0000
  C   C133      1.0  0.25744239513105066  0.20692621765885386  0.9962693570299095  1.0000
  C   C134      1.0  0.742554838418698  0.20693228839051162  0.5037359193658091  1.0000
  C   C135      1.0  0.7425700790551488  0.7930667828905559  0.00373745742020051  1.0000
  C   C136      1.0  0.2574412094965551  0.7930707094228282  0.496269429961977  1.0000
  C   C137      1.0  0.3674538892003198  0.1945404991337938  0.027626893969568304  1.0000
  C   C138      1.0  0.6325460146677031  0.19454556226021683  0.4723813255405247  1.0000
  C   C139      1.0  0.6325637697981108  0.8054530275923997  0.9723797822471667  1.0000
  C   C140      1.0  0.36745176955017905  0.8054563832099931  0.5276259566891213  1.0000
  C   C141      1.0  0.42742042268510255  0.2489536358039787  0.06066281559100161  1.0000
  C   C142      1.0  0.5725814526167169  0.24895805731094364  0.43934372155275986  1.0000
  C   C143      1.0  0.5725937711259305  0.7510425217814645  0.939341821573052  1.0000
  C   C144      1.0  0.4274215052884144  0.7510444143353754  0.5606606823172343  1.0000
  C   C145      1.0  0.37696121281884126  0.31491563432879843  0.0637316462470636  1.0000
  C   C146      1.0  0.6230349125364113  0.31492013801377544  0.4362741090273374  1.0000
  C   C147      1.0  0.623042620638543  0.6850794709036238  0.9362755508223017  1.0000
  C   C148      1.0  0.37696200724089823  0.6850833859732648  0.5637331201271678  1.0000
  C   C149      1.0  0.42094465344490567  0.1232162792584646  0.02579888110996359  1.0000
  C   C150      1.0  0.57905924128697  0.12322178074928301  0.4742086402873866  1.0000
  C   C151      1.0  0.5790773166543629  0.876779352160796  0.9742053203597011  1.0000
  C   C152      1.0  0.4209402607015774  0.8767833217568398  0.5257960079684807  1.0000
  C   C153      1.0  0.8214990778522803  0.030306149045131306  0.1461126098458436  1.0000
  C   C154      1.0  0.17849743741041374  0.0303025092585116  0.3538852879053138  1.0000
  C   C155      1.0  0.17850731557847865  0.9696957964302373  0.8538865260742057  1.0000
  C   C156      1.0  0.8215089485879827  0.9696925959736337  0.6461120212614944  1.0000
  C   C157      1.0  0.9139641548074591  0.03194263521962171  0.1996346715205988  1.0000
  C   C158      1.0  0.0860366846394811  0.031942499377528605  0.3003621226969955  1.0000
  C   C159      1.0  0.08604481896707478  0.9680551008769811  0.8003614268110795  1.0000
  C   C160      1.0  0.9139696995083708  0.9680541843720647  0.6996347297826588  1.0000
  C   C161      1.0  0.9579704645962007  0.9683440268353537  0.22480844825054186  1.0000
  C   C162      1.0  0.04203034871938629  0.9683453843381927  0.2751873684878703  1.0000
  C   C163      1.0  0.042036778433363495  0.0316526569146376  0.7751870872416688  1.0000
  C   C164      1.0  0.9579768998738769  0.0316518255846532  0.7248095370676637  1.0000
  C   C165      1.0  0.9565961207853844  0.09575109225936983  0.2252475721424148  1.0000
  C   C166      1.0  0.043407605112960795  0.09574876862332361  0.2747494261364523  1.0000
  C   C167      1.0  0.0434137304161197  0.9042482223563154  0.7747517760794764  1.0000
  C   C168      1.0  0.9566039545702693  0.904245810439896  0.7252450046703416  1.0000
  N   N1        1.0  0.7634070442605887  0.077027267488134  0.9868189584347461  1.0000
  N   N2        1.0  0.23658524993472693  0.07703039912451001  0.5131809377432575  1.0000
  N   N3        1.0  0.23659589323425215  0.9229688900866936  0.013180421868220498  1.0000
  N   N4        1.0  0.7634081805462356  0.9229736510302262  0.4868183154175938  1.0000
  N   N5        1.0  0.5231166410265117  0.0392983029922789  0.6121391374701872  1.0000
  N   N6        1.0  0.47690057653861817  0.03929938384460031  0.8878691217075527  1.0000
  N   N7        1.0  0.4768862983442474  0.9607073256880481  0.3878606995238201  1.0000
  N   N8        1.0  0.5231084269158258  0.9607041401515278  0.11213428362952269  1.0000
  N   N9        1.0  0.12043383362129838  0.5652190597765596  0.9414123175230033  1.0000
  N   N10       1.0  0.8795667561960484  0.5652217010769577  0.5585887499000393  1.0000
  N   N11       1.0  0.8795595820058109  0.4347760454444227  0.058583282133021386  1.0000
  N   N12       1.0  0.12043618131450268  0.43478129674064553  0.4414106304053291  1.0000
  O   O1        1.0  0.1155934529005975  0.5406113403054463  0.0949107019990763  1.0000
  O   O2        1.0  0.8843993536649746  0.5406173146127102  0.4050867261035549  1.0000
  O   O3        1.0  0.884388719364082  0.4593727152827611  0.9050828376059528  1.0000
  O   O4        1.0  0.1156104863934218  0.45937410741448287  0.5949098819893024  1.0000
  O   O5        1.0  0.25740248208481376  0.44309379453330433  0.0731229932456472  1.0000
  O   O6        1.0  0.7425907594891399  0.44309954425784087  0.4268789862890543  1.0000
  O   O7        1.0  0.7426047424091704  0.5569055200781677  0.9268679753703921  1.0000
  O   O8        1.0  0.25739925586440643  0.5569060844141235  0.5731305583869215  1.0000
  O   O9        1.0  0.11754604654110777  0.4066285685933907  0.9984509887505765  1.0000
  O   O10       1.0  0.8824546754970441  0.40663960579525604  0.5015491069421714  1.0000
  O   O11       1.0  0.8824603375777399  0.5933554870156926  0.0015458637246367958  1.0000
  O   O12       1.0  0.1175448301998401  0.5933654967110868  0.49845645468911937  1.0000
  O   O13       1.0  0.35379918648726527  0.07170656100630173  0.010907479249169709  1.0000
  O   O14       1.0  0.6462044586387561  0.07171165488089311  0.48909680914079695  1.0000
  O   O15       1.0  0.6462253787939288  0.9282869657251707  0.9890973381345419  1.0000
  O   O16       1.0  0.3537933051833376  0.9282902905880808  0.5109054495240315  1.0000
  O   O17       1.0  0.5301132318395573  0.11989464610321222  0.040080351369994105  1.0000
  O   O18       1.0  0.4698871880007828  0.11989943347492735  0.45992649870269275  1.0000
  O   O19       1.0  0.46990440862086297  0.8801004591394275  0.959921757970193  1.0000
  O   O20       1.0  0.5301079973304824  0.880106195200405  0.5400792542380373  1.0000
  O   O21       1.0  0.8032952366428958  0.9721033751624333  0.11712356523325701  1.0000
  O   O22       1.0  0.1966986913566089  0.9720997796103605  0.38287502635336074  1.0000
  O   O23       1.0  0.19671287084536707  0.027899622658537706  0.8828720233368655  1.0000
  O   O24       1.0  0.8033111431453432  0.0278942732790952  0.6171202116772889  1.0000
  O   O25       1.0  0.763999772467585  0.08623350144822692  0.13213628942450836  1.0000
  O   O26       1.0  0.23599785303048287  0.0862283852629844  0.36785896057288175  1.0000
  O   O27       1.0  0.23600661540189088  0.9137689701993279  0.8678614764325943  1.0000
  O   O28       1.0  0.7640042125962553  0.9137646152755394  0.6321385399024422  1.0000
