data_image0
_chemical_formula_structural       Ag4H48C64N8O8
_chemical_formula_sum              "Ag4 H48 C64 N8 O8"
_cell_length_a       7.012197908
_cell_length_b       9.87435172616923
_cell_length_c       19.0455
_cell_angle_alpha    90.0
_cell_angle_beta     90.0
_cell_angle_gamma    106.22950436564538

_space_group_name_H-M_alt    "P 1"
_space_group_IT_number       1

loop_
  _space_group_symop_operation_xyz
  'x, y, z'

loop_
  _atom_site_type_symbol
  _atom_site_label
  _atom_site_symmetry_multiplicity
  _atom_site_fract_x
  _atom_site_fract_y
  _atom_site_fract_z
  _atom_site_occupancy
  Ag  Ag1       1.0  0.5172406110491465  0.6677528730987703  0.2791163266913443  1.0000
  Ag  Ag2       1.0  0.48275874642989447  0.8322453738425466  0.7791163266913443  1.0000
  Ag  Ag3       1.0  0.482760443758842  0.3322494740517286  0.7208841983670666  1.0000
  Ag  Ag4       1.0  0.5172420740130406  0.1677527542804071  0.22088472342547763  1.0000
  H   H1        1.0  0.3133928726429502  0.4250448754254492  0.19240923052689854  1.0000
  H   H2        1.0  0.6865981292033256  0.0749425863102786  0.6924129059357826  1.0000
  H   H3        1.0  0.6866059794701729  0.5749627455094881  0.8075918195899305  1.0000
  H   H4        1.0  0.31339348524335975  0.9250502680282439  0.3075902444146905  1.0000
  H   H5        1.0  0.10176085504995311  0.1783129802295491  0.1978152319445527  1.0000
  H   H6        1.0  0.8982340099426269  0.3216734267492853  0.697811031477251  1.0000
  H   H7        1.0  0.8982495865020966  0.8216914764347223  0.8021842429970365  1.0000
  H   H8        1.0  0.10174274777948972  0.6783215371030096  0.3021847680554473  1.0000
  H   H9        1.0  0.974869433072776  0.0747126493089851  0.3161844005145582  1.0000
  H   H10       1.0  0.0251215687734998  0.4252748124267356  0.8161812501640784  1.0000
  H   H11       1.0  0.025136676602862486  0.9252844240570824  0.6838134992517908  1.0000
  H   H12       1.0  0.9748592864599744  0.5747233156962182  0.18381402431020183  1.0000
  H   H13       1.0  0.052861663858486514  0.22820509048188603  0.4209703079467602  1.0000
  H   H14       1.0  0.9471322437778087  0.2717897545520458  0.9209697828883492  1.0000
  H   H15       1.0  0.9471340480995565  0.7717909281272952  0.5790286419364179  1.0000
  H   H16       1.0  0.0528716632029642  0.7282125925984531  0.07902706676117793  1.0000
  H   H17       1.0  0.3597196439828778  0.6154116173556403  0.4094263736840703  1.0000
  H   H18       1.0  0.6402719872035476  0.8845887390994491  0.9094310992097903  1.0000
  H   H19       1.0  0.6402789201479493  0.3845844012535409  0.5905736263159298  1.0000
  H   H20       1.0  0.35971931936476415  0.1154178270785948  0.09057205114068981  1.0000
  H   H21       1.0  0.1471099034812511  0.361071760736337  0.5024378462103911  1.0000
  H   H22       1.0  0.8528905387263279  0.1389251938113674  0.0024383712688021  1.0000
  H   H23       1.0  0.8528783165492302  0.638930586414169  0.4975611036727869  1.0000
  H   H24       1.0  0.1471215096599181  0.8610760985822452  0.997561628731198  1.0000
  H   H25       1.0  0.4258342002003559  0.7601094956076437  0.4993520779186653  1.0000
  H   H26       1.0  0.5741741289098814  0.7398898060905595  0.9993547032107345  1.0000
  H   H27       1.0  0.5741594898106257  0.23988863251531  0.5006484471397457  1.0000
  H   H28       1.0  0.4258377387285535  0.260114650573712  0.0006489721981566  1.0000
  H   H29       1.0  0.49887814270086756  0.8939549802529072  0.6103483762568587  1.0000
  H   H30       1.0  0.5011253122895312  0.6060464309590685  0.1103525767241607  1.0000
  H   H31       1.0  0.5011245189413174  0.1060442026269328  0.3896516237431413  1.0000
  H   H32       1.0  0.49886861208650407  0.3939559161914303  0.8896505736263194  1.0000
  H   H33       1.0  0.2266724663333832  0.5440087951569623  0.7302680423197077  1.0000
  H   H34       1.0  0.7733224857559264  0.9559999993532245  0.23027224278700942  1.0000
  H   H35       1.0  0.7733291843352748  0.45599144247976403  0.2697319576802926  1.0000
  H   H36       1.0  0.2266684593167696  0.0440128953661443  0.7697298574466418  1.0000
  H   H37       1.0  0.14557288850040354  0.3903180596893705  0.6236286786905012  1.0000
  H   H38       1.0  0.8544239249259178  0.1096841686427652  0.12362972880733031  1.0000
  H   H39       1.0  0.8544248990219432  0.6096832327042421  0.3763718463679098  1.0000
  H   H40       1.0  0.1455745120743472  0.8903223975352859  0.8763697461342589  1.0000
  H   H41       1.0  0.09134438704116826  0.8639893371031704  0.4022845291538673  1.0000
  H   H42       1.0  0.9086571731327382  0.6360036360537152  0.9022840040954563  1.0000
  H   H43       1.0  0.9086626799907551  0.1359992982077998  0.5977165209629547  1.0000
  H   H44       1.0  0.09135427939283862  0.3639997658536771  0.0977165209629547  1.0000
  H   H45       1.0  0.3423936689235632  0.9751691510112082  0.4921041715890908  1.0000
  H   H46       1.0  0.6576164477686889  0.5248238221456774  0.9921041715890909  1.0000
  H   H47       1.0  0.6576174956197178  0.024822648570427902  0.5078974035861492  1.0000
  H   H48       1.0  0.3423911416105838  0.475180634518594  0.007895828410909201  1.0000
  C   C1        1.0  0.2513498399953278  0.3795521561473336  0.24238008978498732  1.0000
  C   C2        1.0  0.7486425879373328  0.1204353055883871  0.7423779895513364  1.0000
  C   C3        1.0  0.7486485433876879  0.6204470267325064  0.7576220104486637  1.0000
  C   C4        1.0  0.25134884576154093  0.8795607130207871  0.2576199102150127  1.0000
  C   C5        1.0  0.13583098274637712  0.2399624654973707  0.24575411514531  1.0000
  C   C6        1.0  0.8641768977715146  0.260020777210805  0.74575253997007  1.0000
  C   C7        1.0  0.8641745310685851  0.7600367173824624  0.7542448347378681  1.0000
  C   C8        1.0  0.13582980776478593  0.7399741866414901  0.254243784621039  1.0000
  C   C9        1.0  0.06431595996979671  0.1840160507156696  0.311039353128038  1.0000
  C   C10       1.0  0.9356815764477562  0.3159735205338308  0.811039878186449  1.0000
  C   C11       1.0  0.9356891387323075  0.8159820774072841  0.6889559213462491  1.0000
  C   C12       1.0  0.06430664358272509  0.6840288266166752  0.1889553962878381  1.0000
  C   C13       1.0  0.10977859041602762  0.26989119215607366  0.3698548213488735  1.0000
  C   C14       1.0  0.8902163281938018  0.2301025981209648  0.8698511459399825  1.0000
  C   C15       1.0  0.8902226451397723  0.7301079907237665  0.6301462287679485  1.0000
  C   C16       1.0  0.10977801129509865  0.7699008037864205  0.1301462287679485  1.0000
  C   C17       1.0  0.2261106807475954  0.4106811961430452  0.36338347641174823  1.0000
  C   C18       1.0  0.7738758620916997  0.0893094298633414  0.8633882019374682  1.0000
  C   C19       1.0  0.7738801570906093  0.5893169319799085  0.636614423354601  1.0000
  C   C20       1.0  0.22612026497920826  0.9106876435027261  0.13661389829618292  1.0000
  C   C21       1.0  0.2764605070925228  0.5069921022199679  0.4227618072510566  1.0000
  C   C22       1.0  0.7235357638486875  0.9930019256938037  0.9227665327767697  1.0000
  C   C23       1.0  0.7235348433699044  0.49301024493053097  0.5772376676905324  1.0000
  C   C24       1.0  0.2764622044214704  0.0069962024291499  0.0772360925152924  1.0000
  C   C25       1.0  0.22816953158161377  0.47018214163276184  0.4902811687800295  1.0000
  C   C26       1.0  0.7718305491303497  0.029821141456260105  0.9902853692473316  1.0000
  C   C27       1.0  0.7718158362760832  0.529820205517737  0.5097193562783886  1.0000
  C   C28       1.0  0.22817377296328087  0.970182260451125  0.0097135806358466  1.0000
  C   C29       1.0  0.27642782037377606  0.5614323241675336  0.5514977291223674  1.0000
  C   C30       1.0  0.7235723673309876  0.9385680322875558  0.051500354414429204  1.0000
  C   C31       1.0  0.7235648586636785  0.43856685871230644  0.44850332099446183  1.0000
  C   C32       1.0  0.2764280916163315  0.0614364243767227  0.9485017458192218  1.0000
  C   C33       1.0  0.3780654379226505  0.7060268362446536  0.5490430810427682  1.0000
  C   C34       1.0  0.6219392624063361  0.7939777392379881  0.0490467564516521  1.0000
  C   C35       1.0  0.6219376388323923  0.2939734013920727  0.45095639389882086  1.0000
  C   C36       1.0  0.3780583443682063  0.2060267174262904  0.95095744401565  1.0000
  C   C37       1.0  0.42124005367755063  0.7816676716138887  0.6112772045890082  1.0000
  C   C38       1.0  0.5787656576249631  0.7183358491118598  0.1112835052899612  1.0000
  C   C39       1.0  0.5787617777389116  0.2183294017521789  0.38872227035257373  1.0000
  C   C40       1.0  0.42123360960101763  0.2816728265799568  0.8887206951773408  1.0000
  C   C41       1.0  0.2684811369181901  0.5862992725272065  0.6777973799585199  1.0000
  C   C42       1.0  0.7315127505803504  0.9137031934416626  0.1778015804258217  1.0000
  C   C43       1.0  0.7315182574383599  0.4136988555957474  0.3222020949830693  1.0000
  C   C44       1.0  0.2684761189280422  0.08630442749327472  0.8222010448662405  1.0000
  C   C45       1.0  0.22082218165709835  0.5025072759379299  0.6182636318290378  1.0000
  C   C46       1.0  0.779173131927827  0.9974951900309321  0.1182657320626888  1.0000
  C   C47       1.0  0.7791678259553835  0.49748874267125137  0.3817368932293732  1.0000
  C   C48       1.0  0.2208206117004039  0.0025103213902256  0.8817342679373112  1.0000
  C   C49       1.0  0.7064194760014146  0.8691449887651217  0.39343466960699663  1.0000
  C   C50       1.0  0.29358618168385686  0.6308511486624226  0.8934320443149276  1.0000
  C   C51       1.0  0.2935904968205278  0.1308510298440595  0.6065653303930035  1.0000
  C   C52       1.0  0.7064258667023893  0.3691501437311899  0.10656585545142151  1.0000
  C   C53       1.0  0.8576051510323027  0.9366346629143224  0.4487690005513087  1.0000
  C   C54       1.0  0.1423943335773075  0.5633530364581247  0.9487684754928978  1.0000
  C   C55       1.0  0.1424000748003706  0.0633529176397616  0.5512320495655133  1.0000
  C   C56       1.0  0.8576093390384117  0.436645091664829  0.0512304743902732  1.0000
  C   C57       1.0  0.05172149146131489  0.9235335276252385  0.44536294662781023  1.0000
  C   C58       1.0  0.9482866032838758  0.5764615550454195  0.9453608463941592  1.0000
  C   C59       1.0  0.9482849797099391  0.0764572171995042  0.5546386285474227  1.0000
  C   C60       1.0  0.0517252643545589  0.423542901618859  0.054639153605840804  1.0000
  C   C61       1.0  0.19256367294281068  0.9862978909222521  0.49581843480087434  1.0000
  C   C62       1.0  0.8074334282241225  0.5136982465052924  0.9958179097424562  1.0000
  C   C63       1.0  0.8074416065071048  0.013697072930043002  0.5041841904911949  1.0000
  C   C64       1.0  0.19255883570047422  0.4862998816176614  0.0041826153159548  1.0000
  N   N1        1.0  0.2968573454872612  0.4632186366670936  0.299234989892625  1.0000
  N   N2        1.0  0.7031394143218181  0.0367762083668381  0.799238140243105  1.0000
  N   N3        1.0  0.7031422832343424  0.5367837104834052  0.7007634349321352  1.0000
  N   N4        1.0  0.296861406121117  0.9632219197561156  0.200761859756895  1.0000
  N   N5        1.0  0.3689775451952855  0.7239176225560158  0.6751720878947793  1.0000
  N   N6        1.0  0.631013670878275  0.7760816791421875  0.17517208789477937  1.0000
  N   N7        1.0  0.6310236903605073  0.2760815603238242  0.32482843716363163  1.0000
  N   N8        1.0  0.3689739532915298  0.223922777522084  0.8248284371636316  1.0000
  O   O1        1.0  0.7747926787611022  0.8181569861075602  0.34012548896064493  1.0000
  O   O2        1.0  0.22520787043927737  0.6818370418062116  0.840124438843823  1.0000
  O   O3        1.0  0.22521586797444834  0.18183903250162103  0.6598760862145882  1.0000
  O   O4        1.0  0.7747909280566034  0.3181631958305147  0.1598750360977661  1.0000
  O   O5        1.0  0.5263714959987098  0.8655134608043795  0.40249297734372663  1.0000
  O   O6        1.0  0.4736399196493651  0.6344900599213689  0.9024919272269046  1.0000
  O   O7        1.0  0.4736435853081248  0.1344846673185742  0.5975080727730956  1.0000
  O   O8        1.0  0.526370702650496  0.3655112324722438  0.09750859783150641  1.0000
