data_image0
_chemical_formula_structural       Cu2H20C12N4O10
_chemical_formula_sum              "Cu2 H20 C12 N4 O10"
_cell_length_a       7.620302697753294
_cell_length_b       7.0583565150551575
_cell_length_c       9.361545540538787
_cell_angle_alpha    112.33824466853233
_cell_angle_beta     114.36784766000189
_cell_angle_gamma    89.6110471375697

_space_group_name_H-M_alt    "P 1"
_space_group_IT_number       1

loop_
  _space_group_symop_operation_xyz
  'x, y, z'

loop_
  _atom_site_type_symbol
  _atom_site_label
  _atom_site_symmetry_multiplicity
  _atom_site_fract_x
  _atom_site_fract_y
  _atom_site_fract_z
  _atom_site_occupancy
  Cu  Cu1       1.0  0.8157179205192121  0.8146882173095805  0.6299465316748111  1.0000
  Cu  Cu2       1.0  0.18527211745309555  0.1844588001798613  0.36975619665094667  1.0000
  H   H1        1.0  0.3927889631718529  0.4483647618504349  0.7862511140563128  1.0000
  H   H2        1.0  0.6091181388273839  0.6611484544725954  0.2137863647528633  1.0000
  H   H3        1.0  0.4405351295386808  0.727405553245312  0.8845553732308103  1.0000
  H   H4        1.0  0.5569786381227928  0.8415098712857302  0.11519468793802898  1.0000
  H   H5        1.0  0.6184077052899823  0.471334218284774  0.45829562173225463  1.0000
  H   H6        1.0  0.3826098932059451  0.0137969800452851  0.5436282040089819  1.0000
  H   H7        1.0  0.16219683173660826  0.012543152766092192  0.5413423819206286  1.0000
  H   H8        1.0  0.8368205377789266  0.4695877955233386  0.4565257991231845  1.0000
  H   H9        1.0  0.882129273517684  0.9686522494619824  0.9996604737793077  1.0000
  H   H10       1.0  0.11889304041621784  0.9677062930995961  0.00035145258496550955  1.0000
  H   H11       1.0  0.6466571186512267  0.13059386790133942  0.8442217737580716  1.0000
  H   H12       1.0  0.35386395734026627  0.2845502199359657  0.1561721543609949  1.0000
  H   H13       1.0  0.8024611272715986  0.286258804679882  0.15506069213940762  1.0000
  H   H14       1.0  0.19783362904044566  0.12889802302118622  0.8449468944985339  1.0000
  H   H15       1.0  0.7047262716961386  0.2546272518437505  0.7304235915139116  1.0000
  H   H16       1.0  0.2945450887314677  0.523174257022525  0.26984725827926326  1.0000
  H   H17       1.0  0.9751368924368291  0.5242071307162632  0.2693881907767874  1.0000
  H   H18       1.0  0.0242373631938051  0.2534641463386862  0.7308150274418849  1.0000
  H   H19       1.0  0.9413255833471152  0.5691175206496197  0.8851059324012663  1.0000
  H   H20       1.0  0.05686733174737672  0.6842236984052832  0.11505338384387899  1.0000
  C   C1        1.0  0.4998748840523603  0.5900181889776235  0.6669962012325497  1.0000
  C   C2        1.0  0.5014591469941934  0.9225827825575835  0.33435741185823514  1.0000
  C   C3        1.0  0.8361314555231303  0.922469386545835  0.33243569558113967  1.0000
  C   C4        1.0  0.16357253626658522  0.589096262604187  0.6657822023432871  1.0000
  C   C5        1.0  0.37995819119993957  0.5902040680312837  0.7626399256938325  1.0000
  C   C6        1.0  0.6200572272936001  0.8265595711568  0.23715030570704707  1.0000
  C   C7        1.0  0.00040115253678150195  0.05597022656169061  3.353983571230787e-05  1.0000
  C   C8        1.0  0.7629292089996582  0.22348243516702843  0.8460547173369545  1.0000
  C   C9        1.0  0.23692415925486185  0.3763266351776196  0.15417228035111208  1.0000
  C   C10       1.0  0.9171742488650947  0.377385990479425  0.1536250916397036  1.0000
  C   C11       1.0  0.08265801817918828  0.22239134004454536  0.846567403142039  1.0000
  C   C12       1.0  0.9993533516890023  0.5362658864683426  0.00010603030931121949  1.0000
  N   N1        1.0  0.9205818466753753  0.0957044989270344  0.8411536808442575  1.0000
  N   N2        1.0  0.07988284246420818  0.2546534124961184  0.15897542236029946  1.0000
  N   N3        1.0  0.8401019991480893  0.41876038334932997  0.9998639804282304  1.0000
  N   N4        1.0  0.15926939835252094  0.41771146863956693  0.00038564434945708174  1.0000
  O   O1        1.0  0.6396112989834533  0.7421407742148177  0.7413062972669876  1.0000
  O   O2        1.0  0.35885960866245625  0.999268657694472  0.26021670602531793  1.0000
  O   O3        1.0  0.9004129756124186  0.002033039815501099  0.25847309314460887  1.0000
  O   O4        1.0  0.0961880844226854  0.7413235065910797  0.7398397999997428  1.0000
  O   O5        1.0  0.45863673043055536  0.437868608120624  0.5220326904357433  1.0000
  O   O6        1.0  0.5457253650147393  0.9176577702313652  0.4803386891933599  1.0000
  O   O7        1.0  0.940866113556126  0.9142812478277947  0.47661382875921277  1.0000
  O   O8        1.0  0.06107229031431424  0.43757860221571604  0.520810216222003  1.0000
  O   O9        1.0  0.7148889618803976  0.5347512794784635  0.4329330378474835  1.0000
  O   O10       1.0  0.28428476247962914  0.1020068449373994  0.5668113233996903  1.0000
