data_image0
_chemical_formula_structural       Ag8H24C16N16O20
_chemical_formula_sum              "Ag8 H24 C16 N16 O20"
_cell_length_a       6.960234681960317
_cell_length_b       11.265448381251266
_cell_length_c       11.915319242012938
_cell_angle_alpha    89.99983792170674
_cell_angle_beta     90.00000026419102
_cell_angle_gamma    103.94648649254361

_space_group_name_H-M_alt    "P 1"
_space_group_IT_number       1

loop_
  _space_group_symop_operation_xyz
  'x, y, z'

loop_
  _atom_site_type_symbol
  _atom_site_label
  _atom_site_symmetry_multiplicity
  _atom_site_fract_x
  _atom_site_fract_y
  _atom_site_fract_z
  _atom_site_occupancy
  Ag  Ag1       1.0  0.41190024975959727  0.7205407670305206  0.09216947262103764  1.0000
  Ag  Ag2       1.0  0.0881033864980196  0.7794604045661657  0.5921702571312439  1.0000
  Ag  Ag3       1.0  0.5880926133609492  0.2794564204387058  0.9078301237005209  1.0000
  Ag  Ag4       1.0  0.9118986868741461  0.22054234546375537  0.40783269620607143  1.0000
  Ag  Ag5       1.0  0.07948591091576421  0.7186284666899782  0.23222782081859353  1.0000
  Ag  Ag6       1.0  0.42051076283068783  0.7813694512806892  0.7322286168675092  1.0000
  Ag  Ag7       1.0  0.9205116125106798  0.2813696805995746  0.7677717755017994  1.0000
  Ag  Ag8       1.0  0.5794828766823058  0.2186259222752795  0.26777265796795297  1.0000
  H   H1        1.0  0.7156180623001093  0.6119745595906992  0.0365454332210362  1.0000
  H   H2        1.0  0.7843820266241437  0.8880269155367275  0.536546777678929  1.0000
  H   H3        1.0  0.28437835171370557  0.3880244870992939  0.9634558416096086  1.0000
  H   H4        1.0  0.2156186043198431  0.11197581939159558  0.4634544971469057  1.0000
  H   H5        1.0  0.5657443598529  0.5230819233774682  0.11810106307633113  1.0000
  H   H6        1.0  0.9342559492755383  0.9769202044077615  0.6181013390419353  1.0000
  H   H7        1.0  0.43424994569583214  0.4769152791933635  0.8819002117567154  1.0000
  H   H8        1.0  0.06574712315313751  0.023085289151204298  0.3818974180130895  1.0000
  H   H9        1.0  0.1624216656901751  0.3716953346134133  0.5278569565231166  1.0000
  H   H10       1.0  0.33758232864907  0.128308259882516  0.027860610204257303  1.0000
  H   H11       1.0  0.8375880632056011  0.6283047625226885  0.47214431830645526  1.0000
  H   H12       1.0  0.6624216305270068  0.8716917768310138  0.9721440216481912  1.0000
  H   H13       1.0  0.3546652524880258  0.3912982166981464  0.6294169501491214  1.0000
  H   H14       1.0  0.1453408201897801  0.10870325291595859  0.12941812865493324  1.0000
  H   H15       1.0  0.6453411481733369  0.6087045786473624  0.370584324676777  1.0000
  H   H16       1.0  0.8546605871478051  0.8912976681017926  0.8705831461733384  1.0000
  H   H17       1.0  0.47051459913791405  0.596145414478073  0.5618498796215619  1.0000
  H   H18       1.0  0.029488302667495143  0.9038576683785421  0.061849427045487515  1.0000
  H   H19       1.0  0.5294874742377331  0.4038573355599412  0.4381480381813462  1.0000
  H   H20       1.0  0.970508111348643  0.09614137831683682  0.938148490762217  1.0000
  H   H21       1.0  0.25559703381641435  0.5818559233448538  0.47688280347644973  1.0000
  H   H22       1.0  0.2444045174890093  0.9181476408752617  0.9768807086991915  1.0000
  H   H23       1.0  0.744404816895738  0.41814226925220044  0.5231201498669337  1.0000
  H   H24       1.0  0.7555957804382628  0.08185417954832272  0.023118887616384108  1.0000
  C   C1        1.0  0.9799181505636201  0.5840923932888771  0.8015321143172829  1.0000
  C   C2        1.0  0.5200837906324053  0.9159064322375554  0.30153330768924047  1.0000
  C   C3        1.0  0.020081148311781826  0.4159066836164557  0.1984649642347165  1.0000
  C   C4        1.0  0.47991517522280003  0.0840917301549524  0.6984671278869073  1.0000
  C   C5        1.0  0.10030077911459051  0.5481924373919681  0.7107078845540897  1.0000
  C   C6        1.0  0.3996995856532309  0.9518037659731462  0.21070732280023216  1.0000
  C   C7        1.0  0.8996947481489243  0.4518120661367251  0.28929171175779805  1.0000
  C   C8        1.0  0.6003009329915089  0.04819076860361092  0.7892897557578495  1.0000
  C   C9        1.0  0.23530934534365855  0.4305678895255698  0.5970442834344001  1.0000
  C   C10       1.0  0.2646902260041983  0.06943543752228008  0.09704473323208872  1.0000
  C   C11       1.0  0.7646945034768821  0.5694357901187814  0.40295699139025504  1.0000
  C   C12       1.0  0.7353082964741162  0.9305654532855313  0.9029573808518878  1.0000
  C   C13       1.0  0.3090718452977868  0.5656365759444598  0.5607253135243796  1.0000
  C   C14       1.0  0.1909278401872926  0.9343655658082498  0.060723948520156106  1.0000
  C   C15       1.0  0.6909274535764566  0.43436250095817286  0.4392734435390936  1.0000
  C   C16       1.0  0.8090703492754798  0.06563441049751619  0.9392748085420879  1.0000
  N   N1        1.0  0.7827762864095789  0.5816117358034488  0.7790333449645318  1.0000
  N   N2        1.0  0.7172284604082506  0.9183908350912943  0.27903622009770157  1.0000
  N   N3        1.0  0.21722367849982052  0.4183891701126968  0.22096625135225179  1.0000
  N   N4        1.0  0.28277438935635507  0.0816101010253689  0.7209684117535178  1.0000
  N   N5        1.0  0.06747699795256075  0.6204867952629841  0.9037953542617034  1.0000
  N   N6        1.0  0.4325265402567099  0.8795142903017991  0.40379582592800045  1.0000
  N   N7        1.0  0.9325240763694752  0.3795132112527285  0.09620256354484273  1.0000
  N   N8        1.0  0.5674716492048972  0.12048568600127399  0.5962046096457101  1.0000
  N   N9        1.0  0.09244457591682925  0.4333826937851554  0.687908815955723  1.0000
  N   N10       1.0  0.4075546470797491  0.0666157840902812  0.18790928040208146  1.0000
  N   N11       1.0  0.9075533908870952  0.5666127250904367  0.31208826260111533  1.0000
  N   N12       1.0  0.5924457612048002  0.933382393406518  0.8120911551740877  1.0000
  N   N13       1.0  0.22301659027303342  0.6345203801138766  0.6465668139215952  1.0000
  N   N14       1.0  0.27698808015171744  0.865479717431519  0.14656395815947584  1.0000
  N   N15       1.0  0.7769830416179176  0.3654796112934946  0.3534336216521368  1.0000
  N   N16       1.0  0.7230116620988412  0.13451663105445988  0.853433959651909  1.0000
  O   O1        1.0  0.6663805769502389  0.6037877878702816  0.853312480545654  1.0000
  O   O2        1.0  0.8336205162235545  0.8962126853109069  0.3533162598169569  1.0000
  O   O3        1.0  0.333620830389087  0.39621313315151935  0.14668627651541044  1.0000
  O   O4        1.0  0.1663812241295801  0.10378915020888968  0.6466883720330402  1.0000
  O   O5        1.0  0.7264731821095722  0.5556986908587973  0.6794061690968789  1.0000
  O   O6        1.0  0.7735369185033889  0.9443106316678039  0.17941065653921134  1.0000
  O   O7        1.0  0.2735256733895142  0.4443031144631887  0.3205917487072085  1.0000
  O   O8        1.0  0.2264704812098373  0.0556949071959707  0.8205931360502634  1.0000
  O   O9        1.0  0.9784655054433102  0.6530684517517429  0.985831742434037  1.0000
  O   O10       1.0  0.5215349610431871  0.8469343243665506  0.4858356373325139  1.0000
  O   O11       1.0  0.021535235861442542  0.3469306402578809  0.014165336117976305  1.0000
  O   O12       1.0  0.4784635614351346  0.1530665664412609  0.5141664767514555  1.0000
  O   O13       1.0  0.2521486221435937  0.6228041000043447  0.9105085624134261  1.0000
  O   O14       1.0  0.24785457376155046  0.8771960494988561  0.4105090310150317  1.0000
  O   O15       1.0  0.747852119161152  0.37719499200527895  0.08948851613859432  1.0000
  O   O16       1.0  0.7521428393064582  0.12280574071478872  0.5894914045562487  1.0000
  O   O17       1.0  0.6267735499286573  0.6095145235633908  0.10158523591668003  1.0000
  O   O18       1.0  0.8732264490272144  0.8904867427401938  0.6015865782674299  1.0000
  O   O19       1.0  0.3732196462109272  0.3904835784159673  0.8984126818922038  1.0000
  O   O20       1.0  0.12677806583023002  0.10951876592171318  0.3984130180433426  1.0000
