data_image0
_chemical_formula_structural       Al6H44C96N24Cl6O28
_chemical_formula_sum              "Al6 H44 C96 N24 Cl6 O28"
_cell_length_a       13.857839805722076
_cell_length_b       13.338349202596783
_cell_length_c       35.1790954392728
_cell_angle_alpha    89.86568813758421
_cell_angle_beta     89.80235434431091
_cell_angle_gamma    61.27506823514881

_space_group_name_H-M_alt    "P 1"
_space_group_IT_number       1

loop_
  _space_group_symop_operation_xyz
  'x, y, z'

loop_
  _atom_site_type_symbol
  _atom_site_label
  _atom_site_symmetry_multiplicity
  _atom_site_fract_x
  _atom_site_fract_y
  _atom_site_fract_z
  _atom_site_occupancy
  Al  Al1       1.0  0.2570840264605536  0.2275521683871631  0.499911879855972  1.0000
  Al  Al2       1.0  0.47272224083461367  0.25796879146599133  0.5004550351370227  1.0000
  Al  Al3       1.0  0.2519724770524546  0.46970248164650746  0.5002241717460905  1.0000
  Al  Al4       1.0  0.7449063997138976  0.48525874241227024  0.9999790713073224  1.0000
  Al  Al5       1.0  0.5275233786166922  0.730410757674626  0.0004469767618644  1.0000
  Al  Al6       1.0  0.7476526336060301  0.7229861387793552  0.00037709403770949993  1.0000
  H   H1        1.0  0.6010135064998323  0.31215315865740206  0.5957201745149021  1.0000
  H   H2        1.0  0.08004419655706128  0.615637008621519  0.5961249770669638  1.0000
  H   H3        1.0  0.32201622154040876  0.07067976718494147  0.5999432850887771  1.0000
  H   H4        1.0  0.3964848528595937  0.9133949884875108  0.09628615600056628  1.0000
  H   H5        1.0  0.9172702406021356  0.7006179126512182  0.09636023100372168  1.0000
  H   H6        1.0  0.6831880158917158  0.3930072049389395  0.0997640596990337  1.0000
  H   H7        1.0  0.2784306119292523  0.6043018249800906  0.6000128206041637  1.0000
  H   H8        1.0  0.11267997235957239  0.27949835250302607  0.6026992085993683  1.0000
  H   H9        1.0  0.6107158436834225  0.11154766283765842  0.602008524760734  1.0000
  H   H10       1.0  0.7196479318571247  0.8819091459412713  0.1002217879465661  1.0000
  H   H11       1.0  0.8899267769339972  0.39400764830239854  0.1025595274421605  1.0000
  H   H12       1.0  0.388968966765205  0.717780280913736  0.10164609462303528  1.0000
  H   H13       1.0  0.6934674190507195  0.42130077413438743  0.8984828316999937  1.0000
  H   H14       1.0  0.8794913752818018  0.7120444731823807  0.9009538817672575  1.0000
  H   H15       1.0  0.42576596282939505  0.8689258011829466  0.9021318612687423  1.0000
  H   H16       1.0  0.3067737627914013  0.11167401859466958  0.3997289896096561  1.0000
  H   H17       1.0  0.12479634945485427  0.5902814950420917  0.4006260959358059  1.0000
  H   H18       1.0  0.5741117983619047  0.29263732373053136  0.4015923943680662  1.0000
  H   H19       1.0  0.6270043904780137  0.3360773883779873  0.6649281662031328  1.0000
  H   H20       1.0  0.034126445678872096  0.6447192169059475  0.6656944766152364  1.0000
  H   H21       1.0  0.3416806372816836  0.02772897503362519  0.6698668255282384  1.0000
  H   H22       1.0  0.3702238091724084  0.963789049899937  0.1655026336735759  1.0000
  H   H23       1.0  0.9635639266572013  0.6836821851442638  0.1658429976875553  1.0000
  H   H24       1.0  0.6640957217783379  0.3703732842255649  0.1697586853243607  1.0000
  H   H25       1.0  0.3035732617292837  0.6288800629152576  0.6692045497770636  1.0000
  H   H26       1.0  0.0667734969296632  0.30762508156565355  0.6722346718623483  1.0000
  H   H27       1.0  0.6306031145709027  0.07022561412698282  0.6719356092722109  1.0000
  H   H28       1.0  0.694385091212787  0.9317699905386618  0.1694219213709758  1.0000
  H   H29       1.0  0.936483425930916  0.3759156828309997  0.1720297995451787  1.0000
  H   H30       1.0  0.36959909546034436  0.696884173845035  0.17166107285833482  1.0000
  H   H31       1.0  0.6796603979159668  0.3942583403538436  0.828865385855508  1.0000
  H   H32       1.0  0.9250890978536646  0.6993658014954889  0.8317554812868266  1.0000
  H   H33       1.0  0.3975070121030555  0.9150990671736422  0.8330415383391312  1.0000
  H   H34       1.0  0.31904807457790696  0.07270455699737251  0.3299717038642526  1.0000
  H   H35       1.0  0.0787252596767445  0.6245326477676869  0.3315460663200511  1.0000
  H   H36       1.0  0.6026268519016753  0.3106496316768102  0.33246103080549005  1.0000
  H   H37       1.0  0.3483131303931586  0.6747363054906469  0.8304335203909758  1.0000
  H   H38       1.0  0.9771653059786585  0.3539703017901772  0.8310069262097811  1.0000
  H   H39       1.0  0.6663646126974285  0.9914084717391345  0.8349447780451483  1.0000
  H   H40       1.0  0.6506222754956495  0.021762936354100825  0.3303291615869313  1.0000
  H   H41       1.0  0.020213713689564396  0.3352704821862318  0.3307085287585991  1.0000
  H   H42       1.0  0.3362742740771338  0.6567746868627679  0.3350739426296059  1.0000
  H   H43       1.0  0.1564475635651092  0.13924290294644945  0.5218821106614016  1.0000
  H   H44       1.0  0.7941674752492601  0.29773398681254537  0.0183315079511033  1.0000
  C   C1        1.0  0.1361828038614377  0.4228502215621289  0.5552019945998836  1.0000
  C   C2        1.0  0.4456630591610419  0.12791784313265708  0.5562770743209455  1.0000
  C   C3        1.0  0.41878827039605687  0.43739625662998094  0.5538248974475195  1.0000
  C   C4        1.0  0.8620221860393755  0.5628376132306057  0.0555873088612415  1.0000
  C   C5        1.0  0.5550379675625761  0.571192904316476  0.0557642164372396  1.0000
  C   C6        1.0  0.5792983229718445  0.8563072221407636  0.0541301961084244  1.0000
  C   C7        1.0  0.48103026149253475  0.49846855624967656  0.7119294923172177  1.0000
  C   C8        1.0  0.023269280421686692  0.4921432964693722  0.7140413321626156  1.0000
  C   C9        1.0  0.4978962587731174  0.023629658460599477  0.7162546673266448  1.0000
  C   C10       1.0  0.5161829754049734  0.9806876518875423  0.2122634564593824  1.0000
  C   C11       1.0  0.9764350967386406  0.5188975320596256  0.2140000476954782  1.0000
  C   C12       1.0  0.5048262429044287  0.5200642140435934  0.21607537359388118  1.0000
  C   C13       1.0  0.6106225751250989  0.4609478516065265  0.8443694875178593  1.0000
  C   C14       1.0  0.9267953981771695  0.6270517532392715  0.8467405156191532  1.0000
  C   C15       1.0  0.4619173422096167  0.9218959853537781  0.8485770322973494  1.0000
  C   C16       1.0  0.3885024573659165  0.06982100887665878  0.345250571388739  1.0000
  C   C17       1.0  0.07578411556382038  0.5544800478930083  0.34647865560964414  1.0000
  C   C18       1.0  0.538658406482071  0.38200624061953914  0.3481645923038315  1.0000
  C   C19       1.0  0.6180679824783439  0.47572409390709675  0.8830236736155328  1.0000
  C   C20       1.0  0.9020861057895573  0.6336334812848109  0.8852057189941576  1.0000
  C   C21       1.0  0.4774183546403776  0.8969001135125225  0.8870641038209469  1.0000
  C   C22       1.0  0.3818908914705544  0.09103293882260031  0.3839839711854012  1.0000
  C   C23       1.0  0.1008146442742373  0.5355900582920796  0.3848718677387453  1.0000
  C   C24       1.0  0.5230610512476446  0.37247370324660534  0.3866691212305966  1.0000
  C   C25       1.0  0.43215898318110385  0.6326327346921589  0.884247855467322  1.0000
  C   C26       1.0  0.9312787578322668  0.43947787048161757  0.8850115938273005  1.0000
  C   C27       1.0  0.6283138047201787  0.939773609148091  0.888384788511189  1.0000
  C   C28       1.0  0.5679221777611118  0.062119495004573436  0.38449810533153783  1.0000
  C   C29       1.0  0.0681297547805428  0.37286680686483453  0.3845906805498913  1.0000
  C   C30       1.0  0.3735690950137921  0.5668030212286014  0.38836794991716056  1.0000
  C   C31       1.0  0.4242171829318977  0.6187796979835057  0.8452904105890937  1.0000
  C   C32       1.0  0.9559681872152905  0.43261398043413407  0.8463345408365724  1.0000
  C   C33       1.0  0.613397233274746  0.9645820355887126  0.8496466652358308  1.0000
  C   C34       1.0  0.5750345679994381  0.04128374380464822  0.3454854776379932  1.0000
  C   C35       1.0  0.04299771899170678  0.3914696359066737  0.34602690451537643  1.0000
  C   C36       1.0  0.388608731183666  0.5767217919730998  0.3496134497141128  1.0000
  C   C37       1.0  0.512961595366086  0.5336587976109115  0.8250387178125393  1.0000
  C   C38       1.0  0.9536313704493011  0.5255690586664913  0.8269222071766291  1.0000
  C   C39       1.0  0.5310404373340916  0.9553653203281557  0.8294299093874499  1.0000
  C   C40       1.0  0.4857191168835938  0.04555153581114275  0.32554331118354446  1.0000
  C   C41       1.0  0.04691042892807219  0.48139649236572524  0.326687022886297  1.0000
  C   C42       1.0  0.47035770770636987  0.48487398051033637  0.32919876996387387  1.0000
  C   C43       1.0  0.5305106452280482  0.5616416650929565  0.9039271128241494  1.0000
  C   C44       1.0  0.9027798453563776  0.5416836912305952  0.9052158965456556  1.0000
  C   C45       1.0  0.5608781130443886  0.903676365610224  0.9078552900117742  1.0000
  C   C46       1.0  0.46991838589777757  0.08903316771476  0.40455296999753176  1.0000
  C   C47       1.0  0.09861965772334712  0.4449645843041098  0.4047660271768477  1.0000
  C   C48       1.0  0.44024846251703315  0.4630258252987287  0.4076472249211065  1.0000
  C   C49       1.0  0.13848070803788198  0.4243456953937113  0.4448568048108967  1.0000
  C   C50       1.0  0.44672079330145914  0.12535492609621463  0.4452664885017582  1.0000
  C   C51       1.0  0.4223236102587222  0.43740931838834746  0.4474511375680521  1.0000
  C   C52       1.0  0.8637923502786364  0.5617358173560446  0.9454910931125867  1.0000
  C   C53       1.0  0.5545884019057538  0.5740709200068819  0.9445905469126074  1.0000
  C   C54       1.0  0.5784728787864991  0.8603117010640774  0.9476551573311341  1.0000
  C   C55       1.0  0.4387311856830607  0.4578280138154227  0.5937931131899744  1.0000
  C   C56       1.0  0.09822055222522857  0.4461417120544979  0.5954539858748973  1.0000
  C   C57       1.0  0.4654327935116598  0.0928171181739756  0.5970059311527294  1.0000
  C   C58       1.0  0.5590135801136995  0.8964728278252849  0.0941537190007367  1.0000
  C   C59       1.0  0.9011623381534616  0.5480804451748468  0.09561979253980009  1.0000
  C   C60       1.0  0.5365631928818074  0.5557789070487545  0.0966423549599398  1.0000
  C   C61       1.0  0.5371079461628057  0.3819158255949232  0.6120205835441793  1.0000
  C   C62       1.0  0.075808730302839  0.5493935697175657  0.6130532005866627  1.0000
  C   C63       1.0  0.3896939808929005  0.0689577955196299  0.6161019813995878  1.0000
  C   C64       1.0  0.46047893421382463  0.919089152933438  0.1125001238295269  1.0000
  C   C65       1.0  0.9226586371706061  0.6295157817813075  0.1132102501462597  1.0000
  C   C66       1.0  0.6141809927534537  0.4578676890538845  0.1158376215604449  1.0000
  C   C67       1.0  0.5513338129711443  0.39485197899374214  0.6504279034457738  1.0000
  C   C68       1.0  0.0506008007774312  0.5654301200661607  0.6516052961648028  1.0000
  C   C69       1.0  0.4004944596582192  0.04558828297228967  0.6547895063949056  1.0000
  C   C70       1.0  0.4461048282803261  0.9465237162640533  0.1509198879174036  1.0000
  C   C71       1.0  0.9481658666297861  0.6202245401388422  0.15169687531945897  1.0000
  C   C72       1.0  0.603825973135585  0.4457289180985739  0.1546140932753559  1.0000
  C   C73       1.0  0.4669906891596155  0.48423859779874323  0.6712036308386828  1.0000
  C   C74       1.0  0.047567928004454495  0.4779012605707678  0.6730904289367103  1.0000
  C   C75       1.0  0.48749427215926733  0.046238272769798534  0.6751295325958111  1.0000
  C   C76       1.0  0.5304795798460162  0.9515122161403652  0.171587917683766  1.0000
  C   C77       1.0  0.9526429996585575  0.5288062693594425  0.17306388089995287  1.0000
  C   C78       1.0  0.515353425699537  0.5321083704325318  0.1749272488841527  1.0000
  C   C79       1.0  0.36852810443212997  0.5603745370172959  0.6528461687873345  1.0000
  C   C80       1.0  0.06906376524463549  0.37480749083901094  0.6552800572668503  1.0000
  C   C81       1.0  0.5638316593489917  0.06952203672179286  0.6559177079131756  1.0000
  C   C82       1.0  0.6292951134334359  0.9285165250094347  0.153143764192059  1.0000
  C   C83       1.0  0.9327325825032629  0.44622660282573884  0.15517675095027528  1.0000
  C   C84       1.0  0.4373837705602383  0.6302457413258082  0.1556505236253116  1.0000
  C   C85       1.0  0.35473824387428  0.5471372817950736  0.6144611660534167  1.0000
  C   C86       1.0  0.09409382556646759  0.35935076040153285  0.6168107104647476  1.0000
  C   C87       1.0  0.5528511055934472  0.09232791440339844  0.6171286608628535  1.0000
  C   C88       1.0  0.6431277109126015  0.9014671974454347  0.11474946464742429  1.0000
  C   C89       1.0  0.90720701166952  0.4560141672653231  0.1168009470907094  1.0000
  C   C90       1.0  0.44804825785400476  0.6417404153375302  0.1168074457250583  1.0000
  C   C91       1.0  0.5024620050958717  0.5217856302009662  0.783900533375899  1.0000
  C   C92       1.0  0.9794658866022131  0.5143335999196738  0.7860487659151899  1.0000
  C   C93       1.0  0.5180786461609371  0.9812079893755833  0.7884595135311797  1.0000
  C   C94       1.0  0.4952830234460279  0.024813586670774226  0.2843009313485396  1.0000
  C   C95       1.0  0.020363460989258897  0.49680940477393415  0.2859272244204972  1.0000
  C   C96       1.0  0.4837667893284275  0.4977938010652281  0.2882422011876713  1.0000
  N   N1        1.0  0.5892261143830595  0.4382234068532183  0.7650913942559114  1.0000
  N   N2        1.0  0.9770049602937972  0.6043365471121617  0.7673480590503203  1.0000
  N   N3        1.0  0.4363138193216044  0.9738561153296671  0.7698604454663779  1.0000
  N   N4        1.0  0.4081754698538234  0.028670561293054706  0.2656685900621909  1.0000
  N   N5        1.0  0.023058491503604693  0.5843260495729865  0.2672889471620365  1.0000
  N   N6        1.0  0.5662474668294237  0.40908425579971186  0.2696227445277515  1.0000
  N   N7        1.0  0.578309895291916  0.4264417584235505  0.728443079782437  1.0000
  N   N8        1.0  0.9993055889510457  0.5930240311380358  0.7306259570865022  1.0000
  N   N9        1.0  0.4261773894885436  0.9952259160833281  0.7331195202793809  1.0000
  N   N10       1.0  0.41883208598721205  0.006246533789763564  0.22897749988305094  1.0000
  N   N11       1.0  0.0008050719460470996  0.5954796348911131  0.23060040045672278  1.0000
  N   N12       1.0  0.5767365614702555  0.4202886854186331  0.23288466477889358  1.0000
  N   N13       1.0  0.3961912844749733  0.5853951948236541  0.7304391808414934  1.0000
  N   N14       1.0  0.02764974347397949  0.40136226419254933  0.7330338394230793  1.0000
  N   N15       1.0  0.5776915610773797  0.03416257539894471  0.7351737670451897  1.0000
  N   N16       1.0  0.6004607762785525  0.9845241092446595  0.23044649557917302  1.0000
  N   N17       1.0  0.9702989764560498  0.43351348073538554  0.23305347398164142  1.0000
  N   N18       1.0  0.424618042221624  0.6101958648251014  0.235037153068248  1.0000
  N   N19       1.0  0.4071211793343821  0.5972983810969694  0.7669697178644626  1.0000
  N   N20       1.0  0.0053771945128744  0.41266408912827757  0.7695188536102008  1.0000
  N   N21       1.0  0.5880223631136657  0.012320915190414929  0.7718321409490088  1.0000
  N   N22       1.0  0.5898138210346318  0.007003968489044535  0.2670129967530669  1.0000
  N   N23       1.0  0.9927550144441284  0.4222410393535797  0.2694801380493459  1.0000
  N   N24       1.0  0.4137497604753548  0.5986150003506694  0.27167629882118394  1.0000
  Cl  Cl1       1.0  0.3153580784284316  0.7389555911425629  0.9057600037537268  1.0000
  Cl  Cl2       1.0  0.938542634457363  0.31866417990580254  0.9055129843530096  1.0000
  Cl  Cl3       1.0  0.730205229339859  0.9583598240184372  0.9100569915076306  1.0000
  Cl  Cl4       1.0  0.685247382521453  0.05091497568331973  0.40564687118753534  1.0000
  Cl  Cl5       1.0  0.05841763620524179  0.26059816181834344  0.4050951195622829  1.0000
  Cl  Cl6       1.0  0.2728049881613615  0.6876137206812841  0.41035241549448637  1.0000
  O   O1        1.0  0.3592703847387212  0.13758439813206283  0.5410729249805399  1.0000
  O   O2        1.0  0.49410603996240343  0.34948992503532145  0.5369684234259324  1.0000
  O   O3        1.0  0.14472201637840948  0.5026860619108149  0.5371112540226974  1.0000
  O   O4        1.0  0.6398274123891524  0.4937226698802775  0.0397368072056778  1.0000
  O   O5        1.0  0.5044053404945429  0.8433122369876286  0.03721350052584429  1.0000
  O   O6        1.0  0.8553071566164973  0.6497877334541544  0.0369446401340312  1.0000
  O   O7        1.0  0.1624857962382293  0.32524349728478086  0.5418162556667525  1.0000
  O   O8        1.0  0.515942370256866  0.15140574299974932  0.5397445057740741  1.0000
  O   O9        1.0  0.3250225085528626  0.5051701246592729  0.5393356492721039  1.0000
  O   O10       1.0  0.833075689931668  0.4929192075014516  0.04297796057716139  1.0000
  O   O11       1.0  0.48540446320016156  0.6658253029141933  0.0398381257500802  1.0000
  O   O12       1.0  0.6731386866494161  0.8308960505329493  0.0396331774801553  1.0000
  O   O13       1.0  0.3569077028497318  0.13908288799154184  0.45896242049365543  1.0000
  O   O14       1.0  0.4962306254440491  0.3437123412819573  0.46192405093245975  1.0000
  O   O15       1.0  0.1507967366507188  0.5045341328584102  0.46106449255785265  1.0000
  O   O16       1.0  0.6459609160966976  0.4995135947176197  0.957501001827616  1.0000
  O   O17       1.0  0.5047890632002208  0.8396870030773302  0.9620465652543261  1.0000
  O   O18       1.0  0.8481613849657562  0.6564958184890133  0.9607950569467221  1.0000
  O   O19       1.0  0.16327484920613236  0.3294200962687556  0.45990126394018915  1.0000
  O   O20       1.0  0.5158935653392263  0.14639157585502013  0.4632305701989949  1.0000
  O   O21       1.0  0.3321724800279496  0.5048672298311773  0.4640342669527513  1.0000
  O   O22       1.0  0.8430400626777582  0.4899415635992313  0.9616396774307462  1.0000
  O   O23       1.0  0.4842089942340522  0.6621535869325895  0.9633401448818759  1.0000
  O   O24       1.0  0.6680079973176305  0.8386600080518675  0.9643664648428826  1.0000
  O   O25       1.0  0.32830477947151576  0.3193760517750946  0.5005242402604893  1.0000
  O   O26       1.0  0.6719559848291609  0.6482292852906042  0.0004976880872788999  1.0000
  O   O27       1.0  0.1916475468980536  0.14310283841222574  0.49859176549901457  1.0000
  O   O28       1.0  0.8139067757871741  0.3353711911748648  0.9986998913059394  1.0000
