data_image0
_chemical_formula_structural       Gd4H108C144N28O32
_chemical_formula_sum              "Gd4 H108 C144 N28 O32"
_cell_length_a       8.189437987428276
_cell_length_b       14.903058942002454
_cell_length_c       36.877843116130265
_cell_angle_alpha    89.99999902403677
_cell_angle_beta     90.40074544560015
_cell_angle_gamma    89.99993481628135

_space_group_name_H-M_alt    "P 1"
_space_group_IT_number       1

loop_
  _space_group_symop_operation_xyz
  'x, y, z'

loop_
  _atom_site_type_symbol
  _atom_site_label
  _atom_site_symmetry_multiplicity
  _atom_site_fract_x
  _atom_site_fract_y
  _atom_site_fract_z
  _atom_site_occupancy
  Gd  Gd1       1.0  0.16644367346513178  0.0963613667244942  0.4874352538923431  1.0000
  Gd  Gd2       1.0  0.8335488341106583  0.9036383801753801  0.5125677002731024  1.0000
  Gd  Gd3       1.0  0.6664420950492698  0.9036404382110702  0.9874342947671052  1.0000
  Gd  Gd4       1.0  0.3335577856445652  0.0963579666801877  0.0125662372653323  1.0000
  H   H1        1.0  0.5448434089983961  0.9632181879017025  0.2623003188276343  1.0000
  H   H2        1.0  0.4377285932730786  0.3039542362488703  0.3777447570456829  1.0000
  H   H3        1.0  0.6525233468687119  0.2865443211245093  0.3746850212933097  1.0000
  H   H4        1.0  0.5625505598704166  0.37331513000376054  0.07431632414139237  1.0000
  H   H5        1.0  0.06714447079371409  0.32407907292224547  0.774989950642258  1.0000
  H   H6        1.0  0.4121540322631886  0.34562286827057426  0.561948856862422  1.0000
  H   H7        1.0  0.7589317725955453  0.08129246222785722  0.6562783424886972  1.0000
  H   H8        1.0  0.9272863697676215  0.4100993999552713  0.8876381841613605  1.0000
  H   H9        1.0  0.41553234145782614  0.9424204812544588  0.47541727527929106  1.0000
  H   H10       1.0  0.4053334771563896  0.2995437350774496  0.8896413181917353  1.0000
  H   H11       1.0  0.630532299618764  0.07328341190041242  0.3829203528567362  1.0000
  H   H12       1.0  0.9121578898808875  0.6543828225115433  0.061947997594799596  1.0000
  H   H13       1.0  0.062553400495311  0.6266833960544815  0.574319367436999  1.0000
  H   H14       1.0  0.9377359910172133  0.6960453906693971  0.8777440929490011  1.0000
  H   H15       1.0  0.6742408455109653  0.6851155069493944  0.491559938230793  1.0000
  H   H16       1.0  0.8694555517970385  0.0732833416470982  0.11707955563547759  1.0000
  H   H17       1.0  0.5844650918587176  0.05758127865347971  0.5245835218206308  1.0000
  H   H18       1.0  0.6334189602287097  0.08121399694795883  0.43132289408686114  1.0000
  H   H19       1.0  0.9328529831884466  0.675920673976144  0.22500976183734167  1.0000
  H   H20       1.0  0.3867955594376226  0.36092643990092915  0.9726809722865185  1.0000
  H   H21       1.0  0.9053372127083533  0.700453898570423  0.38964181412980275  1.0000
  H   H22       1.0  0.8440596047904521  0.41655313921493337  0.5468749552279916  1.0000
  H   H23       1.0  0.0497087730654755  0.92481347652069  0.09198638858167389  1.0000
  H   H24       1.0  0.5878409640106169  0.6543795626413033  0.4380516629948374  1.0000
  H   H25       1.0  0.42728328502207086  0.5898962071371159  0.3876375011220289  1.0000
  H   H26       1.0  0.8257567075840129  0.6851161378749709  0.0084405324002645  1.0000
  H   H27       1.0  0.1436912447633034  0.763080880217288  0.004916774397109699  1.0000
  H   H28       1.0  0.0970114999187146  0.6572053113761669  0.2809735964798037  1.0000
  H   H29       1.0  0.044832890483256393  0.036784369805396  0.7623000790310142  1.0000
  H   H30       1.0  0.3177296429716421  0.2489179206108432  0.4251937092731381  1.0000
  H   H31       1.0  0.984364683514137  0.21786167757502986  0.15141600221808457  1.0000
  H   H32       1.0  0.6146945367526229  0.0334117401510383  0.1345043108517459  1.0000
  H   H33       1.0  0.9802689858386485  0.18972047041862083  0.5658732750525387  1.0000
  H   H34       1.0  0.1305467866016414  0.9267157342465994  0.8829201690192859  1.0000
  H   H35       1.0  0.9155373939474102  0.057578485638373415  0.9754174234112583  1.0000
  H   H36       1.0  0.4029839498367167  0.6572072304554909  0.2190254351719858  1.0000
  H   H37       1.0  0.2177313562321572  0.5127215043807071  0.914622532127943  1.0000
  H   H38       1.0  0.35630884760590215  0.7630808073608719  0.49508335274100557  1.0000
  H   H39       1.0  0.2410669128223262  0.9187072846701627  0.3437208307245285  1.0000
  H   H40       1.0  0.5497076574231627  0.0751924380296529  0.5919878770523468  1.0000
  H   H41       1.0  0.11469915612617845  0.9665880938850439  0.6345049156362065  1.0000
  H   H42       1.0  0.15253219959657824  0.7134541406266807  0.8746834690985209  1.0000
  H   H43       1.0  0.6218133985527884  0.05552061248231871  0.7931404912877795  1.0000
  H   H44       1.0  0.19837369423296275  0.2969738579374663  0.8246940336133973  1.0000
  H   H45       1.0  0.8474725965062502  0.2865462772726275  0.1253154481785685  1.0000
  H   H46       1.0  0.17424806268731877  0.31488629303387944  0.9915597406522279  1.0000
  H   H47       1.0  0.8665701060562155  0.0812159428698749  0.0686764750409026  1.0000
  H   H48       1.0  0.2578920507917672  0.9014302942124175  0.010860712320223299  1.0000
  H   H49       1.0  0.3665748149439522  0.9187857499515673  0.5686776227266249  1.0000
  H   H50       1.0  0.37818769807912395  0.9444777924085629  0.2068603149435333  1.0000
  H   H51       1.0  0.07271349026129312  0.5899003469423505  0.11236343249139939  1.0000
  H   H52       1.0  0.34406018133188354  0.583449239181874  0.046875094865036694  1.0000
  H   H53       1.0  0.019734568497412393  0.8102792764778783  0.43412672380109285  1.0000
  H   H54       1.0  0.45028612807844587  0.9248099928826081  0.40801209745094974  1.0000
  H   H55       1.0  0.27010584950769356  0.8516572745360875  0.9049850701507366  1.0000
  H   H56       1.0  0.08446250741064182  0.9424192482497061  0.024582024000849894  1.0000
  H   H57       1.0  0.937447680634065  0.37331970585867685  0.42568225225953427  1.0000
  H   H58       1.0  0.7177282207502245  0.48727892883557195  0.41462247012907477  1.0000
  H   H59       1.0  0.38530048019030966  0.9665853227353766  0.8654951243852124  1.0000
  H   H60       1.0  0.6822653326428564  0.7510804842819214  0.574807895204472  1.0000
  H   H61       1.0  0.1822654074712773  0.2489166255650233  0.0748069513139242  1.0000
  H   H62       1.0  0.7578921332498607  0.09856878359460099  0.5108608477701819  1.0000
  H   H63       1.0  0.5970195993334639  0.34279251644100844  0.7809748348367335  1.0000
  H   H64       1.0  0.9029871803332767  0.34279443552184574  0.7190258478885098  1.0000
  H   H65       1.0  0.5671384939234511  0.6759214575920255  0.2749901513782902  1.0000
  H   H66       1.0  0.8177393834677742  0.7510817793247354  0.9251922371182529  1.0000
  H   H67       1.0  0.11320896389724311  0.360925860009182  0.5273212535960425  1.0000
  H   H68       1.0  0.28227041817193305  0.5127235020751613  0.5853791434798836  1.0000
  H   H69       1.0  0.7822648714829725  0.48727555850532406  0.08537744846297099  1.0000
  H   H70       1.0  0.5727153848946571  0.41010689477681683  0.6123624855564243  1.0000
  H   H71       1.0  0.8781793485488264  0.0555238892856877  0.7068590738438232  1.0000
  H   H72       1.0  0.015637654884542895  0.7821373983186602  0.848583722436679  1.0000
  H   H73       1.0  0.24210407896553215  0.9014302923009724  0.4891399462859667  1.0000
  H   H74       1.0  0.1334310112378105  0.9187838040273848  0.9313232465700733  1.0000
  H   H75       1.0  0.3694590333473826  0.9267149929934959  0.6170801578691749  1.0000
  H   H76       1.0  0.48026787782969654  0.8102784680080791  0.06587286653082458  1.0000
  H   H77       1.0  0.12181688949525689  0.9444758576130853  0.2931403644369084  1.0000
  H   H78       1.0  0.5197369234418117  0.1897192658784945  0.9341257795911986  1.0000
  H   H79       1.0  0.484369682978297  0.7821392688873133  0.6514168804383826  1.0000
  H   H80       1.0  0.8563123612287383  0.2369215506919673  0.995080512905673  1.0000
  H   H81       1.0  0.7421078608959418  0.0985694526852257  0.9891381927817094  1.0000
  H   H82       1.0  0.613207958733085  0.6390773330146615  0.027320924652670393  1.0000
  H   H83       1.0  0.4551589242302043  0.0367849140110934  0.7376996769821886  1.0000
  H   H84       1.0  0.6983774347488918  0.7030239058191514  0.32469398720951387  1.0000
  H   H85       1.0  0.0878432170834884  0.3456149113761525  0.9380522663263517  1.0000
  H   H86       1.0  0.7410719002896896  0.08128709707018089  0.8437217920285534  1.0000
  H   H87       1.0  0.09466511535786988  0.2995458483264528  0.6103584528351291  1.0000
  H   H88       1.0  0.43286382380821214  0.3240809733175781  0.7250106578967888  1.0000
  H   H89       1.0  0.25893166437672477  0.9187139918326894  0.1562776645149029  1.0000
  H   H90       1.0  0.3474740657878214  0.7134540837674948  0.625316860426963  1.0000
  H   H91       1.0  0.9502935704990848  0.0751855993730075  0.9080130649180091  1.0000
  H   H92       1.0  0.5622749455639421  0.6960468526539927  0.6222560552731977  1.0000
  H   H93       1.0  0.5156301925468584  0.2178618200166795  0.34858392274912114  1.0000
  H   H94       1.0  0.8852982720258921  0.0334123240165169  0.3654961526188103  1.0000
  H   H95       1.0  0.8867921224015091  0.6390738868880633  0.4726800949454243  1.0000
  H   H96       1.0  0.6436886012103784  0.23691893953751733  0.5049166308936819  1.0000
  H   H97       1.0  0.3016248933159317  0.2969771830840885  0.6753062797554036  1.0000
  H   H98       1.0  0.22990134831719894  0.8516579624068114  0.5950152607096229  1.0000
  H   H99       1.0  0.7298977099942405  0.1483424723604116  0.09501465754781437  1.0000
  H   H100      1.0  0.4374481410485913  0.6266812618783462  0.9256820356066057  1.0000
  H   H101      1.0  0.5946688715754574  0.700453998809884  0.11035786415287419  1.0000
  H   H102      1.0  0.06226879992043879  0.30395435622672556  0.12225509548317597  1.0000
  H   H103      1.0  0.6559396786935352  0.4165538627316607  0.953126521787702  1.0000
  H   H104      1.0  0.3257541610967039  0.31488491095293375  0.5084400393163121  1.0000
  H   H105      1.0  0.9551621212909963  0.9632153770937535  0.23769962736101044  1.0000
  H   H106      1.0  0.8016262019592091  0.7030238759506204  0.1753056849537984  1.0000
  H   H107      1.0  0.7700936479601169  0.14834111348914555  0.4049852591476508  1.0000
  H   H108      1.0  0.15593904963144206  0.5834472786862578  0.45312584491573193  1.0000
  C   C1        1.0  0.12037484186839015  0.7986447231206526  0.2911537191420166  1.0000
  C   C2        1.0  0.5330672331474061  0.25295393875520494  0.3746022948479748  1.0000
  C   C3        1.0  0.03307722132181821  0.747044597029536  0.8746015587468747  1.0000
  C   C4        1.0  0.9890200450291218  0.0082999948227069  0.5690769739065401  1.0000
  C   C5        1.0  0.6840720863294292  0.8075152126104187  0.1455678899138206  1.0000
  C   C6        1.0  0.4322117879509689  0.17815388506298294  0.7273869049601557  1.0000
  C   C7        1.0  0.21692135867808557  0.7842342283605462  0.32389656793310445  1.0000
  C   C8        1.0  0.1571956924126141  0.7102118502294771  0.9848752455674511  1.0000
  C   C9        1.0  0.30131735327017123  0.701989332836874  0.9650625776562478  1.0000
  C   C10       1.0  0.3855489671129248  0.03844432456190111  0.8707710485922178  1.0000
  C   C11       1.0  0.6144485023682692  0.9615540803301313  0.12922785042213994  1.0000
  C   C12       1.0  0.9462817986427153  0.14707285579429197  0.9028305358655329  1.0000
  C   C13       1.0  0.4462781851813417  0.8529227390938418  0.4028287649534902  1.0000
  C   C14       1.0  0.283073810252155  0.7842402489929867  0.1761032756131655  1.0000
  C   C15       1.0  0.4138145886739509  0.5468366001289766  0.026600192737568296  1.0000
  C   C16       1.0  0.027202382015346395  0.2646530305341841  0.7601393943628239  1.0000
  C   C17       1.0  0.5309594573861104  0.7931839700708995  0.4255334997237624  1.0000
  C   C18       1.0  0.3465029861354695  0.4684882764387837  0.0115379659475323  1.0000
  C   C19       1.0  0.9360563776417409  0.33756932103717224  0.8908668773104224  1.0000
  C   C20       1.0  0.8465009587068123  0.5315120884403939  0.5115372795350267  1.0000
  C   C21       1.0  0.3973202416921494  0.22763165540935404  0.8846440563209298  1.0000
  C   C22       1.0  0.1915441819103094  0.0986877246323772  0.652833806971749  1.0000
  C   C23       1.0  0.8855472573958422  0.9615546638921019  0.3707723425918202  1.0000
  C   C24       1.0  0.9690378803163426  0.7931878653369823  0.07446642726081619  1.0000
  C   C25       1.0  0.435034143274045  0.4223292551380098  0.984715249653334  1.0000
  C   C26       1.0  0.09262551641323566  0.19458686760339822  0.0708620011944348  1.0000
  C   C27       1.0  0.9345001758686777  0.2329377879964269  0.4723976874879837  1.0000
  C   C28       1.0  0.18608253060642702  0.43731217605702  0.022824890109461593  1.0000
  C   C29       1.0  0.6445560826883676  0.278570118081781  0.6329588804053755  1.0000
  C   C30       1.0  0.6991501123176392  0.4319184876389457  0.43350043112027936  1.0000
  C   C31       1.0  0.5450883173540008  0.9272946927147744  0.09740586232553738  1.0000
  C   C32       1.0  0.3428044638923636  0.7102117993973351  0.5151256110893454  1.0000
  C   C33       1.0  0.4073684057413658  0.19458676497765742  0.4291397416409808  1.0000
  C   C34       1.0  0.13849406804797576  0.8156526375543296  0.12624741400432524  1.0000
  C   C35       1.0  0.9755431399904566  0.699303781755404  0.08055409358161818  1.0000
  C   C36       1.0  0.5809275415497837  0.11501780667398262  0.7784657394447335  1.0000
  C   C37       1.0  0.434502795610804  0.7670618382311646  0.9723969328766271  1.0000
  C   C38       1.0  0.462476187364679  0.16614895513607317  0.9091524695488926  1.0000
  C   C39       1.0  0.0355153929073069  0.647624737054592  0.9781514951203504  1.0000
  C   C40       1.0  0.5650625076915148  0.27605454981145533  0.7711979396880082  1.0000
  C   C41       1.0  0.5639467547848938  0.3375748083757131  0.6091335251929235  1.0000
  C   C42       1.0  0.4549128206056351  0.07270304117293593  0.9025927746651161  1.0000
  C   C43       1.0  0.7830797637811242  0.21576618953989884  0.6761028825227839  1.0000
  C   C44       1.0  0.3139182266944118  0.4373107879750295  0.47717605452210415  1.0000
  C   C45       1.0  0.5677917560512354  0.8218478748430585  0.2726136362036371  1.0000
  C   C46       1.0  0.114455060337221  0.0384464250111307  0.6292284666832657  1.0000
  C   C47       1.0  0.46448368851682886  0.6476239396183416  0.5218485458013118  1.0000
  C   C48       1.0  0.5375249454290909  0.8338487787516372  0.09084643859684148  1.0000
  C   C49       1.0  0.16790709220541086  0.16280879404954618  0.8047580211778536  1.0000
  C   C50       1.0  0.02445551443354079  0.30069462313623063  0.9194467065621197  1.0000
  C   C51       1.0  0.1471753338706421  0.8810392000299528  0.9060629592415237  1.0000
  C   C52       1.0  0.17901693386406234  0.6314944529934651  0.5603405414896726  1.0000
  C   C53       1.0  0.44741264184067836  0.5756071858314018  0.5470012936774536  1.0000
  C   C54       1.0  0.6860804380606422  0.5626882879197982  0.5228242033114583  1.0000
  C   C55       1.0  0.48826276409677394  0.10356314048004832  0.7472161264881902  1.0000
  C   C56       1.0  0.6471619829224481  0.11895725114020189  0.4060626032478112  1.0000
  C   C57       1.0  0.31592782019659893  0.1924805082681189  0.8544312863432137  1.0000
  C   C58       1.0  0.13177304794291436  0.1694644836830435  0.9555097390626486  1.0000
  C   C59       1.0  0.06505546932196177  0.7239439690917565  0.27119778816996387  1.0000
  C   C60       1.0  0.03752757335149679  0.16615043334893903  0.5908470441474946  1.0000
  C   C61       1.0  0.6679093107254132  0.83718898915604  0.30475905469153725  1.0000
  C   C62       1.0  0.0537168712782261  0.8529262201005353  0.09716945081294877  1.0000
  C   C63       1.0  0.9350308396542175  0.5776717124164321  0.48471410191640973  1.0000
  C   C64       1.0  0.8008443424772906  0.43191711934136384  0.0664981354246663  1.0000
  C   C65       1.0  0.631766753301761  0.8305319756235221  0.4555096667317783  1.0000
  C   C66       1.0  0.9322079588275968  0.8218477625650423  0.2273865676691997  1.0000
  C   C67       1.0  0.35283179225231015  0.8810404827497678  0.5939379135656822  1.0000
  C   C68       1.0  0.4728048259373308  0.26465423475051614  0.739860669557082  1.0000
  C   C69       1.0  0.33209667548539556  0.16281209974606273  0.6952414925598303  1.0000
  C   C70       1.0  0.3084621670885356  0.09868567262911651  0.847165442491338  1.0000
  C   C71       1.0  0.6384951976049962  0.1843545630032963  0.6262472802822784  1.0000
  C   C72       1.0  0.8159313321293523  0.8075151687801424  0.3544317809574409  1.0000
  C   C73       1.0  0.4755455023817915  0.300701869213171  0.5805538840033079  1.0000
  C   C74       1.0  0.5117407850713036  0.8964386194260002  0.2527841435205147  1.0000
  C   C75       1.0  0.3008497683733964  0.5680826012650544  0.5665001009121438  1.0000
  C   C76       1.0  0.0117350114919432  0.10356261705896229  0.7527839150733157  1.0000
  C   C77       1.0  0.6203808151609992  0.2013530899284035  0.7911538685399648  1.0000
  C   C78       1.0  0.05258901671469831  0.5756073023996748  0.9529995676875415  1.0000
  C   C79       1.0  0.9644845187796989  0.35237568084623666  0.021847409981575097  1.0000
  C   C80       1.0  0.9882587843442251  0.8964371298405637  0.2472155171198338  1.0000
  C   C81       1.0  0.1840758803526938  0.19248457811521294  0.6455684981826478  1.0000
  C   C82       1.0  0.36150715112193404  0.8156478679063215  0.37375190206230247  1.0000
  C   C83       1.0  0.8209817153898555  0.36850797791727535  0.43966052980911735  1.0000
  C   C84       1.0  0.3682257904323761  0.16947045528910823  0.5444913893480603  1.0000
  C   C85       1.0  0.6915389657045238  0.9013127322617792  0.1528334656543962  1.0000
  C   C86       1.0  0.9474108794739705  0.4243937865043251  0.0470001508796329  1.0000
  C   C87       1.0  0.698681363142967  0.29801041406116013  0.034934968626480184  1.0000
  C   C88       1.0  0.6571929694255799  0.2897886185042324  0.4848751860105907  1.0000
  C   C89       1.0  0.419071143866688  0.8849832822304081  0.22153343376848506  1.0000
  C   C90       1.0  0.06778950032043701  0.17815198433334695  0.7726128736553192  1.0000
  C   C91       1.0  0.0649714832447259  0.42232937648680763  0.5152864362035954  1.0000
  C   C92       1.0  0.9624771969226417  0.8338493135471765  0.409153228905005  1.0000
  C   C93       1.0  0.35544870308200416  0.7214309708207055  0.367040579181868  1.0000
  C   C94       1.0  0.19915312700391039  0.5680812855506688  0.9335007635896913  1.0000
  C   C95       1.0  0.5272011499410212  0.735347525154765  0.26014042000445403  1.0000
  C   C96       1.0  0.9073780379263211  0.8054095242771809  0.9291379976592181  1.0000
  C   C97       1.0  0.5244519567627394  0.6993012327011459  0.4194455573211896  1.0000
  C   C98       1.0  0.8554496203541646  0.2785646813769986  0.8670412577600713  1.0000
  C   C99       1.0  0.8528282153002351  0.1189598758633537  0.09393731076719548  1.0000
  C   C100      1.0  0.6790177665977879  0.36850601429396335  0.060337507384908  1.0000
  C   C101      1.0  0.0639422612818237  0.6624317678671974  0.10913473629854309  1.0000
  C   C102      1.0  0.919067528656207  0.11501971571421882  0.7215335598836743  1.0000
  C   C103      1.0  0.80131582904567  0.2980123891487594  0.4650627921965764  1.0000
  C   C104      1.0  0.51098256953847  0.0082981247949263  0.9309226161593003  1.0000
  C   C105      1.0  0.1986803779989401  0.7019913837691051  0.5349382730146316  1.0000
  C   C106      1.0  0.46903677032341307  0.2068184608406085  0.5744664808671159  1.0000
  C   C107      1.0  0.564968158959985  0.5776731757715864  0.015286373086993895  1.0000
  C   C108      1.0  0.14454902890116023  0.7214364075273707  0.1329598135387258  1.0000
  C   C109      1.0  0.03096322147934669  0.2068125525634557  0.9255341078153946  1.0000
  C   C110      1.0  0.3209833868587849  0.6314923905969465  0.9396603161404896  1.0000
  C   C111      1.0  0.5525872440169337  0.4243932320694129  0.4529989671998891  1.0000
  C   C112      1.0  0.8320903721099098  0.8371896108424791  0.1952411489915917  1.0000
  C   C113      1.0  0.5655044685314294  0.23293656665784823  0.0276006347126341  1.0000
  C   C114      1.0  0.716926070438177  0.2157615109141915  0.8238972564192507  1.0000
  C   C115      1.0  0.4349410466417395  0.7239478810977787  0.22880205916560928  1.0000
  C   C116      1.0  0.08618472909262917  0.5468353532891825  0.47340020518574727  1.0000
  C   C117      1.0  0.8615070337470172  0.18434845134928676  0.8737531210718925  1.0000
  C   C118      1.0  0.8139185608568054  0.5626889128465962  0.9771761872769177  1.0000
  C   C119      1.0  0.9669251325737988  0.2529551498673471  0.12539735244263986  1.0000
  C   C120      1.0  0.9549099561744041  0.9272959033886254  0.4025943371996306  1.0000
  C   C121      1.0  0.43605437283878956  0.6624269515311028  0.3908656541078627  1.0000
  C   C122      1.0  0.8973201585640496  0.7723666543511667  0.3846448133934998  1.0000
  C   C123      1.0  0.9349419794943186  0.2760557778066329  0.7288021954647234  1.0000
  C   C124      1.0  0.0450935826640233  0.07270384350786681  0.597406475119257  1.0000
  C   C125      1.0  0.5861864976220018  0.4531658307810035  0.9734011558038842  1.0000
  C   C126      1.0  0.3796215232334816  0.7986500119843994  0.20884585611477743  1.0000
  C   C127      1.0  0.4890197998575869  0.9916989380892288  0.0690754815649797  1.0000
  C   C128      1.0  0.9727950822985676  0.7353467163642124  0.23985977580660736  1.0000
  C   C129      1.0  0.8428078980824908  0.2897899096765927  0.015122855200587497  1.0000
  C   C130      1.0  0.553718052859935  0.14707969181766606  0.59717067332722  1.0000
  C   C131      1.0  0.8796226069464907  0.20135636578410043  0.7088462644926636  1.0000
  C   C132      1.0  0.5355125340303175  0.35237513627723877  0.4781517059446755  1.0000
  C   C133      1.0  0.1026846117093854  0.22763376354813403  0.6153554596589998  1.0000
  C   C134      1.0  0.4669326372125653  0.7470464791456093  0.625398779494617  1.0000
  C   C135      1.0  0.8682280486903977  0.8305325792014674  0.04449106716867129  1.0000
  C   C136      1.0  0.6026833333088246  0.7723667494807887  0.1153548579123793  1.0000
  C   C137      1.0  0.06549726261513908  0.7670626299051408  0.5276028384568646  1.0000
  C   C138      1.0  0.010973724977659997  0.9916997520768122  0.4309238140620194  1.0000
  C   C139      1.0  0.08092626201338499  0.884980702188493  0.2784661434645557  1.0000
  C   C140      1.0  0.1534976957157852  0.4684876584576117  0.48846352060869697  1.0000
  C   C141      1.0  0.6534993160999603  0.5315128124644488  0.9884636567928026  1.0000
  C   C142      1.0  0.5926326444053487  0.8054042588781841  0.5708635049861215  1.0000
  C   C143      1.0  0.9138127145563716  0.4531657356155706  0.5266000496040133  1.0000
  C   C144      1.0  0.8084642568401676  0.9013133642689725  0.3471662040570393  1.0000
  N   N1        1.0  0.6171316735328745  0.6375601867696831  0.5074753380803614  1.0000
  N   N2        1.0  0.7276351229963891  0.14684478599961892  0.6542609372861674  1.0000
  N   N3        1.0  0.22763637279820156  0.8531630295200116  0.1542602631667265  1.0000
  N   N4        1.0  0.7723647393285445  0.1468380593836116  0.8457397295993161  1.0000
  N   N5        1.0  0.8828696215398536  0.6375614395320779  0.9925245153596194  1.0000
  N   N6        1.0  0.7342190214651936  0.29581487168329096  0.6639634676631443  1.0000
  N   N7        1.0  0.26578455353297403  0.7041862172195792  0.3360354465701505  1.0000
  N   N8        1.0  0.7840518717476642  0.9174905899212432  0.1835935130314041  1.0000
  N   N9        1.0  0.5869635532882356  0.5233997398661785  0.5469301915016231  1.0000
  N   N10       1.0  0.2159492610453952  0.08250781496965233  0.8164053951143231  1.0000
  N   N11       1.0  0.02511759421159349  0.8102530989948704  0.9044728333177402  1.0000
  N   N12       1.0  0.3828682278237777  0.3624388891247677  0.4925241093317467  1.0000
  N   N13       1.0  0.4748909266938881  0.810254977028329  0.595526687633118  1.0000
  N   N14       1.0  0.11713513840042819  0.3624403203735866  0.007476300003041599  1.0000
  N   N15       1.0  0.773039698280158  0.7689070034525471  0.1732679184101187  1.0000
  N   N16       1.0  0.22696020307648718  0.23109207244191046  0.8267315290019823  1.0000
  N   N17       1.0  0.7269638008189149  0.7689070155469866  0.3267317529385352  1.0000
  N   N18       1.0  0.23420834038502383  0.7041915974773045  0.163964391878352  1.0000
  N   N19       1.0  0.4130338851941885  0.47660202004176005  0.4530703344432111  1.0000
  N   N20       1.0  0.9130343014222075  0.5233989620462368  0.9530704676838582  1.0000
  N   N21       1.0  0.2723635624179791  0.8531583159143211  0.3457382359270369  1.0000
  N   N22       1.0  0.2840595691170336  0.08251047976638402  0.6835935894812905  1.0000
  N   N23       1.0  0.2730422008888311  0.2310947443583089  0.6732679808475764  1.0000
  N   N24       1.0  0.08696314222679288  0.4766021268585235  0.04692978710590269  1.0000
  N   N25       1.0  0.7159488644682666  0.9174899381317871  0.31640669270257854  1.0000
  N   N26       1.0  0.7657866403925481  0.2958094914281944  0.8360369414441563  1.0000
  N   N27       1.0  0.9748871812312243  0.1897439638885103  0.0955271685797001  1.0000
  N   N28       1.0  0.525104095412111  0.18974476987082772  0.4044724764487383  1.0000
  O   O1        1.0  0.7019655338681475  0.04467181204434921  0.5206616462102502  1.0000
  O   O2        1.0  0.11297111995131096  0.08788660627798352  0.9656899722634761  1.0000
  O   O3        1.0  0.5965039446975026  0.9405362418695162  0.9230010203883907  1.0000
  O   O4        1.0  0.29803067834583896  0.9553286058575949  0.4793391478458914  1.0000
  O   O5        1.0  0.387032737070477  0.08789122451344872  0.5343130674167114  1.0000
  O   O6        1.0  0.10300306167868457  0.14114481617860972  0.0446428780114303  1.0000
  O   O7        1.0  0.9676010344729632  0.9776607265620144  0.4640859184411497  1.0000
  O   O8        1.0  0.9074548582007652  0.167647844256372  0.494912598471636  1.0000
  O   O9        1.0  0.9263579078931059  0.7606529405276561  0.542405159559884  1.0000
  O   O10       1.0  0.887031192619375  0.9121111276093361  0.0343111081667118  1.0000
  O   O11       1.0  0.09253770103311608  0.832352573646709  0.5050876441429679  1.0000
  O   O12       1.0  0.09649703178789787  0.059463595235648405  0.42300304328366417  1.0000
  O   O13       1.0  0.24059171457464865  0.21800817507674708  0.9714189712542376  1.0000
  O   O14       1.0  0.0736383301488743  0.23934881938066613  0.4575942787208334  1.0000
  O   O15       1.0  0.592551148837863  0.16764794880327824  0.0050854564250001994  1.0000
  O   O16       1.0  0.6129573592919753  0.9121091933903855  0.4656882537306544  1.0000
  O   O17       1.0  0.2594045957020725  0.21801018855624932  0.528581337003416  1.0000
  O   O18       1.0  0.5736394719329566  0.7606530439180831  0.9575944120715789  1.0000
  O   O19       1.0  0.39699588233908395  0.14115008726221126  0.4553575218845154  1.0000
  O   O20       1.0  0.032385424406314194  0.0223403623461493  0.5359140377994221  1.0000
  O   O21       1.0  0.7405830636225514  0.7819862033292394  0.47141970690130813  1.0000
  O   O22       1.0  0.40745488903383636  0.8323511270892965  0.994912379275547  1.0000
  O   O23       1.0  0.6030064767196065  0.8588523436474065  0.5446411181498901  1.0000
  O   O24       1.0  0.9035040545094546  0.9405374936679679  0.5769983052577954  1.0000
  O   O25       1.0  0.20196412806477324  0.9553266291409345  0.0206609647398963  1.0000
  O   O26       1.0  0.7980357784598553  0.04467043374396701  0.9793382115171383  1.0000
  O   O27       1.0  0.7594093768934869  0.7819882168045782  0.0285821061321698  1.0000
  O   O28       1.0  0.8969992612244652  0.8588522467055245  0.9553576601085965  1.0000
  O   O29       1.0  0.532381290503082  0.9776595255077467  0.03591261396147869  1.0000
  O   O30       1.0  0.4263641185691539  0.2393420059561464  0.0424036886965027  1.0000
  O   O31       1.0  0.4676149682052183  0.0223395503878479  0.9640857396989231  1.0000
  O   O32       1.0  0.4035020828431398  0.0594621630198731  0.0769973576223322  1.0000
