data_image0
_chemical_formula_structural       Ag4H12C48N24
_chemical_formula_sum              "Ag4 H12 C48 N24"
_cell_length_a       3.9025147546792387
_cell_length_b       18.33731115487248
_cell_length_c       19.7914806305247
_cell_angle_alpha    65.30807488264747
_cell_angle_beta     84.30073379223022
_cell_angle_gamma    83.83615756662947

_space_group_name_H-M_alt    "P 1"
_space_group_IT_number       1

loop_
  _space_group_symop_operation_xyz
  'x, y, z'

loop_
  _atom_site_type_symbol
  _atom_site_label
  _atom_site_symmetry_multiplicity
  _atom_site_fract_x
  _atom_site_fract_y
  _atom_site_fract_z
  _atom_site_occupancy
  Ag  Ag1       1.0  0.6288267503954472  0.45366428486541105  0.6946517754972419  1.0000
  Ag  Ag2       1.0  0.7761915643619443  0.046372686488759  0.8057190241861251  1.0000
  Ag  Ag3       1.0  0.37117848473633336  0.546335259681527  0.30534768771850207  1.0000
  Ag  Ag4       1.0  0.2238022532226935  0.9536262583281213  0.19428198992203258  1.0000
  H   H1        1.0  0.7116744045030223  0.6543140324400907  0.8149359531139666  1.0000
  H   H2        1.0  0.18136369462533983  0.8458165581334425  0.6851614113534126  1.0000
  H   H3        1.0  0.2883031330409479  0.3456885243478211  0.18506339148476064  1.0000
  H   H4        1.0  0.8186404151888524  0.15418178415026057  0.3148400269184037  1.0000
  H   H5        1.0  0.11089118575222257  0.5988000720811327  0.8463373943227881  1.0000
  H   H6        1.0  0.5564571376299202  0.9011616038398029  0.6536820550788037  1.0000
  H   H7        1.0  0.8890784601443256  0.4012018838850934  0.15366253925394352  1.0000
  H   H8        1.0  0.44354659809700786  0.0988379420755763  0.3463189239645956  1.0000
  H   H9        1.0  0.7204230604767549  0.561749060648154  0.8986267151129039  1.0000
  H   H10       1.0  0.18109642621041644  0.9383783931820842  0.6014788266071138  1.0000
  H   H11       1.0  0.27955195077073797  0.4382534963190921  0.10137258084846221  1.0000
  H   H12       1.0  0.8189049702636663  0.06162055109679439  0.3985223334131335  1.0000
  C   C1        1.0  0.8375939927029494  0.5934385466690273  0.8421404317498684  1.0000
  C   C2        1.0  0.2735350830621498  0.9066496357106714  0.6579341257271666  1.0000
  C   C3        1.0  0.16238629222201678  0.4065616010309441  0.15785781020214537  1.0000
  C   C4        1.0  0.726469026752042  0.093348706573039  0.3420673125446498  1.0000
  C   C5        1.0  0.805356991214673  0.5484186603946456  0.7985957913147742  1.0000
  C   C6        1.0  0.15295386545757597  0.9516605672929188  0.7015607647563017  1.0000
  C   C7        1.0  0.19463392598622417  0.45158148823324495  0.20140471492759815  1.0000
  C   C8        1.0  0.84704469196204  0.048337775805606484  0.2984410815166711  1.0000
  C   C9        1.0  0.09523936010461395  0.30327792798485115  0.5558357506503527  1.0000
  C   C10       1.0  0.9539083095952061  0.1968493342873856  0.9443323187070832  1.0000
  C   C11       1.0  0.9047756061258171  0.6967228194764202  0.4441634478864316  1.0000
  C   C12       1.0  0.046091373141997856  0.8031502110743671  0.055667552509817295  1.0000
  C   C13       1.0  0.28289307192431334  0.2267764752523148  0.5842085157313761  1.0000
  C   C14       1.0  0.09313753666176448  0.2733386604276404  0.9158807740843002  1.0000
  C   C15       1.0  0.717117341514779  0.7732242721114773  0.4157900802547942  1.0000
  C   C16       1.0  0.9068602452949289  0.7266620878328212  0.084117578715052  1.0000
  C   C17       1.0  0.3367267420064834  0.19900010381454789  0.526457315547141  1.0000
  C   C18       1.0  0.06156748167279599  0.3011455878368991  0.9736066156781576  1.0000
  C   C19       1.0  0.663271414037467  0.8009994408142518  0.47354149648062827  1.0000
  C   C20       1.0  0.9384315142191608  0.6988545597968354  0.02639353120042645  1.0000
  C   C21       1.0  0.18041930683644133  0.2582083138209511  0.4624131351488074  1.0000
  C   C22       1.0  0.90065482712226  0.2420075492714773  0.03770886946633569  1.0000
  C   C23       1.0  0.8195786621638846  0.7417918326236828  0.5375854472647533  1.0000
  C   C24       1.0  0.09935112214316168  0.757991395104881  0.9622928931045251  1.0000
  C   C25       1.0  0.0303585584759604  0.3224592139456205  0.4806287087146188  1.0000
  C   C26       1.0  0.8334684955101251  0.17771895727375409  0.01956189481034441  1.0000
  C   C27       1.0  0.9696480163054345  0.6775409331501123  0.5193715840760547  1.0000
  C   C28       1.0  0.16653998005178047  0.8222799869232702  0.9804399163978772  1.0000
  C   C29       1.0  0.993640025285615  0.35112195741017865  0.5950613791623596  1.0000
  C   C30       1.0  0.9393648507660186  0.1489798729569998  0.9051606413654554  1.0000
  C   C31       1.0  0.006370762240742235  0.6488775863219444  0.4049376760522281  1.0000
  C   C32       1.0  0.06063813678638054  0.8510220802217247  0.09483941922112399  1.0000
  C   C33       1.0  0.3982955546892273  0.18656147048270097  0.6563230943669964  1.0000
  C   C34       1.0  0.24068902796459873  0.31352423708393223  0.8437614979206743  1.0000
  C   C35       1.0  0.6017133933858929  0.8134374711567743  0.34367563654854655  1.0000
  C   C36       1.0  0.759302854798648  0.686477717724429  0.15623937866821802  1.0000
  C   C37       1.0  0.5212364716544117  0.12640014592010831  0.5324106157894093  1.0000
  C   C38       1.0  0.17934578129523276  0.37370543406620976  0.9675888884190584  1.0000
  C   C39       1.0  0.47876773658573757  0.8735993974377221  0.4675872829613113  1.0000
  C   C40       1.0  0.8206503755422574  0.6262941123871784  0.032411944712251325  1.0000
  C   C41       1.0  0.168302264863442  0.25460098019316035  0.3930613425548799  1.0000
  C   C42       1.0  0.8160390120508222  0.24566181438588325  0.10708022435759555  1.0000
  C   C43       1.0  0.831694204732031  0.745399167619915  0.6069387556863433  1.0000
  C   C44       1.0  0.18396101073275878  0.7543383344369586  0.8929214869860048  1.0000
  C   C45       1.0  0.8453123127909522  0.39183598061460145  0.43320706122760544  1.0000
  C   C46       1.0  0.6705553557755478  0.10837714272916796  0.06697456903209802  1.0000
  C   C47       1.0  0.15469610144167223  0.608164768573779  0.5667935558621126  1.0000
  C   C48       1.0  0.32944806719339675  0.891621801826524  0.9330271449013949  1.0000
  N   N1        1.0  0.7754052459578064  0.5124748822194717  0.7633339431755389  1.0000
  N   N2        1.0  0.052003591457378304  0.9876181319908776  0.7368559363450731  1.0000
  N   N3        1.0  0.22459998917397425  0.4875246623274663  0.236665520040205  1.0000
  N   N4        1.0  0.9479979920603367  0.0123802104721591  0.26314545328938266  1.0000
  N   N5        1.0  0.9121153855763918  0.39110120298857237  0.6277579102164808  1.0000
  N   N6        1.0  0.9302650302458486  0.1089928582701489  0.8724934056454928  1.0000
  N   N7        1.0  0.08788732325890447  0.6088983417377066  0.3722415043619022  1.0000
  N   N8        1.0  0.06972420725904965  0.8910060843478574  0.1275044308952503  1.0000
  N   N9        1.0  0.4965755939700713  0.15306524939725819  0.7163100388515034  1.0000
  N   N10       1.0  0.3648657988040683  0.3469782308031241  0.783699640219865  1.0000
  N   N11       1.0  0.5034335411486879  0.8469330904263754  0.2836889216782482  1.0000
  N   N12       1.0  0.6351381270222944  0.6530255264546694  0.2162982156964405  1.0000
  N   N13       1.0  0.6822786948090142  0.06666845146148859  0.5383098072486732  1.0000
  N   N14       1.0  0.2865251099977045  0.4334384544703837  0.9615717905330997  1.0000
  N   N15       1.0  0.3177193355205929  0.9333298899917821  0.4616899692833912  1.0000
  N   N16       1.0  0.7134731990490053  0.5665622954353393  0.03842863200716121  1.0000
  N   N17       1.0  0.1530183701624778  0.25249081623080377  0.33519639028738624  1.0000
  N   N18       1.0  0.7412247361432089  0.24775152813683127  0.1649821420174433  1.0000
  N   N19       1.0  0.8469737336852888  0.7475087296689579  0.6648033350174246  1.0000
  N   N20       1.0  0.25877357290350034  0.752249221768892  0.8350182805228172  1.0000
  N   N21       1.0  0.690342378291923  0.4495350231140094  0.3936380229849092  1.0000
  N   N22       1.0  0.5340649466365193  0.050636503891254805  0.1064822314056997  1.0000
  N   N23       1.0  0.30965764449166466  0.5504651257088395  0.6063636883586981  1.0000
  N   N24       1.0  0.46593626279392425  0.9493630422034584  0.8935186990003389  1.0000
