data_image0
_chemical_formula_structural       Gd2H36C38N6O22
_chemical_formula_sum              "Gd2 H36 C38 N6 O22"
_cell_length_a       7.218074748038394
_cell_length_b       11.111227811855262
_cell_length_c       13.463
_cell_angle_alpha    102.7853060509997
_cell_angle_beta     101.76512631537722
_cell_angle_gamma    90.80320486384691

_space_group_name_H-M_alt    "P 1"
_space_group_IT_number       1

loop_
  _space_group_symop_operation_xyz
  'x, y, z'

loop_
  _atom_site_type_symbol
  _atom_site_label
  _atom_site_symmetry_multiplicity
  _atom_site_fract_x
  _atom_site_fract_y
  _atom_site_fract_z
  _atom_site_occupancy
  Gd  Gd1       1.0  0.11259845552275749  0.891155291352426  0.6606898732474136  1.0000
  Gd  Gd2       1.0  0.8873934272247863  0.1088421520886342  0.339309069557352  1.0000
  H   H1        1.0  0.8360213356757313  0.7315240801200886  0.18659518526171578  1.0000
  H   H2        1.0  0.1639880655927257  0.2684641168421038  0.813397298881668  1.0000
  H   H3        1.0  0.9559385082391143  0.3493550879509897  0.17013198604716706  1.0000
  H   H4        1.0  0.04405682945305501  0.650634033659081  0.8298710139772608  1.0000
  H   H5        1.0  0.1324846774527799  0.6178876287367387  0.4601209695401138  1.0000
  H   H6        1.0  0.8675175504339309  0.3821144379437555  0.5398754919235031  1.0000
  H   H7        1.0  0.3920552848692225  0.4873791273571157  0.6191613388224866  1.0000
  H   H8        1.0  0.6079561365084416  0.5126303365064686  0.38084044980356413  1.0000
  H   H9        1.0  0.7067414012307436  0.3644092802011869  0.8862499857181945  1.0000
  H   H10       1.0  0.2932549026006015  0.6355900125356442  0.1137468070481802  1.0000
  H   H11       1.0  0.569372396574721  0.7424034871599331  0.9183753406637933  1.0000
  H   H12       1.0  0.4306210769751999  0.2575958055768979  0.08163451267490268  1.0000
  H   H13       1.0  0.7927790983369076  0.2605398844494857  0.7538718603190375  1.0000
  H   H14       1.0  0.20722003577586884  0.7394594082873454  0.24611855686350023  1.0000
  H   H15       1.0  0.7131407903346982  0.850429175164237  0.5276791821356568  1.0000
  H   H16       1.0  0.286850741089502  0.1495645696852677  0.4723197895243629  1.0000
  H   H17       1.0  0.7691755191611662  0.9907176772459252  0.5406060960214133  1.0000
  H   H18       1.0  0.23082016985433998  0.0092751429556941  0.45939167571227557  1.0000
  H   H19       1.0  0.4057122869232472  0.0701243711112696  0.6334904970021923  1.0000
  H   H20       1.0  0.5942767655428653  0.9298730723297908  0.3665059080684259  1.0000
  H   H21       1.0  0.5296115311636527  0.9543614469722641  0.6218860041047235  1.0000
  H   H22       1.0  0.4703776969641353  0.045637845764567  0.3781092723735213  1.0000
  H   H23       1.0  0.7293714286432404  0.9344879899344035  0.7876702454434932  1.0000
  H   H24       1.0  0.2706169991596781  0.0655177753376393  0.21233206790660827  1.0000
  H   H25       1.0  0.5558642382966356  0.1774334570030547  0.9101175991628593  1.0000
  H   H26       1.0  0.4441401952083054  0.8225769315084221  0.08989102219686633  1.0000
  H   H27       1.0  0.6165993434577856  0.09543568237328509  0.010969106365848785  1.0000
  H   H28       1.0  0.3834106627791626  0.9045737814903063  0.9890384697698663  1.0000
  H   H29       1.0  0.5253356356830351  0.0123209330958716  0.8784422162927256  1.0000
  H   H30       1.0  0.4746645523997585  0.9876894554156053  0.12156668373652478  1.0000
  H   H31       1.0  0.9081367657729087  0.2682532971238345  0.9797142502331724  1.0000
  H   H32       1.0  0.0918723621556907  0.731746920260882  0.02028708444043298  1.0000
  H   H33       1.0  0.0860185691752022  0.1608609929222098  0.9567978834147437  1.0000
  H   H34       1.0  0.9139863133312573  0.8391392244625067  0.04319853049289428  1.0000
  H   H35       1.0  0.9653612610624689  0.1627352541893998  0.06163233123603359  1.0000
  H   H36       1.0  0.03465087280923031  0.8372668124910945  0.9383674414733532  1.0000
  C   C1        1.0  0.9883171092937815  0.8205371582694382  0.3879015720011266  1.0000
  C   C2        1.0  0.011684591607917101  0.1794593605237367  0.6120945613571109  1.0000
  C   C3        1.0  0.9799672474303235  0.688058232242362  0.3298379097478161  1.0000
  C   C4        1.0  0.020038523231846697  0.3119364372550351  0.6701575879802774  1.0000
  C   C5        1.0  0.8972063088968909  0.6594468526712163  0.22369609487625294  1.0000
  C   C6        1.0  0.10279760747038579  0.3405431935867398  0.7762968701949545  1.0000
  C   C7        1.0  0.8912569996823763  0.5375505217122338  0.16536537219328554  1.0000
  C   C8        1.0  0.1087399288121702  0.46244044919361466  0.834624769517113  1.0000
  C   C9        1.0  0.9658728453663483  0.44468813440880683  0.2145169798439922  1.0000
  C   C10       1.0  0.0341216041701173  0.5553065350885902  0.7854817369244884  1.0000
  C   C11       1.0  0.0515839398978457  0.473540847078489  0.3205814238082425  1.0000
  C   C12       1.0  0.9484146672299189  0.5264528977710228  0.6794190641398997  1.0000
  C   C13       1.0  0.0607185634522693  0.595688682262768  0.3782129311242883  1.0000
  C   C14       1.0  0.9392873828715621  0.4043078365303998  0.6217844091174172  1.0000
  C   C15       1.0  0.1336794785279736  0.3739516463962644  0.3742296387538815  1.0000
  C   C16       1.0  0.8663254918093202  0.6260494956363445  0.6257743813990543  1.0000
  C   C17       1.0  0.37258960064704627  0.7282609977264372  0.7248758717449348  1.0000
  C   C18       1.0  0.6274043120570524  0.2717429182498279  0.2751304173363279  1.0000
  C   C19       1.0  0.4745360070697942  0.6260420984532473  0.7643815994412433  1.0000
  C   C20       1.0  0.5254660451552411  0.373958118931469  0.23562638948571643  1.0000
  C   C21       1.0  0.4659437154387334  0.5069816625640584  0.7009192805001803  1.0000
  C   C22       1.0  0.5340627578701103  0.49302040411643583  0.299081358952904  1.0000
  C   C23       1.0  0.5525616039521495  0.4124382654018461  0.7449346466348955  1.0000
  C   C24       1.0  0.4474330113986298  0.5875730477575232  0.25506564252387415  1.0000
  C   C25       1.0  0.6452402738181107  0.4368230794809662  0.8496157098524079  1.0000
  C   C26       1.0  0.354757269492282  0.5631743639600941  0.15038236620866033  1.0000
  C   C27       1.0  0.6529055391659282  0.5561803273419201  0.9123519991845582  1.0000
  C   C28       1.0  0.3470943952717177  0.4438124928596991  0.08764772220909829  1.0000
  C   C29       1.0  0.5674659686048784  0.6501374977436996  0.8691954860733233  1.0000
  C   C30       1.0  0.4325231716920683  0.3498608703452462  0.1308077824660927  1.0000
  C   C31       1.0  0.5374763795246338  0.2824845527544966  0.6841892904982672  1.0000
  C   C32       1.0  0.4625320359099376  0.717523061813317  0.31580886065651725  1.0000
  C   C33       1.0  0.8501684617702595  0.9974685314697851  0.8350153952387771  1.0000
  C   C34       1.0  0.14982553876467355  0.0025363091543724  0.16498364455781458  1.0000
  C   C35       1.0  0.6147764175100647  0.0921855450500573  0.928617128711025  1.0000
  C   C36       1.0  0.38522916764307513  0.9078220695177563  0.07139185468658836  1.0000
  C   C37       1.0  0.9509299307380629  0.1740159584122623  0.9814353865753986  1.0000
  C   C38       1.0  0.0490744149360367  0.8259935054513291  0.018563400209529825  1.0000
  N   N1        1.0  0.8098139998663925  0.5017629498891552  0.05766329446148427  1.0000
  N   N2        1.0  0.19018575890958542  0.4982280210166934  0.9423368127480457  1.0000
  N   N3        1.0  0.7367802558201078  0.5890829977571883  0.019458016987577716  1.0000
  N   N4        1.0  0.2632198542792068  0.4109116717402088  0.9805480035786898  1.0000
  N   N5        1.0  0.8076140249656092  0.0834023147703107  0.9119473647971006  1.0000
  N   N6        1.0  0.1923843088222981  0.9166034505017322  0.08805677424577137  1.0000
  O   O1        1.0  0.07664061615012942  0.850358901924821  0.48269123394307895  1.0000
  O   O2        1.0  0.9233565758369264  0.14963484292469076  0.517308356526243  1.0000
  O   O3        1.0  0.9119619541684614  0.8976065596608576  0.3379148470720565  1.0000
  O   O4        1.0  0.0880425770146616  0.1023899591323101  0.6620845667968283  1.0000
  O   O5        1.0  0.07842861399919339  0.2610891252944327  0.3229599578740903  1.0000
  O   O6        1.0  0.9215677776629929  0.7389110920902837  0.6770503833495666  1.0000
  O   O7        1.0  0.2437064167972878  0.4032981210376647  0.4604833693720281  1.0000
  O   O8        1.0  0.7563018229756151  0.5967076442343782  0.5395166531516224  1.0000
  O   O9        1.0  0.3497399890941111  0.8266546286906191  0.7916730566034715  1.0000
  O   O10       1.0  0.6502498538495229  0.1733511365814238  0.20833386810794247  1.0000
  O   O11       1.0  0.30361052996463656  0.7148138435040607  0.6282758355645156  1.0000
  O   O12       1.0  0.6963847978801782  0.2851900724722114  0.3717276371130821  1.0000
  O   O13       1.0  0.402316099400707  0.23400433938492426  0.6147150060734816  1.0000
  O   O14       1.0  0.5976939068362483  0.7660051244786671  0.38527771453226484  1.0000
  O   O15       1.0  0.6779100657211571  0.209820173897306  0.7135060432171016  1.0000
  O   O16       1.0  0.3220908348556718  0.7901828174310735  0.2864837570360094  1.0000
  O   O17       1.0  0.7567400074079557  0.927677033597881  0.580371926417996  1.0000
  O   O18       1.0  0.2432557694383846  0.0723167112516307  0.41962676657249887  1.0000
  O   O19       1.0  0.40811652359627  0.9831346399236551  0.6386696314556985  1.0000
  O   O20       1.0  0.5918741196722337  0.016864652813176  0.3613250569483739  1.0000
  O   O21       1.0  0.013982139863586002  0.9865983709088084  0.8167891425739524  1.0000
  O   O22       1.0  0.9860057609543205  0.0134018464759151  0.1832091287882776  1.0000
