data_image0
_chemical_formula_structural       Ni4H116C76N20O16
_chemical_formula_sum              "Ni4 H116 C76 N20 O16"
_cell_length_a       14.931591914344034
_cell_length_b       14.93090833684974
_cell_length_c       15.923178426195003
_cell_angle_alpha    96.12023964517972
_cell_angle_beta     116.02948038360623
_cell_angle_gamma    114.75624111322094

_space_group_name_H-M_alt    "P 1"
_space_group_IT_number       1

loop_
  _space_group_symop_operation_xyz
  'x, y, z'

loop_
  _atom_site_type_symbol
  _atom_site_label
  _atom_site_symmetry_multiplicity
  _atom_site_fract_x
  _atom_site_fract_y
  _atom_site_fract_z
  _atom_site_occupancy
  Ni  Ni1       1.0  0.07186323003151086  0.8229015379552961  0.715210022430128  1.0000
  Ni  Ni2       1.0  0.6078569322781464  0.356836252255775  0.7849004758086126  1.0000
  Ni  Ni3       1.0  0.9281370431759725  0.17709929527473614  0.2847895720399407  1.0000
  Ni  Ni4       1.0  0.3921424825306657  0.6431633282394313  0.21509906003654317  1.0000
  H   H1        1.0  0.1961221290001091  0.7708289123753572  0.6869799497198201  1.0000
  H   H2        1.0  0.5840196585425446  0.5093634054812951  0.8130658973122922  1.0000
  H   H3        1.0  0.8038788498688518  0.22917147498933585  0.3130211485269216  1.0000
  H   H4        1.0  0.415981133764994  0.49063787088949323  0.1869357924452402  1.0000
  H   H5        1.0  0.9372404733891174  0.8653716546932413  0.7368409286860358  1.0000
  H   H6        1.0  0.6287247535238831  0.20056504330091224  0.7633825953633249  1.0000
  H   H7        1.0  0.06276050547984369  0.13462873267145165  0.263160169560706  1.0000
  H   H8        1.0  0.37127466128492864  0.7994345371942941  0.23661694048183077  1.0000
  H   H9        1.0  0.9349841139558349  0.6740463673170608  0.5521442452059233  1.0000
  H   H10       1.0  0.6218900070458343  0.38305331748780674  0.9478204159287029  1.0000
  H   H11       1.0  0.06501574761780668  0.3259547280975498  0.44785651130650456  1.0000
  H   H12       1.0  0.37810877443672547  0.6169456370940906  0.05217849075996378  1.0000
  H   H13       1.0  0.2176335884691198  0.9697383344446633  0.8822649204736308  1.0000
  H   H14       1.0  0.5877807560519132  0.33556249725075554  0.6179912203841057  1.0000
  H   H15       1.0  0.7823665705121597  0.030262316012809133  0.11773614012741979  1.0000
  H   H16       1.0  0.4122197037169925  0.6644374469731813  0.3820077825751724  1.0000
  H   H17       1.0  0.7480395171247451  0.7057846184708579  0.6321187119958723  1.0000
  H   H18       1.0  0.5736243029830346  0.11604179644617565  0.8679101767188726  1.0000
  H   H19       1.0  0.25196146174421585  0.2942157688938351  0.3678823862508693  1.0000
  H   H20       1.0  0.42637481441814623  0.8839582290061755  0.1320890550376532  1.0000
  H   H21       1.0  0.8211954765088905  0.6355569126296885  0.6383544927354238  1.0000
  H   H22       1.0  0.4971154062074987  0.18294541339348316  0.8615414908247843  1.0000
  H   H23       1.0  0.17880479669858562  0.3644439206003368  0.3616451017346449  1.0000
  H   H24       1.0  0.5028846419275722  0.817054793015039  0.13845867417685304  1.0000
  H   H25       1.0  0.7593039026499112  0.6782934278219415  0.4801151986152307  1.0000
  H   H26       1.0  0.6980522929366869  0.2794159577904691  0.019940342308608278  1.0000
  H   H27       1.0  0.2406961839961426  0.32170829441418647  0.5198849873656357  1.0000
  H   H28       1.0  0.30194764435216825  0.7205838045691023  0.9800589270936086  1.0000
  H   H29       1.0  0.845458979681318  0.8151845189520581  0.5551982453923614  1.0000
  H   H30       1.0  0.7600335491982975  0.2904451834647189  0.9450418439181193  1.0000
  H   H31       1.0  0.1545404736384768  0.1848165773707464  0.4448013114320233  1.0000
  H   H32       1.0  0.2399651214380468  0.7095533270682209  0.05495616717113446  1.0000
  H   H33       1.0  0.27488063871422236  0.8800292678877781  0.6023264556315838  1.0000
  H   H34       1.0  0.778015990643681  0.6728410727973612  0.8978735415437955  1.0000
  H   H35       1.0  0.7251200427471004  0.11997156443405992  0.39767433852652806  1.0000
  H   H36       1.0  0.22198580811296142  0.3271590514745596  0.10212759434863022  1.0000
  H   H37       1.0  0.212530083165511  0.9531416919326503  0.6209901733780967  1.0000
  H   H38       1.0  0.8324063782916297  0.5917592682049743  0.879250091764284  1.0000
  H   H39       1.0  0.7874697398971476  0.04685788765436171  0.37901056215510204  1.0000
  H   H40       1.0  0.16759501221116577  0.4082408569751337  0.12074984444009834  1.0000
  H   H41       1.0  0.875175880698002  0.7602999199737254  0.832344441016133  1.0000
  H   H42       1.0  0.42811823035565766  0.042920563006617694  0.6675725506408199  1.0000
  H   H43       1.0  0.12482465140612929  0.23969895247156356  0.1676554365633294  1.0000
  H   H44       1.0  0.5718824159746702  0.9570784922112308  0.33242586080766057  1.0000
  H   H45       1.0  0.9410525106163236  0.6914967828503719  0.8121936553923775  1.0000
  H   H46       1.0  0.3793501725046441  0.12885773463703734  0.6876570334729095  1.0000
  H   H47       1.0  0.05894679334627988  0.308502353595884  0.1878049848533578  1.0000
  H   H48       1.0  0.620648906385547  0.871140774987708  0.3123421773043873  1.0000
  H   H49       1.0  0.07265691874285096  0.715290401007067  0.5010831996393463  1.0000
  H   H50       1.0  0.7144434014589648  0.5719585773501378  0.9990536910118308  1.0000
  H   H51       1.0  0.9273425345769439  0.2847106953157377  0.4989163571850313  1.0000
  H   H52       1.0  0.28555769163619954  0.42804199278711497  0.0009459411039287646  1.0000
  H   H53       1.0  0.09569401528895588  0.8148133645332436  0.4494002023959284  1.0000
  H   H54       1.0  0.8656988105640552  0.6465861050624325  0.05076785832273614  1.0000
  H   H55       1.0  0.904305438030839  0.18518773178956122  0.5505993544284492  1.0000
  H   H56       1.0  0.13430298819258732  0.3534140192094881  0.9492332775696967  1.0000
  H   H57       1.0  0.15449052542614786  0.4853774842263049  0.7121703751731161  1.0000
  H   H58       1.0  0.27321026643491575  0.4423825077862278  0.7877958911667023  1.0000
  H   H59       1.0  0.8455095531531781  0.5146203958523542  0.28783300519988597  1.0000
  H   H60       1.0  0.7267866501998765  0.5576163461597117  0.21220351076215846  1.0000
  H   H61       1.0  0.9268667392461011  0.2501825247273004  0.7771553953942033  1.0000
  H   H62       1.0  0.9729878315174572  0.14962498207944458  0.7226428488139334  1.0000
  H   H63       1.0  0.07312537098204072  0.7498137258376188  0.22284078546087482  1.0000
  H   H64       1.0  0.02701161711560462  0.850372010809508  0.27735754067217744  1.0000
  H   H65       1.0  0.9001697323512302  0.520543126518099  0.745073482194485  1.0000
  H   H66       1.0  0.275719231434721  0.15525213028357135  0.7551662660760102  1.0000
  H   H67       1.0  0.09983326072268987  0.4794593213591013  0.2549280373907123  1.0000
  H   H68       1.0  0.7242802976002876  0.8447476329841945  0.24483180363816354  1.0000
  H   H69       1.0  0.3311267304352867  0.0009728890290574224  0.7971012094332437  1.0000
  H   H70       1.0  0.704192765067205  0.5342716845037356  0.703145548899343  1.0000
  H   H71       1.0  0.668876116661437  0.999027337695196  0.20289703184290903  1.0000
  H   H72       1.0  0.29580877479278195  0.4657304005529284  0.2968553038836888  1.0000
  H   H73       1.0  0.3929747997232127  0.9214149644536248  0.7972592282821865  1.0000
  H   H74       1.0  0.624446125245406  0.5959555973747754  0.7029012710246223  1.0000
  H   H75       1.0  0.6070251375656425  0.0785847979059468  0.20274004112003047  1.0000
  H   H76       1.0  0.37555310300198386  0.40404487212651913  0.29709885633132427  1.0000
  H   H77       1.0  0.2860074648579951  0.8129036899852052  0.8690403585608095  1.0000
  H   H78       1.0  0.4440642331205423  0.4171548222788032  0.6309484303230661  1.0000
  H   H79       1.0  0.7139938884405695  0.1870992840775471  0.13096108573301993  1.0000
  H   H80       1.0  0.555937157382253  0.5828453029013047  0.36905150588131624  1.0000
  H   H81       1.0  0.3837630052825818  0.9478550730527643  0.9498016654139293  1.0000
  H   H82       1.0  0.4983566242975924  0.4340991226306271  0.5503120251229774  1.0000
  H   H83       1.0  0.6162373449468602  0.05214879183246511  0.050197971014604555  1.0000
  H   H84       1.0  0.5016445796437807  0.5659018915555762  0.44968850259219556  1.0000
  H   H85       1.0  0.22824651865220588  0.886863029143093  0.009574630581703044  1.0000
  H   H86       1.0  0.3774806137906168  0.2188249131716802  0.49053061028276096  1.0000
  H   H87       1.0  0.7717536437090615  0.11313736003798881  0.9904240682889522  1.0000
  H   H88       1.0  0.622520032539711  0.7811741420461685  0.5094678011657195  1.0000
  H   H89       1.0  0.13831099411611797  0.7633995802865456  0.9073591347094522  1.0000
  H   H90       1.0  0.35624586752887666  0.2310643291614197  0.5927097152191152  1.0000
  H   H91       1.0  0.8616920746730229  0.23660153453561608  0.09264089776554134  1.0000
  H   H92       1.0  0.6437545922400217  0.7689356150625172  0.4072892877401629  1.0000
  H   H93       1.0  0.9066282509531263  0.7516505104268415  0.42010778697049744  1.0000
  H   H94       1.0  0.8316205265606981  0.4867735740924174  0.07999617092412592  1.0000
  H   H95       1.0  0.0933706798866254  0.2483504040315977  0.5798920362968261  1.0000
  H   H96       1.0  0.16837795413423617  0.5132260867230087  0.9200047934063279  1.0000
  H   H97       1.0  0.997638207501822  0.8759394181844367  0.5193363175193396  1.0000
  H   H98       1.0  0.8566874381356726  0.4784902972648196  0.9808211896433862  1.0000
  H   H99       1.0  0.002360612491720845  0.1240610522250591  0.48066261014856343  1.0000
  H   H100      1.0  0.14331275466985  0.5215077655863993  0.019180724598626867  1.0000
  H   H101      1.0  0.07272573320825172  0.9898166866043423  0.8980761350761882  1.0000
  H   H102      1.0  0.5920702649077612  0.1748580361608417  0.6020503644873969  1.0000
  H   H103      1.0  0.9272771105084843  0.010183801396308825  0.10192446793036684  1.0000
  H   H104      1.0  0.4079290005438592  0.8251395844578157  0.3979482547791092  1.0000
  H   H105      1.0  0.16247785306489232  0.9955846980384422  0.0199599773860441  1.0000
  H   H106      1.0  0.47590839538475654  0.14269856926366487  0.4801596923770504  1.0000
  H   H107      1.0  0.837521111599102  0.004413628813750656  0.9800406995222347  1.0000
  H   H108      1.0  0.5240924726379957  0.8573013740520777  0.5198405102702709  1.0000
  H   H109      1.0  0.8973343351481518  0.8989218693407678  0.9107924904422975  1.0000
  H   H110      1.0  0.4883822796789018  0.9867643019604273  0.5893064706849529  1.0000
  H   H111      1.0  0.10266541895926909  0.10107852074850848  0.0892050087403078  1.0000
  H   H112      1.0  0.5116150100787352  0.013232773973328346  0.41069174822231963  1.0000
  H   H113      1.0  0.9872652855254528  0.9032180739991201  0.03148155914512079  1.0000
  H   H114      1.0  0.371801361309288  0.9559746378991959  0.4686916356608961  1.0000
  H   H115      1.0  0.01273405694813338  0.09678257827474115  0.9685171020798435  1.0000
  H   H116      1.0  0.6281956695516939  0.04402439881930312  0.5313063001369827  1.0000
  C   C1        1.0  0.8278193402285295  0.7120446748504249  0.6394390344889517  1.0000
  C   C2        1.0  0.5725881353838105  0.1885159373833502  0.8605809797489529  1.0000
  C   C3        1.0  0.1721804104989034  0.287955976515235  0.36056082642405585  1.0000
  C   C4        1.0  0.42741075694495817  0.8114834612474907  0.13941882253913462  1.0000
  C   C5        1.0  0.8376376821294897  0.7382170729960932  0.5525749072776309  1.0000
  C   C6        1.0  0.6856147554025469  0.285258935098909  0.947518042939457  1.0000
  C   C7        1.0  0.16236210710892612  0.26178509419717233  0.44742497461461284  1.0000
  C   C8        1.0  0.3143847736324616  0.714740828168864  0.05248002677471684  1.0000
  C   C9        1.0  0.03213226875793404  0.5125755383315109  0.7268063898197141  1.0000
  C   C10       1.0  0.28585795651141416  0.3053994463444596  0.773227306476045  1.0000
  C   C11       1.0  0.9678699348725671  0.4874248463085989  0.27319830749115687  1.0000
  C   C12       1.0  0.7141405660744908  0.6946014690221743  0.22677131710323556  1.0000
  C   C13       1.0  0.20203700290178261  0.8744954001364177  0.6088739306242276  1.0000
  C   C14       1.0  0.7658610359408371  0.5934192492403697  0.8913033976469508  1.0000
  C   C15       1.0  0.7979624119070293  0.1255041803587956  0.3911256052209282  1.0000
  C   C16       1.0  0.23414057625438287  0.40658176403763946  0.10869832975627253  1.0000
  C   C17       1.0  0.0777542857686271  0.6165338209205586  0.7111608011715589  1.0000
  C   C18       1.0  0.4054603716007107  0.36672135985519816  0.7888751680467933  1.0000
  C   C19       1.0  0.9222472845356223  0.38346593780623545  0.2888432669828375  1.0000
  C   C20       1.0  0.5945394899729308  0.6332797355594194  0.21112558846563456  1.0000
  C   C21       1.0  0.8025984985888571  0.3361255749574994  0.7768113274736095  1.0000
  C   C22       1.0  0.05945480296828271  0.02581633136871623  0.7233873107053982  1.0000
  C   C23       1.0  0.19739857078310757  0.6638749775885984  0.22318662930349834  1.0000
  C   C24       1.0  0.940546953897396  0.9741825383519821  0.2766161659382007  1.0000
  C   C25       1.0  0.9472192135741507  0.7682376718220566  0.8237402279582399  1.0000
  C   C26       1.0  0.4446405971630938  0.1235682271478992  0.6762321900885411  1.0000
  C   C27       1.0  0.052782474336282796  0.2317620084009064  0.1762600123347724  1.0000
  C   C28       1.0  0.5553593401257614  0.8764315352116724  0.3237670793136758  1.0000
  C   C29       1.0  0.08694559091641442  0.7954178213021734  0.5110832352827188  1.0000
  C   C30       1.0  0.7845253516382299  0.5761443027877249  0.9890566334131565  1.0000
  C   C31       1.0  0.9130549796987  0.20458256697071417  0.4889166632759797  1.0000
  C   C32       1.0  0.21547540553831365  0.42385519647907427  0.010942673634744387  1.0000
  C   C33       1.0  0.08483962032121917  0.4542523958123753  0.726981766943645  1.0000
  C   C34       1.0  0.22726822381710568  0.35790116675419625  0.7729370020867065  1.0000
  C   C35       1.0  0.9151580404860339  0.5457475280958306  0.2730191597411107  1.0000
  C   C36       1.0  0.7727277235728064  0.6420959904079736  0.22706144561781358  1.0000
  C   C37       1.0  0.9575697103215006  0.32301675706997895  0.7618884580527806  1.0000
  C   C38       1.0  0.06113331689155639  0.1956363992393334  0.7379836921566323  1.0000
  C   C39       1.0  0.042424822365454265  0.6769815530992531  0.23810934382880322  1.0000
  C   C40       1.0  0.9388642668937308  0.8043604930136609  0.26201719256966527  1.0000
  C   C41       1.0  0.9412441828894842  0.475336767998776  0.7442170946653379  1.0000
  C   C42       1.0  0.23127524722742987  0.19712363964011795  0.7559126651787623  1.0000
  C   C43       1.0  0.05875358876398446  0.5246635999583731  0.2557847276188383  1.0000
  C   C44       1.0  0.7687230117750872  0.8028751330774139  0.24408650795285072  1.0000
  C   C45       1.0  0.9027238482806228  0.3797807391870053  0.7605468085888847  1.0000
  C   C46       1.0  0.11933532983216844  0.14218272293673814  0.7395192631753319  1.0000
  C   C47       1.0  0.09727314068939556  0.6202170429802791  0.23945346796016054  1.0000
  C   C48       1.0  0.880664379004294  0.8578166738777212  0.26048293848884907  1.0000
  C   C49       1.0  0.050516142794869365  0.3600512097605915  0.746718441117615  1.0000
  C   C50       1.0  0.11326006250723725  0.30373770231769737  0.7531108568187934  1.0000
  C   C51       1.0  0.9494837911139979  0.639948813875371  0.2532831900150043  1.0000
  C   C52       1.0  0.8867387155953352  0.6962615135405839  0.24689041160028322  1.0000
  C   C53       1.0  0.31624877194177964  0.9212410090325348  0.7914881851817981  1.0000
  C   C54       1.0  0.6300292502914572  0.5249945381974965  0.7086811123184231  1.0000
  C   C55       1.0  0.683752618561016  0.07875911614757311  0.20851175102258418  1.0000
  C   C56       1.0  0.36997038958976697  0.4750056691192198  0.29131785299517093  1.0000
  C   C57       1.0  0.3027011958655804  0.8932935729956382  0.876466159789814  1.0000
  C   C58       1.0  0.5170909173020064  0.42643318060824237  0.6236325402271206  1.0000
  C   C59       1.0  0.6972980742727727  0.10670815105687831  0.12353162681495898  1.0000
  C   C60       1.0  0.48290901998685576  0.5735665817513292  0.3763667291750963  1.0000
  C   C61       1.0  0.15845305341424182  0.8449572818926611  0.9293340538447127  1.0000
  C   C62       1.0  0.4158533202149001  0.2292814409428415  0.5707568144634578  1.0000
  C   C63       1.0  0.8415477422732847  0.15504373320173664  0.07066527418241719  1.0000
  C   C64       1.0  0.5841474369616364  0.7707180583239505  0.42924249258445013  1.0000
  C   C65       1.0  0.9792604080609594  0.7947025242988985  0.4989238567847708  1.0000
  C   C66       1.0  0.7958693853557931  0.4805625987015814  0.001196094758604663  1.0000
  C   C67       1.0  0.020739567738886047  0.20529875388827887  0.5010754335966681  1.0000
  C   C68       1.0  0.20413096018691598  0.5194371627497959  0.9988043743316554  1.0000
  C   C69       1.0  0.07418322361232989  0.9479716856479778  0.9517306988886105  1.0000
  C   C70       1.0  0.4965236510303442  0.12263915620396651  0.5483729895471045  1.0000
  C   C71       1.0  0.9258167136765252  0.05202807671159346  0.04826857051360627  1.0000
  C   C72       1.0  0.5034762862585112  0.8773606061556051  0.4516262798551055  1.0000
  C   C73       1.0  0.9863699284629774  0.9445871089059776  0.9780647619143326  1.0000
  C   C74       1.0  0.4666525283337251  0.008431089478001797  0.5220126758480745  1.0000
  C   C75       1.0  0.013629303164392995  0.05541309931893319  0.0219330037112115  1.0000
  C   C76       1.0  0.5333466647826695  0.9915676029193038  0.4779850687982403  1.0000
  N   N1        1.0  0.2079155936465041  0.8462124510599833  0.6957608727555923  1.0000
  N   N2        1.0  0.650656785458459  0.5123804887555324  0.804352972177256  1.0000
  N   N3        1.0  0.7920840077237372  0.15378624042913458  0.30423807157876587  1.0000
  N   N4        1.0  0.3493435985952331  0.4876207885234507  0.19564751789223325  1.0000
  N   N5        1.0  0.9342776372731618  0.7938122529916709  0.7335072684611035  1.0000
  N   N6        1.0  0.5604250033584677  0.20091012874578226  0.766593072149398  1.0000
  N   N7        1.0  0.06572125505560682  0.20618714563916998  0.2664925338269839  1.0000
  N   N8        1.0  0.4395744499613272  0.7990909675770297  0.23340648467497982  1.0000
  N   N9        1.0  0.9449326687854553  0.7473424861209422  0.5643275966785738  1.0000
  N   N10       1.0  0.683051286772134  0.38081214470329894  0.9357317456318982  1.0000
  N   N11       1.0  0.055065853800449795  0.25265842924569876  0.4356710269007067  1.0000
  N   N12       1.0  0.3169486505167214  0.6191876176562728  0.06426752377031879  1.0000
  N   N13       1.0  0.20045207354240804  0.8939201218833475  0.8671893330141175  1.0000
  N   N14       1.0  0.5269760369644203  0.3334594351951878  0.6329574522104906  1.0000
  N   N15       1.0  0.7995494663175792  0.10608196317330953  0.1328115197689144  1.0000
  N   N16       1.0  0.473023861813452  0.6665388113367854  0.3670417962124972  1.0000
  N   N17       1.0  0.056267534587512054  0.8438444208860146  0.9156040472786273  1.0000
  N   N18       1.0  0.4285106839897566  0.1408432396658198  0.584461398163768  1.0000
  N   N19       1.0  0.9437333334352402  0.15615552242972788  0.08439615536869374  1.0000
  N   N20       1.0  0.5714905199516096  0.8591577745203833  0.4155391295514051  1.0000
  O   O1        1.0  0.7601802055702651  0.3947619201101277  0.7806336630680094  1.0000
  O   O2        1.0  0.11421104168989156  0.9795285405606364  0.719555468729645  1.0000
  O   O3        1.0  0.23981950326619725  0.6052374767043246  0.21936853859617134  1.0000
  O   O4        1.0  0.8857898263328535  0.020471402755106255  0.28044473391767616  1.0000
  O   O5        1.0  0.030671374024400892  0.6694717512043197  0.7190926530331866  1.0000
  O   O6        1.0  0.45046498597493934  0.31171007191116484  0.7809360896593064  1.0000
  O   O7        1.0  0.9693294588673566  0.3305264150074334  0.28090516690450335  1.0000
  O   O8        1.0  0.5495326782123015  0.6882895907206432  0.2190624752950541  1.0000
  O   O9        1.0  0.7673475555385353  0.24581415705083726  0.7840705537672007  1.0000
  O   O10       1.0  0.9618985487956451  0.9833584714566965  0.7161804678484744  1.0000
  O   O11       1.0  0.2326431839508628  0.7541798750857254  0.21591874971469593  1.0000
  O   O12       1.0  0.03810231246713161  0.01664199441182746  0.2838244582596516  1.0000
  O   O13       1.0  0.15841435019581243  0.6448324266381815  0.6938111433198628  1.0000
  O   O14       1.0  0.4511161166902297  0.46474743896795445  0.806212674780447  1.0000
  O   O15       1.0  0.8415960853692682  0.3551717301647769  0.3062002039565925  1.0000
  O   O16       1.0  0.5488832913586136  0.5352526640800335  0.19379158452551348  1.0000
