data_image0
_chemical_formula_structural       Cd8H36C52N4O24
_chemical_formula_sum              "Cd8 H36 C52 N4 O24"
_cell_length_a       3.816729979
_cell_length_b       15.575592028878521
_cell_length_c       21.586
_cell_angle_alpha    102.00033593155722
_cell_angle_beta     90.0
_cell_angle_gamma    90.0

_space_group_name_H-M_alt    "P 1"
_space_group_IT_number       1

loop_
  _space_group_symop_operation_xyz
  'x, y, z'

loop_
  _atom_site_type_symbol
  _atom_site_label
  _atom_site_symmetry_multiplicity
  _atom_site_fract_x
  _atom_site_fract_y
  _atom_site_fract_z
  _atom_site_occupancy
  Cd  Cd1       1.0  0.3857228591229074  0.4605844269316038  0.6816832043824306  1.0000
  Cd  Cd2       1.0  0.8857215518520147  0.5394156396247569  0.8183166666237158  1.0000
  Cd  Cd3       1.0  0.614271906291435  0.5394149832504314  0.3183161048880124  1.0000
  Cd  Cd4       1.0  0.1142758336062002  0.4605863960545734  0.1816839630630867  1.0000
  Cd  Cd5       1.0  0.03384310671981439  0.6422970639255539  0.46504996649716906  1.0000
  Cd  Cd6       1.0  0.5338417994489217  0.3577003771335044  0.0349485840926107  1.0000
  Cd  Cd7       1.0  0.9661595188261527  0.3576990643848603  0.5349488504108848  1.0000
  Cd  Cd8       1.0  0.4661608260970452  0.6423010021715001  0.965051947121708  1.0000
  H   H1        1.0  0.7946645470567615  0.7144877375822534  0.7147949377111403  1.0000
  H   H2        1.0  0.29466585432765396  0.28550970347680504  0.7852026863521857  1.0000
  H   H3        1.0  0.2053433185769507  0.28550970347680504  0.2852031496154127  1.0000
  H   H4        1.0  0.7053472513938104  0.7144943013254947  0.21479777548881882  1.0000
  H   H5        1.0  0.5705590942984529  0.8678102159379224  0.7247164232498521  1.0000
  H   H6        1.0  0.0705656416570903  0.132185912372492  0.7752814671317482  1.0000
  H   H7        1.0  0.4294356711158898  0.13218525599816647  0.2752809053960378  1.0000
  H   H8        1.0  0.9294186435817549  0.8678226870500794  0.2247201472798324  1.0000
  H   H9        1.0  0.693798097997437  0.8333873208872548  0.5218313877185281  1.0000
  H   H10       1.0  0.1938020253122019  0.16661208929477317  0.9781674582886808  1.0000
  H   H11       1.0  0.3062176277679  0.1666127456690987  0.478168483287611  1.0000
  H   H12       1.0  0.8062346608041222  0.8333906027588753  0.021831416817690318  1.0000
  H   H13       1.0  0.7468068256551914  0.0098338001229692  0.7165290531904418  1.0000
  H   H14       1.0  0.24681075296995655  0.9901656100590657  0.7834721091329016  1.0000
  H   H15       1.0  0.2531617393204115  0.990159702690143  0.2834758555128687  1.0000
  H   H16       1.0  0.7531682921811438  0.009837081994589903  0.2165263027102426  1.0000
  H   H17       1.0  0.5990546914715367  0.16512605782511974  0.7134638346764106  1.0000
  H   H18       1.0  0.0990481386108044  0.834874008731241  0.786535109803282  1.0000
  H   H19       1.0  0.4008745728459644  0.8348681013623251  0.2865444153419574  1.0000
  H   H20       1.0  0.9009544869351629  0.1651273705737637  0.21346495814781724  1.0000
  H   H21       1.0  0.090197630404603  0.0795650391874432  0.535055423274855  1.0000
  H   H22       1.0  0.5901779828265886  0.9204330582459406  0.9649422992609473  1.0000
  H   H23       1.0  0.909799755053619  0.9204310891229712  0.4649443201596455  1.0000
  H   H24       1.0  0.4098063024122566  0.0795683210590639  0.0350568421636979  1.0000
  H   H25       1.0  0.2531512591449143  0.925314514093927  0.5349084016991911  1.0000
  H   H26       1.0  0.7531420917424043  0.07468292696513153  0.9650910754170354  1.0000
  H   H27       1.0  0.7468644666204225  0.07468030146783633  0.46508929173744923  1.0000
  H   H28       1.0  0.24686053380356293  0.9253177959655476  0.034910283851260694  1.0000
  H   H29       1.0  0.4386398852450739  0.4787193931308735  0.5613496060100331  1.0000
  H   H30       1.0  0.9386385779741813  0.5212806734254798  0.9386493384696593  1.0000
  H   H31       1.0  0.5613601202570138  0.5212800170511542  0.43864785020750224  1.0000
  H   H32       1.0  0.06135880748403369  0.4787213622538503  0.061351754480369926  1.0000
  H   H33       1.0  0.8856324703603062  0.3667268368378913  0.7237539033312714  1.0000
  H   H34       1.0  0.3856363976750714  0.6332725733441436  0.7762454059391715  1.0000
  H   H35       1.0  0.11435705496629107  0.6332732297184622  0.2762450411484211  1.0000
  H   H36       1.0  0.6143662278708959  0.366727493212217  0.2237535385405209  1.0000
  C   C1        1.0  0.03558543589598879  0.6066887568456494  0.6059896839457508  1.0000
  C   C2        1.0  0.5355893687128412  0.3933106533363855  0.8940054559556502  1.0000
  C   C3        1.0  0.9644329099132205  0.39331459158232474  0.39400419373761514  1.0000
  C   C4        1.0  0.4644211169647433  0.6066926950915958  0.10599444414965122  1.0000
  C   C5        1.0  0.8713558512911488  0.696487984493736  0.6138785536477303  1.0000
  C   C6        1.0  0.371365018693666  0.3035107693139737  0.8861197306237756  1.0000
  C   C7        1.0  0.1286546343864359  0.3035140511855943  0.3861220760390651  1.0000
  C   C8        1.0  0.6286821475981625  0.6964873281194102  0.1138803082281612  1.0000
  C   C9        1.0  0.7685243693263644  0.7439129985295736  0.6733528851671978  1.0000
  C   C10       1.0  0.2685387768166264  0.2560850989038101  0.8266462271582853  1.0000
  C   C11       1.0  0.2314703960879783  0.2560857552781357  0.3266463256307617  1.0000
  C   C12       1.0  0.7314743289048378  0.743919562272815  0.1733547964184226  1.0000
  C   C13       1.0  0.6437762203559882  0.8291084166687528  0.6784710170273129  1.0000
  C   C14       1.0  0.1437801476707534  0.1708896807646312  0.821528558561397  1.0000
  C   C15       1.0  0.3562290252338514  0.1708896807646312  0.3215280952981701  1.0000
  C   C16       1.0  0.8562303380068386  0.8291156367863195  0.1784721002245604  1.0000
  C   C17       1.0  0.6142981067301745  0.8651729039038758  0.624353189261548  1.0000
  C   C18       1.0  0.1142889338255699  0.13482519352950825  0.8756468495903891  1.0000
  C   C19       1.0  0.38570975890353754  0.1348245371551897  0.3756462878546856  1.0000
  C   C20       1.0  0.885708451632645  0.8651781548984661  0.12435490356782  1.0000
  C   C21       1.0  0.7101917125167387  0.8110167711748631  0.5663284869541912  1.0000
  C   C22       1.0  0.2101956398315039  0.1889832953814903  0.9336699942622674  1.0000
  C   C23       1.0  0.2898187731608459  0.1889832953814903  0.4336704575254942  1.0000
  C   C24       1.0  0.7898410462848204  0.8110180839235144  0.06632914716237084  1.0000
  C   C25       1.0  0.5056055866193603  0.9562901311946634  0.6261741565642396  1.0000
  C   C26       1.0  0.005591173627010398  0.0437092789873716  0.8738256159694231  1.0000
  C   C27       1.0  0.4943839387072372  0.0437079662387276  0.3738291251302783  1.0000
  C   C28       1.0  0.9944062118312118  0.9562927566919583  0.1261740871909183  1.0000
  C   C29       1.0  0.5966075704932619  0.02475909587762  0.6770703591298357  1.0000
  C   C30       1.0  0.09660363767640938  0.9752416270530591  0.8229300736120067  1.0000
  C   C31       1.0  0.4033452742190988  0.9752330941868481  0.3229343526285149  1.0000
  C   C32       1.0  0.9033858876501879  0.0247630341235663  0.1770709499647012  1.0000
  C   C33       1.0  0.5161774636507488  0.11147861519724962  0.6755015506422453  1.0000
  C   C34       1.0  0.0161656707022715  0.8885221077334295  0.8244974923099165  1.0000
  C   C35       1.0  0.48381730176359367  0.8885188258618086  0.3245007060533426  1.0000
  C   C36       1.0  0.9838264746681986  0.11148255344319583  0.17550214147711074  1.0000
  C   C37       1.0  0.3332774408980512  0.1321708157630397  0.6242966209620704  1.0000
  C   C38       1.0  0.8332525532322989  0.867829250793321  0.8757004704647146  1.0000
  C   C39       1.0  0.6666911240775517  0.8678246561730492  0.37570950968512323  1.0000
  C   C40       1.0  0.1667395921381711  0.1321734412603348  0.12429840464165662  1.0000
  C   C41       1.0  0.24280994597443584  0.22625551137286956  0.6226389428094024  1.0000
  C   C42       1.0  0.7428007785719257  0.7737419296861889  0.8773572914642429  1.0000
  C   C43       1.0  0.7571664791327917  0.7737393041888936  0.37736384652272653  1.0000
  C   C44       1.0  0.2571861267107991  0.2262581368701646  0.12263933669931501  1.0000
  C   C45       1.0  0.23809386700132504  0.0638389667574444  0.5742021899374167  1.0000
  C   C46       1.0  0.7380663592916932  0.9361597870502649  0.9257956310708623  1.0000
  C   C47       1.0  0.7618956583252724  0.9361597870502649  0.4258016534928046  1.0000
  C   C48       1.0  0.26191268585940713  0.06384290500339061  0.0742018542458283  1.0000
  C   C49       1.0  0.32658060875623807  0.9775822578926352  0.5746177408738546  1.0000
  C   C50       1.0  0.826566201265976  0.0224171522893997  0.9253811051333544  1.0000
  C   C51       1.0  0.6734298769213538  0.0224158395407486  0.42538137145162846  1.0000
  C   C52       1.0  0.1734390443238638  0.9775855397642561  0.07461823323624371  1.0000
  N   N1        1.0  0.8404209932714222  0.7303221117757206  0.5615816801951539  1.0000
  N   N2        1.0  0.3404249205861872  0.2696759856576635  0.9384169688671022  1.0000
  N   N3        1.0  0.1595999725816597  0.2696772984063074  0.43841809233850887  1.0000
  N   N4        1.0  0.6596039053985192  0.7303253936473413  0.061584488873670316  1.0000
  O   O1        1.0  0.1903985883199439  0.5755897413719924  0.5536111885147577  1.0000
  O   O2        1.0  0.6904156213561661  0.4244063869384221  0.9463857753403887  1.0000
  O   O3        1.0  0.8096197574892654  0.42440966881004283  0.446389047282139  1.0000
  O   O4        1.0  0.3096367850234002  0.5755923668692873  0.053608339562082094  1.0000
  O   O5        1.0  0.0125866907704548  0.5702547308660826  0.6528575938043986  1.0000
  O   O6        1.0  0.5125749033240652  0.4297446793159452  0.8471407889395834  1.0000
  O   O7        1.0  0.9874211748632575  0.42974205381865  0.3471390052599972  1.0000
  O   O8        1.0  0.4873989017392829  0.5702645764809446  0.1528613872076932  1.0000
  O   O9        1.0  0.3422510911663322  0.2857991645537085  0.6679612984832702  1.0000
  O   O10       1.0  0.84223668367607  0.7142002456283196  0.8320366209974922  1.0000
  O   O11       1.0  0.6577462942918897  0.7141963073823732  0.3320420525845692  1.0000
  O   O12       1.0  0.1577528416505274  0.285801133676685  0.16795927758457202  1.0000
  O   O13       1.0  0.06807397993296857  0.23601645394587226  0.5735812293647342  1.0000
  O   O14       1.0  0.5680674325743311  0.7639796743645422  0.926416197753639  1.0000
  O   O15       1.0  0.9319338857007438  0.763980987113186  0.42641963754118  1.0000
  O   O16       1.0  0.4319509132348784  0.2360184230688418  0.07358245130861721  1.0000
  O   O17       1.0  0.4726768752115618  0.4216135141895735  0.5741012139373468  1.0000
  O   O18       1.0  0.9726755679406692  0.5783872087411055  0.9258987555412759  1.0000
  O   O19       1.0  0.5273231302905328  0.5783852396181361  0.4258975335973859  1.0000
  O   O20       1.0  0.027324437561425392  0.42161482693821745  0.0741018741455264  1.0000
  O   O21       1.0  0.8835600156560088  0.4293882680579841  0.7243837141964633  1.0000
  O   O22       1.0  0.3835665630146465  0.5706111421240438  0.7756160583371995  1.0000
  O   O23       1.0  0.11642426958283637  0.5706131112470205  0.2756163537546286  1.0000
  O   O24       1.0  0.6164360625313205  0.4293889244323097  0.2243833494057199  1.0000
