data_image0
_chemical_formula_structural       Nd4H40C36S12N12O32
_chemical_formula_sum              "Nd4 H40 C36 S12 N12 O32"
_cell_length_a       8.705988981154265
_cell_length_b       13.19524248374657
_cell_length_c       14.403061760009843
_cell_angle_alpha    90.00009775038387
_cell_angle_beta     89.99990191955834
_cell_angle_gamma    94.1028903579531

_space_group_name_H-M_alt    "P 1"
_space_group_IT_number       1

loop_
  _space_group_symop_operation_xyz
  'x, y, z'

loop_
  _atom_site_type_symbol
  _atom_site_label
  _atom_site_symmetry_multiplicity
  _atom_site_fract_x
  _atom_site_fract_y
  _atom_site_fract_z
  _atom_site_occupancy
  Nd  Nd1       1.0  0.24938613704404847  0.4983861441350185  0.5009430552408604  1.0000
  Nd  Nd2       1.0  0.2506133031873575  0.0016141569650187997  0.0009427271684714002  1.0000
  Nd  Nd3       1.0  0.7506148197140805  0.5016121843821679  0.49905778353732444  1.0000
  Nd  Nd4       1.0  0.7493844331822856  0.9983864374929323  0.9990567230195072  1.0000
  H   H1        1.0  0.245218256934713  0.3792497170168048  0.8307783894240331  1.0000
  H   H2        1.0  0.2547813812767004  0.12075040117759532  0.3307775491171868  1.0000
  H   H3        1.0  0.7547793281585344  0.6207493578781964  0.1692245322469432  1.0000
  H   H4        1.0  0.7452188045634005  0.8792517217843001  0.6692219010707208  1.0000
  H   H5        1.0  0.09258944168772132  0.46173660119478654  0.8242715827998239  1.0000
  H   H6        1.0  0.40741143853036027  0.03826426995917839  0.3242704561189386  1.0000
  H   H7        1.0  0.9074082946800816  0.5382639932643656  0.1757292559817998  1.0000
  H   H8        1.0  0.5925885960388798  0.9617363334361498  0.6757282997710377  1.0000
  H   H9        1.0  0.6263469527468929  0.7939411645721182  0.16888730564934212  1.0000
  H   H10       1.0  0.873650183038528  0.7060614296047731  0.6688877426436194  1.0000
  H   H11       1.0  0.37364848542500073  0.2060594209472484  0.8311114502429933  1.0000
  H   H12       1.0  0.12635100062912133  0.2939391782601462  0.33111170754258984  1.0000
  H   H13       1.0  0.580120496511107  0.7179468449964759  0.07011313272717963  1.0000
  H   H14       1.0  0.919877823645578  0.7820533028822609  0.5701115580481615  1.0000
  H   H15       1.0  0.4198772398585362  0.2820537494614754  0.9298863174607989  1.0000
  H   H16       1.0  0.08012428221556431  0.2179450301015109  0.4298865035421502  1.0000
  H   H17       1.0  0.8581593892231469  0.2611490519061022  0.04950867966483941  1.0000
  H   H18       1.0  0.6418402374634269  0.2388526367716182  0.5495094069257861  1.0000
  H   H19       1.0  0.14184294354659946  0.7388515604260063  0.9504886876303191  1.0000
  H   H20       1.0  0.35816102183827786  0.7611487308774939  0.4504914318546299  1.0000
  H   H21       1.0  0.998735442918246  0.33194246251493104  0.9796435341203422  1.0000
  H   H22       1.0  0.5012664137232008  0.16805922625751177  0.47964233486597874  1.0000
  H   H23       1.0  0.0012681145839649986  0.6680589140709543  0.02035591606524891  1.0000
  H   H24       1.0  0.4987358434069692  0.8319406262940207  0.5203578096159093  1.0000
  H   H25       1.0  0.23082773544621205  0.6447311084276139  0.3254367458347148  1.0000
  H   H26       1.0  0.2691708920094555  0.8552697032904888  0.8254354410467002  1.0000
  H   H27       1.0  0.7691734482186732  0.3552694994391174  0.6745647872419627  1.0000
  H   H28       1.0  0.7308268443611112  0.1447308911668586  0.1745633148444554  1.0000
  H   H29       1.0  0.06098014252609827  0.614355579678168  0.3598843464237832  1.0000
  H   H30       1.0  0.43901939132278767  0.8856437767245353  0.8598829140546016  1.0000
  H   H31       1.0  0.9390220389672523  0.3856435130909901  0.6401164923543732  1.0000
  H   H32       1.0  0.5609783450477793  0.11435681773281198  0.140115841836554  1.0000
  H   H33       1.0  0.290148828845517  0.4650867227444094  0.28161533656695076  1.0000
  H   H34       1.0  0.20984871729629623  0.0349140609759715  0.7816149804102467  1.0000
  H   H35       1.0  0.709851205720959  0.5349138806527236  0.7183855022134937  1.0000
  H   H36       1.0  0.7901467208737571  0.9650865245445958  0.2183851640757268  1.0000
  H   H37       1.0  0.4486034451046592  0.4553838416667304  0.3316879340706934  1.0000
  H   H38       1.0  0.0513951172282177  0.0446170334206997  0.8316877564408571  1.0000
  H   H39       1.0  0.551397889833858  0.5446182857647629  0.668312210413454  1.0000
  H   H40       1.0  0.9486013187703013  0.9553820370023018  0.1683116937465954  1.0000
  C   C1        1.0  0.2946200001192736  0.5315531536904173  0.975070025714267  1.0000
  C   C2        1.0  0.205381677461304  0.9684479311142765  0.47506908592276903  1.0000
  C   C3        1.0  0.7053798831744872  0.46844593014135677  0.024931507361884504  1.0000
  C   C4        1.0  0.7946184327438246  0.0315534320640367  0.5249296699677687  1.0000
  C   C5        1.0  0.34144376502187157  0.5834184866434738  0.12214930871272862  1.0000
  C   C6        1.0  0.1585567023918273  0.9165834963170099  0.6221482138661687  1.0000
  C   C7        1.0  0.6585572673730696  0.4165806016560937  0.877850835769195  1.0000
  C   C8        1.0  0.84144463254853  0.08341863111327538  0.3778505420243335  1.0000
  C   C9        1.0  0.17830048759267925  0.4453605504562431  0.09380114560335072  1.0000
  C   C10       1.0  0.32169985526436323  0.054639916262154  0.5938007049980812  1.0000
  C   C11       1.0  0.8217005448022621  0.5546385378433172  0.9061989988785728  1.0000
  C   C12       1.0  0.6783001036671338  0.9453599273514045  0.4061994394849863  1.0000
  C   C13       1.0  0.21322053824157902  0.4535726251607528  0.8059087519004251  1.0000
  C   C14       1.0  0.28678146418034345  0.04642745881178459  0.30590776234647893  1.0000
  C   C15       1.0  0.7867770468544323  0.5464264497324365  0.19409208688008314  1.0000
  C   C16       1.0  0.713220868586646  0.9535731535221288  0.6940916878391478  1.0000
  C   C17       1.0  0.23311134246770146  0.4594744118710352  0.7017572800688046  1.0000
  C   C18       1.0  0.2668885625686599  0.040524722632724795  0.20175699608541464  1.0000
  C   C19       1.0  0.7668872404549348  0.5405231479257893  0.2982442530068283  1.0000
  C   C20       1.0  0.7331113207269412  0.9594743611978487  0.7982431483970985  1.0000
  C   C21       1.0  0.5303331633614122  0.757789720308793  0.1286972610542918  1.0000
  C   C22       1.0  0.9696639278308228  0.7422112845535622  0.6286962670237913  1.0000
  C   C23       1.0  0.46966334827300227  0.24221010989718642  0.871302189133722  1.0000
  C   C24       1.0  0.030337104565958797  0.2577878037447974  0.3713024888644868  1.0000
  C   C25       1.0  0.4330128269996011  0.8383453615729619  0.08884681955798612  1.0000
  C   C26       1.0  0.0669806829389543  0.6616550172147484  0.5888475032324791  1.0000
  C   C27       1.0  0.5669813864361403  0.16165445969502906  0.9111526306312002  1.0000
  C   C28       1.0  0.9330215741902919  0.3383448353373949  0.4111533355462313  1.0000
  C   C29       1.0  0.9814475126332172  0.2807949861446489  0.039553109358408306  1.0000
  C   C30       1.0  0.5185532895786197  0.2192066897242739  0.539553238687475  1.0000
  C   C31       1.0  0.018555969234021984  0.7192056306576617  0.9604456465298058  1.0000
  C   C32       1.0  0.4814467449878563  0.7807939136728664  0.46044760009296953  1.0000
  C   C33       1.0  0.06877018875619001  0.18667337514973067  0.0232180905628283  1.0000
  C   C34       1.0  0.4312304170845067  0.3133277288599812  0.5232186359924499  1.0000
  C   C35       1.0  0.9312275476152935  0.8133272193070126  0.9767799710315049  1.0000
  C   C36       1.0  0.568771915681559  0.6866728834745359  0.4767815084899923  1.0000
  S   S1        1.0  0.33567909354280806  0.5536406975119306  0.8588280707810301  1.0000
  S   S2        1.0  0.16432174348022238  0.9463601810930626  0.3588271387668343  1.0000
  S   S3        1.0  0.66431964065346  0.44635838184964877  0.1411720737020659  1.0000
  S   S4        1.0  0.835678442360802  0.053641941868235676  0.6411716171242575  1.0000
  S   S5        1.0  0.43100221043702197  0.665841021418011  0.20347995098360636  1.0000
  S   S6        1.0  0.06899566726570332  0.8341603339657767  0.7034788195334586  1.0000
  S   S7        1.0  0.5689965993951419  0.33415881772655337  0.7965201935000438  1.0000
  S   S8        1.0  0.931004367302613  0.1658402694301628  0.2965206306533403  1.0000
  S   S9        1.0  0.0505417039202385  0.3511982430063227  0.1403919260168891  1.0000
  S   S10       1.0  0.4494585152696473  0.1488023045681075  0.640392195296535  1.0000
  S   S11       1.0  0.9494581793762861  0.6488008408236469  0.8596075241688013  1.0000
  S   S12       1.0  0.5505425927602661  0.8511975435150418  0.3596086434827654  1.0000
  N   N1        1.0  0.3698339831084568  0.5988796093867137  0.0322357848954553  1.0000
  N   N2        1.0  0.1301654982280738  0.9011214532824496  0.5322346951308605  1.0000
  N   N3        1.0  0.630164675450999  0.40111871019248463  0.9677650538839091  1.0000
  N   N4        1.0  0.8698334628767981  0.09887990542747363  0.4677647550570896  1.0000
  N   N5        1.0  0.24825914207055894  0.5069758375848535  0.15833327010651746  1.0000
  N   N6        1.0  0.2517398532927686  0.9930239243527409  0.658332198771177  1.0000
  N   N7        1.0  0.75174181468757  0.49302249093233286  0.8416675686716744  1.0000
  N   N8        1.0  0.7482590321762146  0.0069766745741973  0.3416672514162116  1.0000
  N   N9        1.0  0.1957922083721542  0.4542324920238557  0.0017214161669799005  1.0000
  N   N10       1.0  0.3042096036270224  0.045768579148457916  0.5017216740123801  1.0000
  N   N11       1.0  0.804207826196155  0.5457681113720767  0.9982780340198192  1.0000
  N   N12       1.0  0.6957905065771826  0.9542327840304593  0.4982777761749731  1.0000
  O   O1        1.0  0.357517186080301  0.4986670778810519  0.6664696106445831  1.0000
  O   O2        1.0  0.14248403735457774  0.0013327596357725997  0.16647008789970397  1.0000
  O   O3        1.0  0.6424801721071062  0.5013297176637934  0.3335319224310852  1.0000
  O   O4        1.0  0.8575183710464601  0.9986686124823336  0.8335307508801223  1.0000
  O   O5        1.0  0.1225024384362641  0.42521200611914617  0.650540422354972  1.0000
  O   O6        1.0  0.37749767818132096  0.0747877992838539  0.1505400779411659  1.0000
  O   O7        1.0  0.877495690672852  0.5747809949785818  0.3494597221236901  1.0000
  O   O8        1.0  0.6225035054872521  0.9252128085804684  0.8494586779482279  1.0000
  O   O9        1.0  0.5084390348152042  0.9151434987355671  0.05100627537961341  1.0000
  O   O10       1.0  0.9915604095144418  0.5848558606742884  0.551009178416294  1.0000
  O   O11       1.0  0.4915595481148075  0.0848540610564328  0.948989703321452  1.0000
  O   O12       1.0  0.008441771977992089  0.4151432320954669  0.4489923546586781  1.0000
  O   O13       1.0  0.28877157463581676  0.8310864592895302  0.09110057571181333  1.0000
  O   O14       1.0  0.21122882391492942  0.6689139502244715  0.5911025106340234  1.0000
  O   O15       1.0  0.7112274621031034  0.1689156592045791  0.9089002630703292  1.0000
  O   O16       1.0  0.7887733575775046  0.3310851425452909  0.4088990224409558  1.0000
  O   O17       1.0  0.21341121472895005  0.19312497508295934  0.0192202599558939  1.0000
  O   O18       1.0  0.2865882526236944  0.3068761175198986  0.5192209444034432  1.0000
  O   O19       1.0  0.7865945653351221  0.806875650658533  0.9807798845247861  1.0000
  O   O20       1.0  0.7134081833720601  0.6931229529049078  0.4807805886744846  1.0000
  O   O21       1.0  0.9907431450391899  0.10090441551865577  0.013587651339150901  1.0000
  O   O22       1.0  0.509256425721432  0.3990956912541179  0.5135880716443779  1.0000
  O   O23       1.0  0.009260412461188085  0.8990969610684373  0.9864131874400857  1.0000
  O   O24       1.0  0.4907434575723358  0.6009033925776636  0.4864134614317806  1.0000
  O   O25       1.0  0.17011281965080371  0.6271999493782588  0.3808492870400499  1.0000
  O   O26       1.0  0.3298855850862239  0.8728001987224729  0.8808486413810713  1.0000
  O   O27       1.0  0.8298871392797765  0.3727998942358965  0.619151551739833  1.0000
  O   O28       1.0  0.6701109265481907  0.1271996314835064  0.11915080880694262  1.0000
  O   O29       1.0  0.33594928457804946  0.443177444178957  0.3408436747761598  1.0000
  O   O30       1.0  0.16404925345281643  0.05682344679760829  0.8408434001059535  1.0000
  O   O31       1.0  0.6640529725521204  0.5568224083725825  0.6591564697057282  1.0000
  O   O32       1.0  0.8359461090822577  0.9431763789393841  0.15915605008264322  1.0000
