data_image0
_chemical_formula_structural       Zr12H44C96Cl12O64
_chemical_formula_sum              "Zr12 H44 C96 Cl12 O64"
_cell_length_a       14.77040695516885
_cell_length_b       14.781970107173041
_cell_length_c       20.949465306459985
_cell_angle_alpha    90.00016996732269
_cell_angle_beta     90.00912453851085
_cell_angle_gamma    90.02129981910085

_space_group_name_H-M_alt    "P 1"
_space_group_IT_number       1

loop_
  _space_group_symop_operation_xyz
  'x, y, z'

loop_
  _atom_site_type_symbol
  _atom_site_label
  _atom_site_symmetry_multiplicity
  _atom_site_fract_x
  _atom_site_fract_y
  _atom_site_fract_z
  _atom_site_occupancy
  Zr  Zr1       1.0  0.381134980278894  0.38059906099584867  0.5054723733001438  1.0000
  Zr  Zr2       1.0  0.6199396895577749  0.620036403792348  0.4965063056862888  1.0000
  Zr  Zr3       1.0  0.5048724103828306  0.504474548950583  0.6205134014894257  1.0000
  Zr  Zr4       1.0  0.495697042041229  0.49552152893519263  0.3811592741216003  1.0000
  Zr  Zr5       1.0  0.38148225239268635  0.6199582821480903  0.500640997536806  1.0000
  Zr  Zr6       1.0  0.6207164232014364  0.381799026743316  0.5007028845551886  1.0000
  Zr  Zr7       1.0  0.12095346856253292  0.8812893248832199  0.0008487139778239  1.0000
  Zr  Zr8       1.0  0.8775189666216151  0.11662925750202655  0.0009921154185335002  1.0000
  Zr  Zr9       1.0  0.11725971886426122  0.12099145813174773  0.0008530215473215001  1.0000
  Zr  Zr10      1.0  0.8822420226973479  0.8778412678068935  0.001445157420612  1.0000
  Zr  Zr11      1.0  0.0001636424107616  0.9998548676866507  0.1204279171611731  1.0000
  Zr  Zr12      1.0  0.9994901048324394  0.9992155992132725  0.8816399560985885  1.0000
  H   H1        1.0  0.31474278458937727  0.5030868470978123  0.5976897347971217  1.0000
  H   H2        1.0  0.49666364302483856  0.6848097925928373  0.4034569781034136  1.0000
  H   H3        1.0  0.6927148620727124  0.5038349135106586  0.5912363239281646  1.0000
  H   H4        1.0  0.497784064790281  0.30917604685895844  0.40991841757409025  1.0000
  H   H5        1.0  0.18875148969740957  0.003134331836349701  0.0944936781978996  1.0000
  H   H6        1.0  0.8120215353367755  0.9970446173737033  0.0958179644620003  1.0000
  H   H7        1.0  0.9960704831489977  0.1870803644477235  0.9064324511187108  1.0000
  H   H8        1.0  0.0019424302324964  0.8106521699416194  0.9074665392357916  1.0000
  H   H9        1.0  0.08085082587720652  0.35588484711799856  0.5047571463689664  1.0000
  H   H10       1.0  0.09248709491318859  0.6426078541790974  0.4717476878916216  1.0000
  H   H11       1.0  0.9110414517955902  0.3634284961691138  0.500217002783181  1.0000
  H   H12       1.0  0.3582850307876484  0.08107049993656547  0.5232278172833063  1.0000
  H   H13       1.0  0.6429501300522206  0.09187490697787129  0.4810317508220976  1.0000
  H   H14       1.0  0.3648841483738252  0.9113081524983643  0.5180522481017533  1.0000
  H   H15       1.0  0.7077987306389204  0.27109398469834645  0.8634214586704588  1.0000
  H   H16       1.0  0.8586318615887762  0.12219498876626031  0.7229483911129293  1.0000
  H   H17       1.0  0.6304790238756793  0.356239920780638  0.7750908413032533  1.0000
  H   H18       1.0  0.2792241187632527  0.714970444036098  0.1379086682130648  1.0000
  H   H19       1.0  0.124876509120682  0.8601318019222861  0.2783734201096735  1.0000
  H   H20       1.0  0.35689589360342205  0.6299111652790546  0.22620971039924598  1.0000
  H   H21       1.0  0.2897215219868913  0.7261795922658437  0.8632432959784496  1.0000
  H   H22       1.0  0.1375171795222698  0.8734439452374404  0.7226866771846474  1.0000
  H   H23       1.0  0.37302015787961557  0.6468299381033874  0.7749315595130072  1.0000
  H   H24       1.0  0.7343018369749003  0.29708634862492295  0.1383247493978743  1.0000
  H   H25       1.0  0.8686809064132958  0.13299277962603645  0.2786960984061793  1.0000
  H   H26       1.0  0.650827197088546  0.3766673326341064  0.22646511145153878  1.0000
  H   H27       1.0  0.8700000222775442  0.8486493461439437  0.283667875010714  1.0000
  H   H28       1.0  0.7272894000906831  0.7183441734356965  0.1302042697885426  1.0000
  H   H29       1.0  0.7777983926665686  0.7590326976946643  0.3619314363604644  1.0000
  H   H30       1.0  0.1489947064525055  0.1318696694562789  0.7193943956121487  1.0000
  H   H31       1.0  0.28266010048301377  0.2730384231050139  0.8719376710645079  1.0000
  H   H32       1.0  0.24046704297614238  0.22116146103152806  0.6404935452409717  1.0000
  H   H33       1.0  0.7063397964791421  0.7274151660343977  0.8620084171732217  1.0000
  H   H34       1.0  0.8668694436256388  0.8721249907050466  0.7245787378289563  1.0000
  H   H35       1.0  0.626120232633774  0.6490316099094784  0.771923257375427  1.0000
  H   H36       1.0  0.2718808016176197  0.293076736319577  0.1408873986951917  1.0000
  H   H37       1.0  0.1223811679893458  0.13678254803146928  0.27807853905928687  1.0000
  H   H38       1.0  0.3521768257104796  0.3711809123828119  0.2310422540309247  1.0000
  H   H39       1.0  0.4212578764316959  0.14552325434559782  0.9892604939251441  1.0000
  H   H40       1.0  0.40685467803948683  0.8553522375382842  0.9948500138927443  1.0000
  H   H41       1.0  0.5911200840268478  0.13505351207882652  0.990840941810518  1.0000
  H   H42       1.0  0.14684436197330086  0.5771195394656274  0.009504031782164201  1.0000
  H   H43       1.0  0.8563269631409867  0.5917277782174253  0.0073524072089697  1.0000
  H   H44       1.0  0.13601002054224406  0.40742295549815577  0.0085753120715069  1.0000
  C   C1        1.0  0.1971050754126722  0.49894487954255606  0.4985354892431816  1.0000
  C   C2        1.0  0.5033320694191943  0.8047641345467017  0.496907109236382  1.0000
  C   C3        1.0  0.8047355500189822  0.5042620711401826  0.489305404184492  1.0000
  C   C4        1.0  0.5002210142394574  0.19712670301425558  0.5073085213580697  1.0000
  C   C5        1.0  0.35960742262917483  0.3489906924392727  0.6589351947550242  1.0000
  C   C6        1.0  0.33835530300407163  0.3474727186178016  0.3542789684888277  1.0000
  C   C7        1.0  0.6497121584575538  0.6411734097562275  0.3427150502316181  1.0000
  C   C8        1.0  0.651277202627  0.6616750486090553  0.6484203359142384  1.0000
  C   C9        1.0  0.3555768773198267  0.6622959357534557  0.6509632305276369  1.0000
  C   C10       1.0  0.6537651452462044  0.3461384103045546  0.6511534141836464  1.0000
  C   C11       1.0  0.6546387009099631  0.3479441404643353  0.3501491229578022  1.0000
  C   C12       1.0  0.3380254871685792  0.6443349771284375  0.35016743781348236  1.0000
  C   C13       1.0  0.1505995935109254  0.8458858247857184  0.1522289095280058  1.0000
  C   C14       1.0  0.8519374120189908  0.15566227241948383  0.1525349196031272  1.0000
  C   C15       1.0  0.8398875678076293  0.14340615237696144  0.8493596554230933  1.0000
  C   C16       1.0  0.15670645471379882  0.8524823930969775  0.8491391718130287  1.0000
  C   C17       1.0  0.3031736707527486  0.003071054067511601  0.9949631812587327  1.0000
  C   C18       1.0  0.0040046355609249  0.6953113361625969  0.006228741651092701  1.0000
  C   C19       1.0  0.6957933890389186  0.9930594363587846  0.9972716781383043  1.0000
  C   C20       1.0  0.9935494565262886  0.30278298635246875  0.0047325555683813  1.0000
  C   C21       1.0  0.1457481243965617  0.1583162098400096  0.15239026707952522  1.0000
  C   C22       1.0  0.1545818300453732  0.14902771625991565  0.8494386180719928  1.0000
  C   C23       1.0  0.844788643926492  0.8496884399709047  0.8499897470825813  1.0000
  C   C24       1.0  0.8547366775163568  0.8420138083782123  0.1532507950403215  1.0000
  C   C25       1.0  0.9059607534666867  0.5062724834784903  0.48444843424329775  1.0000
  C   C26       1.0  0.0964368122441783  0.4995715382720364  0.49080028613487064  1.0000
  C   C27       1.0  0.9583574046869074  0.5851681638467526  0.47435190997106247  1.0000
  C   C28       1.0  0.0459101801401047  0.4197798340727204  0.4969431143027094  1.0000
  C   C29       1.0  0.0525811394043032  0.5813866914627966  0.47831453003088603  1.0000
  C   C30       1.0  0.9521375541837854  0.4240220891074458  0.4940559651233087  1.0000
  C   C31       1.0  0.5062735728163332  0.9060603808146582  0.49629971964446906  1.0000
  C   C32       1.0  0.5009560667771851  0.09613826173019653  0.5039484745814349  1.0000
  C   C33       1.0  0.5849588166122716  0.9580903685642499  0.484399348349541  1.0000
  C   C34       1.0  0.4215491649542003  0.04592994819627451  0.5133399125407934  1.0000
  C   C35       1.0  0.5820117078046393  0.05213141577054612  0.4893511771827121  1.0000
  C   C36       1.0  0.42518166954823755  0.9522299878563844  0.5099690697867773  1.0000
  C   C37       1.0  0.7013849673625289  0.28892563174494523  0.6998684924487577  1.0000
  C   C38       1.0  0.7885869029719288  0.19202669386921664  0.798280101399513  1.0000
  C   C39       1.0  0.7658706365100868  0.22113470886927905  0.6853318186612825  1.0000
  C   C40       1.0  0.7233960940133246  0.2575079168909298  0.8135012377159258  1.0000
  C   C41       1.0  0.8085513517348984  0.17365246347318222  0.7344409112377193  1.0000
  C   C42       1.0  0.6810145931588208  0.3046742929913081  0.7646231937797765  1.0000
  C   C43       1.0  0.284967437561626  0.6962064554199614  0.3013556266063873  1.0000
  C   C44       1.0  0.197526486331121  0.792869250844831  0.20311823280140834  1.0000
  C   C45       1.0  0.2182072086114033  0.7617347403214084  0.3159169921623217  1.0000
  C   C46       1.0  0.26270782286052  0.7274752943334805  0.18780640159860704  1.0000
  C   C47       1.0  0.1756483950983068  0.8093739564722501  0.266871870027046  1.0000
  C   C48       1.0  0.30531411497969424  0.6804456128043272  0.23661428942970278  1.0000
  C   C49       1.0  0.30335534582918916  0.715269133639737  0.6996637415990392  1.0000
  C   C50       1.0  0.2086693883986968  0.8047628392914562  0.7980266565685953  1.0000
  C   C51       1.0  0.23621532490489022  0.7804150590764038  0.685075892729934  1.0000
  C   C52       1.0  0.2753148014284363  0.7408128752236537  0.8133070979428182  1.0000
  C   C53       1.0  0.1896229565241399  0.8240454882530772  0.73418913176927  1.0000
  C   C54       1.0  0.32134934016536937  0.6972486399952659  0.7644620922590876  1.0000
  C   C55       1.0  0.7111148424867935  0.29936695279020853  0.3015968301021701  1.0000
  C   C56       1.0  0.8052759549639035  0.20895784582519641  0.2034381859432131  1.0000
  C   C57       1.0  0.7747187831230066  0.23078781035082593  0.3162360297865732  1.0000
  C   C58       1.0  0.7447276004574661  0.2787410477421446  0.1881652525475204  1.0000
  C   C59       1.0  0.820778212745843  0.18646860556385292  0.267224433404877  1.0000
  C   C60       1.0  0.6987703037290416  0.3226685775883241  0.23694916350704887  1.0000
  C   C61       1.0  0.7013488377125371  0.6888375632735446  0.2910713305087711  1.0000
  C   C62       1.0  0.8038223631111235  0.7886753020032986  0.2020219227953319  1.0000
  C   C63       1.0  0.6876022399262068  0.6770820265105543  0.22480775824949722  1.0000
  C   C64       1.0  0.8189514006983316  0.8006096898128235  0.2675103740431268  1.0000
  C   C65       1.0  0.7385841818047751  0.7269014050596072  0.18116182137389814  1.0000
  C   C66       1.0  0.7679586417988133  0.7511082632890622  0.3107696659050703  1.0000
  C   C67       1.0  0.3124228073282609  0.2970843598440141  0.7108464702055457  1.0000
  C   C68       1.0  0.2098696166817078  0.19802187672736696  0.8006047228401059  1.0000
  C   C69       1.0  0.32498357042423726  0.3105823397582199  0.7770822919158888  1.0000
  C   C70       1.0  0.19815951454943098  0.18206700936305256  0.7351818550801639  1.0000
  C   C71       1.0  0.2735793543457418  0.26161053772655424  0.82103418030556  1.0000
  C   C72       1.0  0.24888951575049134  0.23137693691531072  0.6916156192079442  1.0000
  C   C73       1.0  0.7008310496067695  0.7154309271149586  0.6980664414868372  1.0000
  C   C74       1.0  0.792297045194438  0.8037807620059071  0.7983396144352711  1.0000
  C   C75       1.0  0.7689656193641168  0.780033730128409  0.6848007774803122  1.0000
  C   C76       1.0  0.7235881862580129  0.7414224805499501  0.8124148155815335  1.0000
  C   C77       1.0  0.8138900400808852  0.8231223768315276  0.7349201333059058  1.0000
  C   C78       1.0  0.6792142347009644  0.6984313526273527  0.7625265228999752  1.0000
  C   C79       1.0  0.283608191872375  0.29850617074475133  0.3047662310011248  1.0000
  C   C80       1.0  0.1925936505915971  0.20961995487856205  0.2042754162211224  1.0000
  C   C81       1.0  0.2172646779549581  0.23204941410808302  0.3178611063337229  1.0000
  C   C82       1.0  0.2569582024714876  0.2764876540666209  0.19045964807978782  1.0000
  C   C83       1.0  0.17275450718471322  0.18846564650286277  0.2677417732820118  1.0000
  C   C84       1.0  0.3012387417362419  0.3195795630870677  0.2403393435106196  1.0000
  C   C85       1.0  0.5945936210490858  0.9906505522823965  0.9942086378898694  1.0000
  C   C86       1.0  0.4042466707512276  0.0006652527765993003  0.9925172385632521  1.0000
  C   C87       1.0  0.5417170661436613  0.9108719286703038  0.9947464178241178  1.0000
  C   C88       1.0  0.4555706389359456  0.0803387276398979  0.990751655073673  1.0000
  C   C89       1.0  0.4475087307994201  0.9167162934437842  0.9938623539085826  1.0000
  C   C90       1.0  0.5492691530553985  0.07442188256637651  0.9915951164732705  1.0000
  C   C91       1.0  0.9914494498015003  0.4039930638644196  0.0071712613747437  1.0000
  C   C92       1.0  0.0017951957527842  0.5942668868367991  0.0081459912162671  1.0000
  C   C93       1.0  0.9117248704112982  0.45694615765051355  0.0072336649297355  1.0000
  C   C94       1.0  0.08149986145661361  0.5429319788740372  0.008936115837364901  1.0000
  C   C95       1.0  0.9177070593846963  0.5510768087736011  0.0077310018862917  1.0000
  C   C96       1.0  0.0753816852023519  0.4493005594106735  0.008463593366570902  1.0000
  Cl  Cl1       1.0  0.913504078849975  0.6901809742009208  0.45619962722773266  1.0000
  Cl  Cl2       1.0  0.6878318931284041  0.9130829537933353  0.4608966033975364  1.0000
  Cl  Cl3       1.0  0.7988196396617226  0.1911351834617392  0.6089522145346749  1.0000
  Cl  Cl4       1.0  0.1825644595444373  0.7889837932093332  0.39219572385778895  1.0000
  Cl  Cl5       1.0  0.2049683040283767  0.8118568496728928  0.6086173249689892  1.0000
  Cl  Cl6       1.0  0.8006481069266442  0.19413192375765936  0.3925582523446494  1.0000
  Cl  Cl7       1.0  0.6090914103337183  0.6035074791938516  0.19195900487832776  1.0000
  Cl  Cl8       1.0  0.40173718363913474  0.38627535718075023  0.8095600561774816  1.0000
  Cl  Cl9       1.0  0.8031479775238212  0.8105216375252342  0.6090346819375938  1.0000
  Cl  Cl10      1.0  0.1860471007126705  0.19822217820789945  0.3937419264632709  1.0000
  Cl  Cl11      1.0  0.5853554158350889  0.8022916735929473  0.997378423683891  1.0000
  Cl  Cl12      1.0  0.8029078807384948  0.4134378221536893  0.006220328991496201  1.0000
  O   O1        1.0  0.235770780360987  0.4219934568293129  0.5042513348538975  1.0000
  O   O2        1.0  0.5786809924814662  0.7626721088480439  0.4968124888510772  1.0000
  O   O3        1.0  0.763171499792108  0.5798126199897738  0.492046412304596  1.0000
  O   O4        1.0  0.4229584786391243  0.23598268004240452  0.5098322101460298  1.0000
  O   O5        1.0  0.41689577824431717  0.4093986006427671  0.6747565338441817  1.0000
  O   O6        1.0  0.3979824654495232  0.402986501155283  0.3332799238564945  1.0000
  O   O7        1.0  0.589444707642194  0.5835832460388632  0.3267818492822556  1.0000
  O   O8        1.0  0.5956809047032224  0.6017593536153569  0.6691785462782179  1.0000
  O   O9        1.0  0.3381050157226612  0.6773264113089043  0.5923536084053609  1.0000
  O   O10       1.0  0.6717911713167412  0.3313736348297668  0.5925858523149259  1.0000
  O   O11       1.0  0.6708503573351763  0.3315712550323298  0.4087252593011357  1.0000
  O   O12       1.0  0.3245763596840091  0.6638022764208106  0.4085777392274963  1.0000
  O   O13       1.0  0.5991749206634936  0.4066412230235344  0.6715385183452369  1.0000
  O   O14       1.0  0.5931937412274451  0.4014871092349993  0.3297103591985078  1.0000
  O   O15       1.0  0.3947927261746145  0.5857098562321356  0.3299208860258105  1.0000
  O   O16       1.0  0.4128661175532997  0.6044530386544621  0.6714881552394516  1.0000
  O   O17       1.0  0.3370197653614325  0.32958029095946983  0.6016508229648067  1.0000
  O   O18       1.0  0.667913450698066  0.6768667802932883  0.5899348273596274  1.0000
  O   O19       1.0  0.6694303625478993  0.6631688602863621  0.3999453241285025  1.0000
  O   O20       1.0  0.323830384957553  0.3304717424316977  0.41286769906471227  1.0000
  O   O21       1.0  0.5767732420439274  0.2370469718634781  0.5060450443032494  1.0000
  O   O22       1.0  0.2367243774201881  0.5756544708839257  0.500043315120422  1.0000
  O   O23       1.0  0.42551352259850017  0.7670415782257722  0.4981208740640142  1.0000
  O   O24       1.0  0.7668160306014614  0.4267782150936414  0.49295627720154295  1.0000
  O   O25       1.0  0.49801373925604514  0.3634341406930944  0.4359095998754938  1.0000
  O   O26       1.0  0.6377770162632717  0.5030852338006042  0.5659037145486749  1.0000
  O   O27       1.0  0.497736079892853  0.6319104740127842  0.43080040582538004  1.0000
  O   O28       1.0  0.3681504669320148  0.5023796192318387  0.5707946707535712  1.0000
  O   O29       1.0  0.5021503837162484  0.6006708015279543  0.5487979073997097  1.0000
  O   O30       1.0  0.3994130922416446  0.49806435491056084  0.45303971635304663  1.0000
  O   O31       1.0  0.5975170254699832  0.49880742027953323  0.4492111210784344  1.0000
  O   O32       1.0  0.5024525592272014  0.40312209310607033  0.5522932877927573  1.0000
  O   O33       1.0  0.17178022993907396  0.8288485975691843  0.0943321840479427  1.0000
  O   O34       1.0  0.8300272570598608  0.17190083026812183  0.0946949975698956  1.0000
  O   O35       1.0  0.8209218834599454  0.16252064564850605  0.9072789421855206  1.0000
  O   O36       1.0  0.1748339349456458  0.8320102729967047  0.9069693306332951  1.0000
  O   O37       1.0  0.2645840118911025  0.0801943393127544  0.9968952679973953  1.0000
  O   O38       1.0  0.927245751623488  0.7350344359930291  0.0048032396506699  1.0000
  O   O39       1.0  0.7381921268147167  0.9181381969306206  0.9986940695758976  1.0000
  O   O40       1.0  0.0716618799787483  0.2654008217970656  0.0037003165121234005  1.0000
  O   O41       1.0  0.08940799280718181  0.09776919547861951  0.1701564732659762  1.0000
  O   O42       1.0  0.0959301474765653  0.09210419650051449  0.8297431212592201  1.0000
  O   O43       1.0  0.9045065441306478  0.9070220310524705  0.8321287368987171  1.0000
  O   O44       1.0  0.9108093743970613  0.9016651725257607  0.1728506818964135  1.0000
  O   O45       1.0  0.1697373559804376  0.16937707407045371  0.9078132935488981  1.0000
  O   O46       1.0  0.8278484171547973  0.8277296222876986  0.9076943051699331  1.0000
  O   O47       1.0  0.8367401960537393  0.8245593419291596  0.09486450675424861  1.0000
  O   O48       1.0  0.1662489185996421  0.17704540229060942  0.0946252836591555  1.0000
  O   O49       1.0  0.26328026374542196  0.9263621048870053  0.9963389589477742  1.0000
  O   O50       1.0  0.9184392071956111  0.2606325583069946  0.002839467586476  1.0000
  O   O51       1.0  0.7329881200022044  0.07119260032942519  0.9992199402066788  1.0000
  O   O52       1.0  0.0811145401713915  0.7341993698279908  0.004934267856342001  1.0000
  O   O53       1.0  0.0969935733336342  0.9095299580790768  0.8310232409921596  1.0000
  O   O54       1.0  0.0933299085386707  0.9051765238327648  0.1705818293348784  1.0000
  O   O55       1.0  0.9089356266048725  0.09602929772156442  0.1708717035675917  1.0000
  O   O56       1.0  0.9007461780094915  0.0876596264458982  0.8310971576031817  1.0000
  O   O57       1.0  0.0017759850763070999  0.864109216233203  0.9342682204088959  1.0000
  O   O58       1.0  0.9969938338989977  0.13370814374589202  0.9333181017663322  1.0000
  O   O59       1.0  0.8653698909632863  0.9977296149804219  0.06886084434573551  1.0000
  O   O60       1.0  0.1352162517341284  0.0022015779887709997  0.0677171964349554  1.0000
  O   O61       1.0  0.9983012338292098  0.09883821805537003  0.0501819950642499  1.0000
  O   O62       1.0  0.0019415654646195  0.9003148553947045  0.05092161183381451  1.0000
  O   O63       1.0  0.9004496552592799  0.9974905481682372  0.9517817702727741  1.0000
  O   O64       1.0  0.09895323319116758  0.0008675337564767003  0.9512933219930986  1.0000
