data_image0
_chemical_formula_structural       Mn2H24C28S4N12O8
_chemical_formula_sum              "Mn2 H24 C28 S4 N12 O8"
_cell_length_a       9.017394656538903
_cell_length_b       11.254998557316648
_cell_length_c       12.831184001257993
_cell_angle_alpha    90.00039806904412
_cell_angle_beta     90.00047580702763
_cell_angle_gamma    105.57520902298683

_space_group_name_H-M_alt    "P 1"
_space_group_IT_number       1

loop_
  _space_group_symop_operation_xyz
  'x, y, z'

loop_
  _atom_site_type_symbol
  _atom_site_label
  _atom_site_symmetry_multiplicity
  _atom_site_fract_x
  _atom_site_fract_y
  _atom_site_fract_z
  _atom_site_occupancy
  Mn  Mn1       1.0  1.5875047055431026e-06  0.500000409583322  0.4999982353596834  1.0000
  Mn  Mn2       1.0  0.4999983069061073  0.9999965542878612  0.9999994902109675  1.0000
  H   H1        1.0  0.2344394334230842  0.6870113764861471  0.42723612930581106  1.0000
  H   H2        1.0  0.2655573736519868  0.8129856367995741  0.9272317683106619  1.0000
  H   H3        1.0  0.7655615552461652  0.3129874833713658  0.5727648217360295  1.0000
  H   H4        1.0  0.7344397035535623  0.18701130932173984  0.07276528595745187  1.0000
  H   H5        1.0  0.0769763858261499  0.6958510309298163  0.36948654355590077  1.0000
  H   H6        1.0  0.42302063631310455  0.8041453497813151  0.8694838286645632  1.0000
  H   H7        1.0  0.9230240487276261  0.30414964988839444  0.630515186841123  1.0000
  H   H8        1.0  0.5769772680141472  0.19584703236344578  0.13051478429481014  1.0000
  H   H9        1.0  0.8586530160727788  0.7997293705761876  0.2226406504094952  1.0000
  H   H10       1.0  0.6413456801479924  0.7002690085100342  0.7226411182053949  1.0000
  H   H11       1.0  0.1413398848753289  0.20027206997546196  0.7773587419138933  1.0000
  H   H12       1.0  0.358659492942536  0.2997290220324161  0.2773598328461729  1.0000
  H   H13       1.0  0.7799293842948885  0.9436416947721186  0.10193414512040987  1.0000
  H   H14       1.0  0.7200677091010163  0.5563562357017418  0.6019334250981314  1.0000
  H   H15       1.0  0.2200615568576936  0.05635695636707541  0.8980644678375352  1.0000
  H   H16       1.0  0.2799397048882071  0.44364550630390187  0.39806440856595765  1.0000
  H   H17       1.0  0.3183979845187181  0.7524639634148828  0.12586687778560446  1.0000
  H   H18       1.0  0.18159944413187643  0.7475398168670891  0.6258631899383287  1.0000
  H   H19       1.0  0.6815929566825147  0.2475346877597105  0.8741379699827829  1.0000
  H   H20       1.0  0.8184079698816762  0.25246192515624705  0.37413776113098846  1.0000
  H   H21       1.0  0.3769996578619512  0.6015148214099569  0.2503710819641113  1.0000
  H   H22       1.0  0.12299609183710201  0.8984930461214377  0.750364845222691  1.0000
  H   H23       1.0  0.6229940783899507  0.39848572029367807  0.7496345451694493  1.0000
  H   H24       1.0  0.877007129615663  0.10150586011939576  0.24963688517711793  1.0000
  C   C1        1.0  0.6495598323240657  0.437469822809277  0.4110829746786847  1.0000
  C   C2        1.0  0.8504458797629438  0.0625373756534771  0.9110877298463717  1.0000
  C   C3        1.0  0.3504419997215891  0.5625318032491151  0.5889148589687494  1.0000
  C   C4        1.0  0.14955539003380375  0.9374624062724664  0.08891244184777487  1.0000
  C   C5        1.0  0.6701022075158393  0.6024762181529724  0.3152864494769573  1.0000
  C   C6        1.0  0.8298954370590862  0.8975295747124789  0.8152853126461179  1.0000
  C   C7        1.0  0.32989572126035677  0.3975271593066196  0.6847137222182765  1.0000
  C   C8        1.0  0.1701083466486608  0.10247117566522952  0.18471485905829604  1.0000
  C   C9        1.0  0.6242421920591354  0.6880862058311479  0.24652596683909414  1.0000
  C   C10       1.0  0.8757568850568661  0.8119161095532875  0.7465206845893347  1.0000
  C   C11       1.0  0.3757537769519458  0.3119143822381147  0.7534773222472139  1.0000
  C   C12       1.0  0.12424745277244399  0.18808281986814282  0.2534794871112068  1.0000
  C   C13       1.0  0.7376718880598787  0.7872174169883975  0.20453047291260865  1.0000
  C   C14       1.0  0.7623237385918104  0.7127825310168775  0.7045293850806187  1.0000
  C   C15       1.0  0.26232101290039367  0.2127840235720981  0.7954704781133939  1.0000
  C   C16       1.0  0.2376808803771624  0.2872173204818438  0.2954715659748287  1.0000
  C   C17       1.0  0.6937036040251738  0.8669670777704894  0.13648152586087287  1.0000
  C   C18       1.0  0.8062926391940693  0.6330339648412606  0.636480213689161  1.0000
  C   C19       1.0  0.30628873465578005  0.1330325186354386  0.8635178664553108  1.0000
  C   C20       1.0  0.19371561005029042  0.36696687828096936  0.3635176199746581  1.0000
  C   C21       1.0  0.4369651462270808  0.7599836442247748  0.14970994136834284  1.0000
  C   C22       1.0  0.0630253939594354  0.7400184235240843  0.6497062946490004  1.0000
  C   C23       1.0  0.5630260760955681  0.24001592901382912  0.8502933477010328  1.0000
  C   C24       1.0  0.9369789438698742  0.25998050589734584  0.3502938770515342  1.0000
  C   C25       1.0  0.4700629486648396  0.6752666817237342  0.21866600659190985  1.0000
  C   C26       1.0  0.029934538979318956  0.8247408721683558  0.7186611190467641  1.0000
  C   C27       1.0  0.5299302334411777  0.3247356809184723  0.7813365031403092  1.0000
  C   C28       1.0  0.9700717586515989  0.1752608466699641  0.281340611370524  1.0000
  S   S1        1.0  0.5668471041248182  0.3032967971595042  0.4695305586712448  1.0000
  S   S2        1.0  0.9331561547342913  0.19670366522889549  0.9695350481114955  1.0000
  S   S3        1.0  0.4331577959412343  0.6967039763855284  0.5304657162799769  1.0000
  S   S4        1.0  0.06684204702381182  0.8032969691971347  0.030464344224945688  1.0000
  N   N1        1.0  0.7956959407515641  0.5079272843709148  0.41277714461497783  1.0000
  N   N2        1.0  0.7043051607910227  0.992071409656667  0.9127774031699472  1.0000
  N   N3        1.0  0.204307007676725  0.49207436487250084  0.587219909684485  1.0000
  N   N4        1.0  0.295695546738564  0.007926528123555  0.08722276851698747  1.0000
  N   N5        1.0  0.8075160386730502  0.6115034258192366  0.3526895060327389  1.0000
  N   N6        1.0  0.6924846954418269  0.8885000951246267  0.8526882911337947  1.0000
  N   N7        1.0  0.19248607450618493  0.38849912231201966  0.6473083276182975  1.0000
  N   N8        1.0  0.30751712847040114  0.11149786584061869  0.14731110120516885  1.0000
  N   N9        1.0  0.5461982721985947  0.8542247934768737  0.10825996633979426  1.0000
  N   N10       1.0  0.9538003255810777  0.6457778191826264  0.6082572549339458  1.0000
  N   N11       1.0  0.45379210670507314  0.1457720135298715  0.8917409846648636  1.0000
  N   N12       1.0  0.04620625317125621  0.3542248217197042  0.39174291678433076  1.0000
  O   O1        1.0  0.5653261070071592  0.4964861999386585  0.34735768846876863  1.0000
  O   O2        1.0  0.934673301484608  0.0035174158917002053  0.8473579035547797  1.0000
  O   O3        1.0  0.434674608680197  0.5035154029524165  0.6526440419318644  1.0000
  O   O4        1.0  0.06532657078984981  0.9964814207719357  0.15264226813243195  1.0000
  O   O5        1.0  0.13917511228864748  0.6407993651173952  0.3899110188268579  1.0000
  O   O6        1.0  0.3608272564633239  0.8591991844353334  0.8899098314355027  1.0000
  O   O7        1.0  0.8608275550243079  0.35920136206643605  0.610088373522913  1.0000
  O   O8        1.0  0.6391742862909949  0.1407978544393558  0.11008644349463736  1.0000
