data_image0
_chemical_formula_structural       Li4H52C68N16
_chemical_formula_sum              "Li4 H52 C68 N16"
_cell_length_a       7.878517319
_cell_length_b       11.145503517
_cell_length_c       17.3036
_cell_angle_alpha    90.0
_cell_angle_beta     90.0
_cell_angle_gamma    90.0

_space_group_name_H-M_alt    "P 1"
_space_group_IT_number       1

loop_
  _space_group_symop_operation_xyz
  'x, y, z'

loop_
  _atom_site_type_symbol
  _atom_site_label
  _atom_site_symmetry_multiplicity
  _atom_site_fract_x
  _atom_site_fract_y
  _atom_site_fract_z
  _atom_site_occupancy
  Li  Li1       1.0  0.0872283415995909  0.5896135594032685  0.09365334381284643  1.0000
  Li  Li2       1.0  0.5872272424714566  0.41038522782066167  0.9063460782727264  1.0000
  Li  Li3       1.0  0.0872283415995909  0.0896146144027128  0.4063460782727262  1.0000
  Li  Li4       1.0  0.5872285117458134  0.910385070044029  0.5936533438128464  1.0000
  H   H1        1.0  0.7456301436100219  0.5506211532426022  0.018420444300609507  1.0000
  H   H2        1.0  0.2456299734637923  0.4493785312041396  0.9815789777849702  1.0000
  H   H3        1.0  0.7456301436100219  0.0506222082420464  0.48157955569939054  1.0000
  H   H4        1.0  0.2456312427381491  0.949378373427507  0.5184204443006095  1.0000
  H   H5        1.0  0.7046300433473718  0.1067228589704996  0.9845205621951508  1.0000
  H   H6        1.0  0.2046298732011422  0.8932768254762351  0.015479437804849302  1.0000
  H   H7        1.0  0.7046300433473718  0.606722701193867  0.5154794378048493  1.0000
  H   H8        1.0  0.2046298732011422  0.3932760860300561  0.4845205621951507  1.0000
  H   H9        1.0  0.9366305487714044  0.9775377113633184  0.036005802260803015  1.0000
  H   H10       1.0  0.4366303786251819  0.022462870306228  0.963994197739197  1.0000
  H   H11       1.0  0.9366318180457611  0.477537869139951  0.4639936198247767  1.0000
  H   H12       1.0  0.4366316478995387  0.5224618153067837  0.536005802260803  1.0000
  H   H13       1.0  0.1862812431040339  0.0665425298075419  0.10219434106197413  1.0000
  H   H14       1.0  0.6862801439759068  0.9334571546391999  0.8978056589380259  1.0000
  H   H15       1.0  0.1862812431040339  0.5665432692537209  0.3978050810236056  1.0000
  H   H16       1.0  0.6862801439759068  0.4334573124158326  0.6021949189763944  1.0000
  H   H17       1.0  0.2110232081346766  0.2874800582237356  0.12037148339074122  1.0000
  H   H18       1.0  0.7110233782809061  0.7125187290001946  0.8796279386948387  1.0000
  H   H19       1.0  0.2110232081346766  0.7874816948927261  0.37962793869483863  1.0000
  H   H20       1.0  0.7110221090065494  0.2125188867768202  0.6203726392195819  1.0000
  H   H21       1.0  0.8226992132604352  0.7555603017087122  0.0357428511985916  1.0000
  H   H22       1.0  0.3226990431142056  0.2444393827380296  0.964256570886981  1.0000
  H   H23       1.0  0.8227004825347919  0.2555604594853378  0.4642571488014084  1.0000
  H   H24       1.0  0.3226977738398489  0.7444392249613969  0.5357428511985916  1.0000
  H   H25       1.0  0.5822504177197487  0.8724325451217751  0.0896270140317625  1.0000
  H   H26       1.0  0.0822515168478759  0.1275671393249596  0.9103724080538174  1.0000
  H   H27       1.0  0.5822516869941055  0.3724336001212194  0.4103741417970853  1.0000
  H   H28       1.0  0.0822515168478759  0.6275660843255224  0.5896275919461829  1.0000
  H   H29       1.0  0.78182477115908  0.7950111887260007  0.3177512193994332  1.0000
  H   H30       1.0  0.2818233317384937  0.20498849572073397  0.6822482026861465  1.0000
  H   H31       1.0  0.7818235018847234  0.2950113465026334  0.18224935851499424  1.0000
  H   H32       1.0  0.2818246010128505  0.7049883379441013  0.8177517973138535  1.0000
  H   H33       1.0  0.0112089618419731  0.6787589262756129  0.2541823666751455  1.0000
  H   H34       1.0  0.5112078627138459  0.3212416553939335  0.7458176333248545  1.0000
  H   H35       1.0  0.0112102311163298  0.1787590840522455  0.24581763332485454  1.0000
  H   H36       1.0  0.5112091319882026  0.8212414976173008  0.7541817887607183  1.0000
  H   H37       1.0  0.0974333074255966  0.9595439078806791  0.2459072100603308  1.0000
  H   H38       1.0  0.5974334775718191  0.0404548793432511  0.7540916341108215  1.0000
  H   H39       1.0  0.0974307688768832  0.4595476545485511  0.2540922120252418  1.0000
  H   H40       1.0  0.5974334775718191  0.5404538243438068  0.7459083658891787  1.0000
  H   H41       1.0  0.3195474348870917  0.8456845386682943  0.1738204766638134  1.0000
  H   H42       1.0  0.8195450664846078  0.1543178374468752  0.8261777895929185  1.0000
  H   H43       1.0  0.3195436270640286  0.3456855936677385  0.32617894542175924  1.0000
  H   H44       1.0  0.8195450664846078  0.6543176796702426  0.6738222104070815  1.0000
  H   H45       1.0  0.6909751898204846  0.0010883312702319  0.3284796227374684  1.0000
  H   H46       1.0  0.190975019674255  0.9989122503993215  0.671520955176959  1.0000
  H   H47       1.0  0.6909739205461278  0.5010881734935992  0.1715203772625316  1.0000
  H   H48       1.0  0.1909762889486117  0.4989115109531426  0.828479044823041  1.0000
  H   H49       1.0  0.4537846215528489  0.1096684414603288  0.39309970179616033  1.0000
  H   H50       1.0  0.9537860609734352  0.8903330374320291  0.6068997202894197  1.0000
  H   H51       1.0  0.4537858908272057  0.6096673864608846  0.1068991423749992  1.0000
  H   H52       1.0  0.9537873302477919  0.3903322979858501  0.8930997017961604  1.0000
  C   C1        1.0  0.7995222635113208  0.4617512337733558  0.0276271989643746  1.0000
  C   C2        1.0  0.2995220933650913  0.5382475534505744  0.9723728010356254  1.0000
  C   C3        1.0  0.7995222635113208  0.9617519732195348  0.47237280103562546  1.0000
  C   C4        1.0  0.299523362639448  0.0382486084500187  0.5276271989643746  1.0000
  C   C5        1.0  0.9704008622996056  0.3223470338975787  0.062437874199588406  1.0000
  C   C6        1.0  0.4704006921533832  0.677652650549156  0.9375615478859913  1.0000
  C   C7        1.0  0.9704008622996056  0.8223477733437577  0.4375615478859913  1.0000
  C   C8        1.0  0.4704006921533832  0.1776528083257887  0.5624390300284361  1.0000
  C   C9        1.0  0.8278588135194767  0.2708922028865572  0.022809704338982308  1.0000
  C   C10       1.0  0.3278586433732471  0.7291074815601774  0.9771897177465974  1.0000
  C   C11       1.0  0.8278575442451199  0.7708920451099246  0.4771897177465974  1.0000
  C   C12       1.0  0.3278586433732471  0.2291076393368101  0.5228097043389823  1.0000
  C   C13       1.0  0.8142521924181381  0.1462832071707822  0.013371205991816704  1.0000
  C   C14       1.0  0.3142520222719085  0.8537164772759525  0.9866287940081833  1.0000
  C   C15       1.0  0.8142521924181381  0.6462830493941496  0.48662821609376294  1.0000
  C   C16       1.0  0.3142520222719085  0.3537166350525851  0.5133717839062372  1.0000
  C   C17       1.0  0.9444086620278469  0.0746435545716793  0.0426726230379799  1.0000
  C   C18       1.0  0.4444097611559741  0.9253561298750625  0.9573267990475999  1.0000
  C   C19       1.0  0.9444086620278469  0.5746442940178582  0.45732679904759993  1.0000
  C   C20       1.0  0.4444084918816174  0.4253562876516952  0.5426732009524002  1.0000
  C   C21       1.0  0.0862713087348084  0.1252908850524364  0.0805156152476911  1.0000
  C   C22       1.0  0.5862702096066813  0.8747087993942984  0.9194843847523089  1.0000
  C   C23       1.0  0.0862713087348084  0.6252916244986153  0.4194838068378814  1.0000
  C   C24       1.0  0.5862702096066813  0.374708957170931  0.5805167710765389  1.0000
  C   C25       1.0  0.1012754009026224  0.24901701352179367  0.0909059386486035  1.0000
  C   C26       1.0  0.601275571048852  0.750982670924941  0.9090934834369762  1.0000
  C   C27       1.0  0.1012754009026224  0.7490177529679727  0.4090934834369762  1.0000
  C   C28       1.0  0.6012743017744953  0.2509828287015736  0.5909070944774515  1.0000
  C   C29       1.0  0.8088463529339336  0.7655293443661861  0.0982425622413814  1.0000
  C   C30       1.0  0.3088474520620679  0.2344703400805557  0.9017568598441912  1.0000
  C   C31       1.0  0.8088476222082903  0.2655295021428117  0.4017574377586186  1.0000
  C   C32       1.0  0.3088474520620679  0.734470182303923  0.5982425622413814  1.0000
  C   C33       1.0  0.6738869491593462  0.8309925151316051  0.12856573198640583  1.0000
  C   C34       1.0  0.173890586836194  0.1690053748695064  0.8714342680135944  1.0000
  C   C35       1.0  0.6738869491593462  0.330994467353861  0.3714354238424349  1.0000
  C   C36       1.0  0.1738893175618372  0.6690043198700621  0.6285657319864058  1.0000
  C   C37       1.0  0.6620661970775572  0.8443234516633992  0.20891721953812956  1.0000
  C   C38       1.0  0.1620672962056844  0.1556762327833354  0.7910822025474502  1.0000
  C   C39       1.0  0.6620661970775572  0.3443236094400319  0.2910827804618705  1.0000
  C   C40       1.0  0.1620672962056844  0.6556751777838983  0.7089177974525569  1.0000
  C   C41       1.0  0.7862583464862212  0.7891891099028214  0.25492325296470153  1.0000
  C   C42       1.0  0.2862581763399916  0.21081147176672493  0.7450761691208783  1.0000
  C   C43       1.0  0.7862570772118644  0.2891892676794541  0.24507732494971893  1.0000
  C   C44       1.0  0.2862581763399916  0.7108113139900922  0.7549238308791217  1.0000
  C   C45       1.0  0.9145286744022201  0.723621861291278  0.21939943133220655  1.0000
  C   C46       1.0  0.4145285042559905  0.2763778231554639  0.7806005686677936  1.0000
  C   C47       1.0  0.914529943676577  0.2236220190679106  0.2806011465822138  1.0000
  C   C48       1.0  0.4145285042559905  0.7763776653788311  0.7193994313322065  1.0000
  C   C49       1.0  0.2311627843487614  0.9681581440929321  0.2617391756628679  1.0000
  C   C50       1.0  0.7311629544949909  0.031840643130991  0.7382608243371322  1.0000
  C   C51       1.0  0.2311615150744046  0.4681609935379996  0.2382614022515526  1.0000
  C   C52       1.0  0.7311629544949909  0.5318395881315467  0.7617385977484474  1.0000
  C   C53       1.0  0.3552013515602965  0.9047173135444098  0.22144467047319696  1.0000
  C   C54       1.0  0.8552015217065261  0.0952814736795204  0.7785559074412236  1.0000
  C   C55       1.0  0.3552000822859399  0.4047210602122888  0.2785564853556508  1.0000
  C   C56       1.0  0.8552015217065261  0.5952813159028878  0.7214440925587766  1.0000
  C   C57       1.0  0.5247979832485543  0.9140959835919843  0.2454749300723549  1.0000
  C   C58       1.0  0.0247978131023245  0.085904598077569  0.7545256478420654  1.0000
  C   C59       1.0  0.5247967139741974  0.4140961413686099  0.2545256478420654  1.0000
  C   C60       1.0  0.0247978131023245  0.5859044403009364  0.7454743521579346  1.0000
  C   C61       1.0  0.5612553505893985  0.990202908569053  0.3077983772163009  1.0000
  C   C62       1.0  0.0612551804431689  0.0097958786548702  0.6922022006981197  1.0000
  C   C63       1.0  0.5612553505893985  0.4902048607913088  0.19220220069811947  1.0000
  C   C64       1.0  0.0612564497175256  0.5097957208782447  0.8077977993018806  1.0000
  C   C65       1.0  0.4291518141168638  0.050973919584109205  0.3438723733789503  1.0000
  C   C66       1.0  0.92915325353745  0.9490257648626255  0.6561282045354702  1.0000
  C   C67       1.0  0.4291518141168638  0.5509755562531069  0.1561282045354702  1.0000
  C   C68       1.0  0.92915325353745  0.4490259226392581  0.8438717954645301  1.0000
  N   N1        1.0  0.9481593677512095  0.44535000078094816  0.06515927321482452  1.0000
  N   N2        1.0  0.4481591976049799  0.5546496836657866  0.9348407267851755  1.0000
  N   N3        1.0  0.9481593677512095  0.9453507402271271  0.43484072678517555  1.0000
  N   N4        1.0  0.4481604668793366  0.0546498414424192  0.5651592732148245  1.0000
  N   N5        1.0  0.7206305158850128  0.36268078816129184  0.0005259021244157  1.0000
  N   N6        1.0  0.2206303457387904  0.6373188962854499  0.9994740978755844  1.0000
  N   N7        1.0  0.7206305158850128  0.8626815276074709  0.49947351996116407  1.0000
  N   N8        1.0  0.2206316150131471  0.1373190540620755  0.5005259021244157  1.0000
  N   N9        1.0  0.9273661152435437  0.7117228923664811  0.14220855775676713  1.0000
  N   N10       1.0  0.4273672143716709  0.2882758948574491  0.8577920201576532  1.0000
  N   N11       1.0  0.9273673845179005  0.2117239473659183  0.3577920201576532  1.0000
  N   N12       1.0  0.4273672143716709  0.7882757370808164  0.642207979842347  1.0000
  N   N13       1.0  0.2657467027394631  0.039924620661715  0.3223398599135408  1.0000
  N   N14       1.0  0.7657481421600494  0.9600741665622152  0.6776607180008797  1.0000
  N   N15       1.0  0.2657467027394631  0.5399271545535171  0.17766014008645936  1.0000
  N   N16       1.0  0.7657481421600494  0.4600725298932248  0.8223387040847003  1.0000
