data_image0
_chemical_formula_structural       Zn2H48C52S4N8O24
_chemical_formula_sum              "Zn2 H48 C52 S4 N8 O24"
_cell_length_a       11.451762922319643
_cell_length_b       11.299969827569523
_cell_length_c       14.022943732270159
_cell_angle_alpha    78.1294579233621
_cell_angle_beta     66.04940868623154
_cell_angle_gamma    59.55466872373315

_space_group_name_H-M_alt    "P 1"
_space_group_IT_number       1

loop_
  _space_group_symop_operation_xyz
  'x, y, z'

loop_
  _atom_site_type_symbol
  _atom_site_label
  _atom_site_symmetry_multiplicity
  _atom_site_fract_x
  _atom_site_fract_y
  _atom_site_fract_z
  _atom_site_occupancy
  Zn  Zn1       1.0  0.5209224863659898  1.74504819412e-05  7.639624985250379e-05  1.0000
  Zn  Zn2       1.0  0.27102441884915124  0.5000579310321243  0.4999558042111759  1.0000
  H   H1        1.0  0.31574602611497216  0.1276184539384033  0.5618290196809854  1.0000
  H   H2        1.0  0.00435676414488001  0.8732549643419247  0.4386501831313795  1.0000
  H   H3        1.0  0.6276110240015593  0.626980418690728  0.9383224521539265  1.0000
  H   H4        1.0  0.19318710381367038  0.372439477093728  0.06181622077139792  1.0000
  H   H5        1.0  0.12038697612367577  0.2807330884929513  0.7093484593320202  1.0000
  H   H6        1.0  0.10976536972035673  0.7199052615306272  0.2910229658955218  1.0000
  H   H7        1.0  0.5796945366543012  0.780213100623115  0.7906459482986748  1.0000
  H   H8        1.0  0.1507612935867044  0.21946752589152396  0.20943029372661212  1.0000
  H   H9        1.0  0.8284562085450631  0.149430529866919  0.7016311518560274  1.0000
  H   H10       1.0  0.6793064926196236  0.8499318819770137  0.298150268630913  1.0000
  H   H11       1.0  0.27927740711572785  0.650232672628924  0.7978211469824645  1.0000
  H   H12       1.0  0.7276449196419887  0.350470346827727  0.2014568704325655  1.0000
  H   H13       1.0  0.02630654174366478  0.0002720222185104  0.5465204900029762  1.0000
  H   H14       1.0  0.5729625823916676  0.9992505234597218  0.4535007142184855  1.0000
  H   H15       1.0  0.3221066026541661  0.5010187340378707  0.9532062787609522  1.0000
  H   H16       1.0  0.776653760312989  0.4994327931790323  0.04612057766942011  1.0000
  H   H17       1.0  0.20990103944518518  0.130116952352914  0.34486302650566364  1.0000
  H   H18       1.0  0.6853321921927458  0.869669403552315  0.6549257256740265  1.0000
  H   H19       1.0  0.30500465356073647  0.6305444230026396  0.1547937001881934  1.0000
  H   H20       1.0  0.09054630035300426  0.3696617709681433  0.8446632113464575  1.0000
  H   H21       1.0  0.35610355807873617  0.1314616659613819  0.3627099523518852  1.0000
  H   H22       1.0  0.8502143397920959  0.8687660844870848  0.6377702748115512  1.0000
  H   H23       1.0  0.46898457214744815  0.6313296946900238  0.13771820259719902  1.0000
  H   H24       1.0  0.23785920625005016  0.3686711994931997  0.8625989842718483  1.0000
  H   H25       1.0  0.3605252375816545  0.07627810956620348  0.8492895791837685  1.0000
  H   H26       1.0  0.2869386262926738  0.9233604304919893  0.1505876870290167  1.0000
  H   H27       1.0  0.9605213567412104  0.5763432260908914  0.6507077406420196  1.0000
  H   H28       1.0  0.18666499776715262  0.4238085634361823  0.3493067062530955  1.0000
  H   H29       1.0  0.14657314871114083  0.07659119174221729  0.841696767400315  1.0000
  H   H30       1.0  0.06570229858601086  0.9232875490674104  0.1581414340449642  1.0000
  H   H31       1.0  0.7391975738007444  0.57629600713976  0.6584356761602381  1.0000
  H   H32       1.0  0.9729873507164084  0.4234431298143377  0.341895462618794  1.0000
  H   H33       1.0  0.809695688496248  0.11451416849892129  0.1450294251977483  1.0000
  H   H34       1.0  0.06842813132521976  0.8853450688308868  0.8550327040092399  1.0000
  H   H35       1.0  0.704124895074379  0.6143544817562443  0.3551585573378162  1.0000
  H   H36       1.0  0.6741311577746669  0.3853117737732674  0.6452818616956792  1.0000
  H   H37       1.0  0.5969986531974172  0.11563510533895989  0.1357144476190228  1.0000
  H   H38       1.0  0.8476124776050963  0.8842569799568594  0.8644520939335865  1.0000
  H   H39       1.0  0.48205384296890935  0.6156560824093305  0.36453228024552  1.0000
  H   H40       1.0  0.4625056388098155  0.38444027617510557  0.6358475461941142  1.0000
  H   H41       1.0  0.45102336900522727  0.263241546593477  0.99099004683756  1.0000
  H   H42       1.0  0.705770182984388  0.7368260700207045  0.009031840943222893  1.0000
  H   H43       1.0  0.19248882372774273  0.7631352377955594  0.5090131077552443  1.0000
  H   H44       1.0  0.4643784119611424  0.2369303258207438  0.49103331620221996  1.0000
  H   H45       1.0  0.521187890556213  0.1953170853827828  0.8765252521228748  1.0000
  H   H46       1.0  0.59354263096764  0.8044590055330687  0.12353699250806469  1.0000
  H   H47       1.0  0.14779913803484837  0.6955105142746945  0.6235143996115725  1.0000
  H   H48       1.0  0.46659537626177877  0.3046012417938044  0.3764953726516256  1.0000
  C   C1        1.0  0.18033163166009544  0.0555089565584552  0.5467324617693096  1.0000
  C   C2        1.0  0.7821756061598889  0.9446941579155137  0.45336296701108164  1.0000
  C   C3        1.0  0.47687992959422576  0.5554539727074257  0.9530517140526132  1.0000
  C   C4        1.0  0.9857298704900898  0.44440731762026076  0.04664724828804623  1.0000
  C   C5        1.0  0.20956483778334703  0.132502535884278  0.5915754727227737  1.0000
  C   C6        1.0  0.933032767144105  0.8679951837848278  0.40869889841517454  1.0000
  C   C7        1.0  0.5510515319391585  0.6321334433582919  0.9083840329146188  1.0000
  C   C8        1.0  0.09189244844123573  0.36748764621795965  0.09155867199647362  1.0000
  C   C9        1.0  0.10050060137188407  0.2167565421968973  0.6761040574277715  1.0000
  C   C10       1.0  0.9927772756702639  0.7836929320221344  0.3241206004761924  1.0000
  C   C11       1.0  0.5264599528177455  0.7164818875731882  0.8238280191540074  1.0000
  C   C12       1.0  0.06693733949867202  0.2833609257736213  0.17614067321581223  1.0000
  C   C13       1.0  0.9657432035566911  0.21941004195100794  0.7145185393877326  1.0000
  C   C14       1.0  0.8991983546906607  0.7806514156695386  0.2855434537055361  1.0000
  C   C15       1.0  0.42985273240205385  0.7195480399002818  0.7852540600466683  1.0000
  C   C16       1.0  0.9348206307136948  0.2807228235035737  0.21448846407122368  1.0000
  C   C17       1.0  0.9351426259456866  0.1442251537535242  0.669372674218579  1.0000
  C   C18       1.0  0.748435181950093  0.8555355396782645  0.3305059037130603  1.0000
  C   C19       1.0  0.35394179239484186  0.6447039493501379  0.8302149316965883  1.0000
  C   C20       1.0  0.8291307195282585  0.3557547633593288  0.16919815563199594  1.0000
  C   C21       1.0  0.04461759134011331  0.061320993544065096  0.5841347213616077  1.0000
  C   C22       1.0  0.689780541881042  0.9385177138069949  0.41582999851192454  1.0000
  C   C23       1.0  0.37828849843400275  0.5616694237755766  0.915497149912497  1.0000
  C   C24       1.0  0.8558365829307913  0.43854292918882715  0.08391570248292632  1.0000
  C   C25       1.0  0.3215014678524284  0.06721617694363148  0.34339476559955534  1.0000
  C   C26       1.0  0.7321807438502999  0.9327395512863319  0.6567930201771902  1.0000
  C   C27       1.0  0.4149072063263263  0.5673931818525446  0.1566582901254777  1.0000
  C   C28       1.0  0.13899359838269718  0.4327637401692214  0.8432672904549323  1.0000
  C   C29       1.0  0.42573065058732606  0.9958733419544785  0.23828706571640623  1.0000
  C   C30       1.0  0.6597526502399729  0.0040536443052233  0.7619851716869663  1.0000
  C   C31       1.0  0.4137613824401711  0.4959878627438954  0.26181756790968086  1.0000
  C   C32       1.0  0.17167583794803679  0.5041762447704343  0.738178774570642  1.0000
  C   C33       1.0  0.29284939459939335  0.0421193044142782  0.9158522736343572  1.0000
  C   C34       1.0  0.2513017549801262  0.9576803959771496  0.08403650695203178  1.0000
  C   C35       1.0  0.959130341471898  0.5420735590536907  0.5841662464944549  1.0000
  C   C36       1.0  0.08490659864134624  0.4578657451932671  0.41593876391038265  1.0000
  C   C37       1.0  0.17345839504097407  0.0419663560725496  0.9120330520333939  1.0000
  C   C38       1.0  0.12785287117122104  0.9580714920724347  0.08786893061579094  1.0000
  C   C39       1.0  0.8360314699062952  0.541662959478586  0.5880992877307423  1.0000
  C   C40       1.0  0.9653408250190479  0.45802382602968816  0.4122096013400027  1.0000
  C   C41       1.0  0.08721152277183801  0.0001047028916545  0.9999421347694055  1.0000
  C   C42       1.0  0.837326100323011  0.4997304778709832  0.5001866587750358  1.0000
  C   C43       1.0  0.9581983652758693  0.00010983538633979999  0.9999553879325661  1.0000
  C   C44       1.0  0.7083889189122698  0.4996729939304672  0.5001514591627585  1.0000
  C   C45       1.0  0.823590046363023  0.0626154087045805  0.0807404800713201  1.0000
  C   C46       1.0  0.9664757888212491  0.9374563139053506  0.9192391846644629  1.0000
  C   C47       1.0  0.6541661624821556  0.5623243300978729  0.4193645907689502  1.0000
  C   C48       1.0  0.636239315531526  0.4372259310516781  0.5809473661759059  1.0000
  C   C49       1.0  0.7043102497029068  0.06226537256680589  0.07680041874930055  1.0000
  C   C50       1.0  0.8429313491713866  0.9377334686185462  0.9232911493872112  1.0000
  C   C51       1.0  0.530853337807322  0.562163169764645  0.42338112147124474  1.0000
  C   C52       1.0  0.5165963853105778  0.4376888820726066  0.5769371392807872  1.0000
  S   S1        1.0  0.3240080684779155  0.9359730229402814  0.44384238792437014  1.0000
  S   S2        1.0  0.7035882927342029  0.06413257413459658  0.5563680656533168  1.0000
  S   S3        1.0  0.5176475638239707  0.4360813847360703  0.05614833095037144  1.0000
  S   S4        1.0  0.009978893479860737  0.5638969264705196  0.943818538591721  1.0000
  N   N1        1.0  0.8519185292634716  0.3020380739462141  0.8065821606437426  1.0000
  N   N2        1.0  0.9601410063906215  0.6979084157933073  0.193473045819367  1.0000
  N   N3        1.0  0.4081915880706997  0.8020641835112697  0.6930564524258219  1.0000
  N   N4        1.0  0.9036313419360835  0.198142010459506  0.30655170240169133  1.0000
  N   N5        1.0  0.3322776201755952  0.9998058593850487  0.9999644844840748  1.0000
  N   N6        1.0  0.08217814466056673  0.500043560046997  0.5000426371209912  1.0000
  N   N7        1.0  0.7132687641143248  0.9999998676842878  3.22504255194955e-05  1.0000
  N   N8        1.0  0.46334202771951283  0.49999736759480123  0.5001467533573206  1.0000
  O   O1        1.0  0.2606438651091592  0.8611371443816368  0.42043694308321033  1.0000
  O   O2        1.0  0.5421711483075599  0.1389212337421029  0.5795033496518017  1.0000
  O   O3        1.0  0.4309419309779727  0.361371765546771  0.07928194146462887  1.0000
  O   O4        1.0  0.8718409434509411  0.6385921746746988  0.9203322488009892  1.0000
  O   O5        1.0  0.5258363511011552  0.8747731562708764  0.2384825428837516  1.0000
  O   O6        1.0  0.6395099726260797  0.12492286772783959  0.7619866993459186  1.0000
  O   O7        1.0  0.5141668572673126  0.3749851944593772  0.26177747950634983  1.0000
  O   O8        1.0  0.15030274572173136  0.6254006368255105  0.7384514987829434  1.0000
  O   O9        1.0  0.4004629699034437  0.0673075353490944  0.15912876444018312  1.0000
  O   O10       1.0  0.6260362873258528  0.9329469040717554  0.8409651243915806  1.0000
  O   O11       1.0  0.3091343980296132  0.5672053325469335  0.3408257981401235  1.0000
  O   O12       1.0  0.21795358974163268  0.4327719521607278  0.6589850174092646  1.0000
  O   O13       1.0  0.8832584092767061  0.3554981386248883  0.8554541090094291  1.0000
  O   O14       1.0  0.09362800125293089  0.6444206356433142  0.14501540694688228  1.0000
  O   O15       1.0  0.48810575003167084  0.8556289510815985  0.6445735625003126  1.0000
  O   O16       1.0  0.9885386904191974  0.1446213823435016  0.3553330900635388  1.0000
  O   O17       1.0  0.728932318786057  0.3140296345371567  0.8320230401958073  1.0000
  O   O18       1.0  0.8748658439879763  0.6858224173000947  0.1675616674816781  1.0000
  O   O19       1.0  0.3110260481010697  0.8138217023444057  0.6670763642664996  1.0000
  O   O20       1.0  0.7926206124946518  0.18615352936537727  0.3320750856698994  1.0000
  O   O21       1.0  0.44253848611995733  0.2106694034959631  0.947417127799348  1.0000
  O   O22       1.0  0.6012977012106614  0.789123111402894  0.052468036933817165  1.0000
  O   O23       1.0  0.140387624912101  0.7107437585110928  0.5523849094818517  1.0000
  O   O24       1.0  0.40333488452848326  0.2893156461115822  0.447424505597617  1.0000
