data_image0
_chemical_formula_structural       Cu2H26C26N8O8
_chemical_formula_sum              "Cu2 H26 C26 N8 O8"
_cell_length_a       8.773486939845967
_cell_length_b       8.822773175641379
_cell_length_c       10.232460522319181
_cell_angle_alpha    69.63223168886108
_cell_angle_beta     84.41409341408949
_cell_angle_gamma    77.58831421083136

_space_group_name_H-M_alt    "P 1"
_space_group_IT_number       1

loop_
  _space_group_symop_operation_xyz
  'x, y, z'

loop_
  _atom_site_type_symbol
  _atom_site_label
  _atom_site_symmetry_multiplicity
  _atom_site_fract_x
  _atom_site_fract_y
  _atom_site_fract_z
  _atom_site_occupancy
  Cu  Cu1       1.0  2.561432502528284e-06  0.49999760771240875  1.0035512688143864e-06  1.0000
  Cu  Cu2       1.0  0.49999925225789354  0.5000005267322861  0.49999995676858316  1.0000
  H   H1        1.0  0.3643556757451591  0.47942151334662947  0.9085390094297806  1.0000
  H   H2        1.0  0.6356446421592282  0.5205820549217178  0.09146091900701238  1.0000
  H   H3        1.0  0.5599177115843971  0.6020558915476144  0.7368548004925727  1.0000
  H   H4        1.0  0.4400773178882745  0.39794503982439267  0.26314157189161597  1.0000
  H   H5        1.0  0.5933049716898395  0.7592874006603338  0.7966178100692145  1.0000
  H   H6        1.0  0.4066937134375408  0.24071232759112599  0.2033776152608411  1.0000
  H   H7        1.0  0.5104855349547677  0.8129412962915908  0.6288303670569063  1.0000
  H   H8        1.0  0.48951544657036555  0.18705848235241967  0.3711658015727722  1.0000
  H   H9        1.0  0.2682113060974274  0.9955387845167959  0.7182972817492439  1.0000
  H   H10       1.0  0.7317870766324007  0.004462082932789701  0.28169292697370446  1.0000
  H   H11       1.0  0.9978043957652788  0.8920304451386017  0.8592633304231113  1.0000
  H   H12       1.0  0.0021986284744385993  0.10797059750206729  0.14073224682476845  1.0000
  H   H13       1.0  0.3179388662805779  0.014488535219371098  0.19801823380090866  1.0000
  H   H14       1.0  0.6820593058895241  0.9855089359433363  0.8019896792971152  1.0000
  H   H15       1.0  0.18632028560404726  0.5534552991367648  0.6810156932747375  1.0000
  H   H16       1.0  0.8136774822194113  0.446549432343147  0.31898215718101847  1.0000
  H   H17       1.0  0.8908230010160382  0.6404685631849104  0.6944828228454442  1.0000
  H   H18       1.0  0.10917415642137482  0.35953376239424967  0.3055197515268943  1.0000
  H   H19       1.0  0.7856652571644532  0.7125920798276721  0.5351330718893975  1.0000
  H   H20       1.0  0.21433454119499368  0.2874138970474007  0.4648632167031365  1.0000
  H   H21       1.0  0.8672367455318405  0.8517866521496414  0.5861619896820399  1.0000
  H   H22       1.0  0.13276424817188834  0.14821314509586614  0.4138351494290617  1.0000
  H   H23       1.0  0.9496378781980467  0.7790362572410527  0.2992903988035848  1.0000
  H   H24       1.0  0.050363823320488194  0.2209660947171983  0.7007097802423061  1.0000
  H   H25       1.0  0.26421759839694653  0.6803340209214922  0.2454601013016031  1.0000
  H   H26       1.0  0.7357809837107326  0.3196608742210003  0.7545427173078849  1.0000
  C   C1        1.0  0.2983676719165445  0.6041541798873523  0.8804761726589446  1.0000
  C   C2        1.0  0.7016337804391455  0.3958431157439363  0.11951975388931399  1.0000
  C   C3        1.0  0.5155646541733958  0.7279561384257605  0.7365927512089101  1.0000
  C   C4        1.0  0.4844405025513865  0.27204002849097714  0.2634061102109087  1.0000
  C   C5        1.0  0.24320728654669208  0.8748278009947583  0.7786400192580558  1.0000
  C   C6        1.0  0.7567836164407069  0.12517681651051757  0.22135754226167845  1.0000
  C   C7        1.0  0.11297379015585571  0.8214636852666641  0.8499218626075874  1.0000
  C   C8        1.0  0.887024436319571  0.17853854459902857  0.15007477528531862  1.0000
  C   C9        1.0  0.21823962042568476  0.25251678919698145  0.9566818788956651  1.0000
  C   C10       1.0  0.7817635301203084  0.7474781695275964  0.04332048535021472  1.0000
  C   C11       1.0  0.3636230014041644  0.12214882013117287  0.9779680970914056  1.0000
  C   C12       1.0  0.6363827524574577  0.8778387798567521  0.022037309244986047  1.0000
  C   C13       1.0  0.4658472304427973  0.1132573772054428  0.8650415918537959  1.0000
  C   C14       1.0  0.5341456122394775  0.886743671187517  0.1349627715635718  1.0000
  C   C15       1.0  0.3989088508098249  0.0087211849533304  0.1112191749230007  1.0000
  C   C16       1.0  0.6010866317238666  0.9912725605074681  0.8887911420291486  1.0000
  C   C17       1.0  0.44193480611544805  0.23243037343446096  0.7181804555984641  1.0000
  C   C18       1.0  0.5580671856220436  0.7675708207241808  0.28182396957311784  1.0000
  C   C19       1.0  0.16884709681620078  0.6072806914470732  0.5697154527630418  1.0000
  C   C20       1.0  0.8311541992850808  0.3927179666003154  0.43028690295516725  1.0000
  C   C21       1.0  0.884112630618226  0.7245693903647563  0.5866060134284793  1.0000
  C   C22       1.0  0.11588646758467998  0.27544032033014787  0.4133911235269068  1.0000
  C   C23       1.0  0.047343223878002015  0.7265705340609684  0.3688567122577523  1.0000
  C   C24       1.0  0.9526574872650431  0.27343670951673715  0.6311400690252994  1.0000
  C   C25       1.0  0.20248185903965782  0.6730100878966496  0.34364985695594186  1.0000
  C   C26       1.0  0.7975164039715494  0.3269921977735422  0.6563496923812266  1.0000
  N   N1        1.0  0.1484256710393126  0.6517113195221711  0.9128227765170818  1.0000
  N   N2        1.0  0.851578241626811  0.3482909526181288  0.08717135245847622  1.0000
  N   N3        1.0  0.3584919721065489  0.7354347370938042  0.7985879306749055  1.0000
  N   N4        1.0  0.6415056363245527  0.26455879833854823  0.2014095428369487  1.0000
  N   N5        1.0  0.27724764978539446  0.5988659956080368  0.46989598854496956  1.0000
  N   N6        1.0  0.7227509932152573  0.401128992541949  0.5301116824716274  1.0000
  N   N7        1.0  0.02855130900669423  0.6847541342021584  0.5118679839687984  1.0000
  N   N8        1.0  0.971451027255078  0.3152506608598459  0.4881294121233495  1.0000
  O   O1        1.0  0.17946949532198886  0.3096195339079912  0.05899587136907766  1.0000
  O   O2        1.0  0.8205347928132626  0.6903817106431943  0.941009297102127  1.0000
  O   O3        1.0  0.14545958458302977  0.3025796030972003  0.8457133803924108  1.0000
  O   O4        1.0  0.8545437952889401  0.6974141048202609  0.1542883775720512  1.0000
  O   O5        1.0  0.45900648303101116  0.38027901020109317  0.701769233546294  1.0000
  O   O6        1.0  0.5409957258538682  0.6197209145489353  0.2982336148624397  1.0000
  O   O7        1.0  0.421281653298152  0.1816968661395251  0.622709440281973  1.0000
  O   O8        1.0  0.5787189670037876  0.8183055629307031  0.3772957047619343  1.0000
