data_image0
_chemical_formula_structural       CdH16C26S2N14O6
_chemical_formula_sum              "Cd1 H16 C26 S2 N14 O6"
_cell_length_a       7.4607590561821855
_cell_length_b       8.675004373037012
_cell_length_c       13.057383619730379
_cell_angle_alpha    104.22026030625969
_cell_angle_beta     101.6475678230899
_cell_angle_gamma    102.43354359133433

_space_group_name_H-M_alt    "P 1"
_space_group_IT_number       1

loop_
  _space_group_symop_operation_xyz
  'x, y, z'

loop_
  _atom_site_type_symbol
  _atom_site_label
  _atom_site_symmetry_multiplicity
  _atom_site_fract_x
  _atom_site_fract_y
  _atom_site_fract_z
  _atom_site_occupancy
  Cd  Cd1       1.0  0.9999998119201338  1.1948485792003037e-06  0.4999997818426252  1.0000
  H   H1        1.0  0.5018659919850917  0.46787037612278953  0.3036421293733724  1.0000
  H   H2        1.0  0.49813362900123087  0.5321289364820315  0.6963592220023642  1.0000
  H   H3        1.0  0.6067805173828164  0.23452919098483696  0.3498450125522439  1.0000
  H   H4        1.0  0.39321553274303506  0.7654676190766168  0.650151702474659  1.0000
  H   H5        1.0  0.421878476360547  0.0689667182889622  0.44621829629789284  1.0000
  H   H6        1.0  0.5781162295187626  0.9310301034115868  0.5537805668998246  1.0000
  H   H7        1.0  0.03786817236605341  0.3510249366099247  0.44973456145001484  1.0000
  H   H8        1.0  0.9621339964218478  0.648978088329585  0.5502669117622788  1.0000
  H   H9        1.0  0.13556276245351018  0.8879254238359594  0.9891136209193832  1.0000
  H   H10       1.0  0.8644399675206174  0.11207511723618781  0.010885981661971274  1.0000
  H   H11       1.0  0.1688498008547369  0.8369754870910241  0.7992952002191558  1.0000
  H   H12       1.0  0.8311529208437991  0.16302504951502073  0.20070363484300913  1.0000
  H   H13       1.0  0.3386127816939464  0.41410339159250503  0.8087778341675576  1.0000
  H   H14       1.0  0.66138644362443  0.5858946826651278  0.19122327221852234  1.0000
  H   H15       1.0  0.3061348899305544  0.4438868133038413  0.9977263878744864  1.0000
  H   H16       1.0  0.6938576638151374  0.5561075344092076  0.0022725984763312043  1.0000
  C   C1        1.0  0.19842792734668535  0.5709723219733078  0.3602005325894453  1.0000
  C   C2        1.0  0.8015777709237354  0.4290331831790297  0.6398017393757129  1.0000
  C   C3        1.0  0.19381206530329112  0.6863349777919654  0.11954013330391437  1.0000
  C   C4        1.0  0.8061887178601099  0.31366803645610025  0.8804596504832248  1.0000
  C   C5        1.0  0.12463632670876015  0.7670638425080228  0.2944896345287518  1.0000
  C   C6        1.0  0.8753644647302322  0.23293917620615193  0.7055109167775768  1.0000
  C   C7        1.0  0.2624101113543844  0.4289588591989216  0.3749761787117691  1.0000
  C   C8        1.0  0.7375934347824115  0.5710441719659157  0.6250262164064893  1.0000
  C   C9        1.0  0.421843850275863  0.39329010326073177  0.3441984736004429  1.0000
  C   C10       1.0  0.5781575354517231  0.6067104494505102  0.6558032771517263  1.0000
  C   C11       1.0  0.4802808137107988  0.2622430042271874  0.3697083645222747  1.0000
  C   C12       1.0  0.5197197724052955  0.7377550673235691  0.6302921287313765  1.0000
  C   C13       1.0  0.37815590520848014  0.17093177763840836  0.4239379414997728  1.0000
  C   C14       1.0  0.6218415470930407  0.8290650520467011  0.5760619979906778  1.0000
  C   C15       1.0  0.16499974940519022  0.3286459600460319  0.4270064374660478  1.0000
  C   C16       1.0  0.8350020154391659  0.6713558220801802  0.572994023237392  1.0000
  C   C17       1.0  0.2166398803920515  0.6681729844269952  0.009156292466123319  1.0000
  C   C18       1.0  0.7833624621897214  0.33182632276407287  0.9908438326447637  1.0000
  C   C19       1.0  0.17910422392597514  0.7797783332479754  0.9520668431810578  1.0000
  C   C20       1.0  0.820894390552624  0.2202221980803856  0.047931528720795286  1.0000
  C   C21       1.0  0.19845353261418094  0.7518307610773576  0.8455027529607904  1.0000
  C   C22       1.0  0.8015489920370558  0.24816483283137106  0.15449679156787977  1.0000
  C   C23       1.0  0.2919340837420917  0.5176099245563037  0.8505370538890561  1.0000
  C   C24       1.0  0.7080643419647925  0.48238566854084297  0.14946279499850587  1.0000
  C   C25       1.0  0.2750529304509827  0.5337343472431686  0.9565273775667863  1.0000
  C   C26       1.0  0.724940793747379  0.4662637065792268  0.0434708087146305  1.0000
  S   S1        1.0  0.10997013611644493  0.8486689432467575  0.18704142577228575  1.0000
  S   S2        1.0  0.8900329812500374  0.15133283170647624  0.8129576542795364  1.0000
  N   N1        1.0  0.09425338885824887  0.792639941290979  0.39317998715470287  1.0000
  N   N2        1.0  0.9057477982486901  0.20736431577038425  0.6068208091412971  1.0000
  N   N3        1.0  0.14100113093267194  0.6698058986273593  0.4338386288857308  1.0000
  N   N4        1.0  0.8590031899888404  0.3301996002996432  0.5661627211734626  1.0000
  N   N5        1.0  0.19009880481162614  0.6295158646819206  0.27099300910546026  1.0000
  N   N6        1.0  0.8099033557006764  0.37048715579148706  0.7290076965876436  1.0000
  N   N7        1.0  0.22711246379221708  0.5810960137509157  0.17266437695702314  1.0000
  N   N8        1.0  0.7728928388102503  0.4189082530542407  0.8273376500184713  1.0000
  N   N9        1.0  0.22176926294411461  0.20201698822465627  0.4509070489976779  1.0000
  N   N10       1.0  0.778229376361253  0.7979835565020181  0.549093625461758  1.0000
  N   N11       1.0  0.25350231518728344  0.6228964036747157  0.7944411660231125  1.0000
  N   N12       1.0  0.7465000273944823  0.37710290351635223  0.20555895908778152  1.0000
  N   N13       1.0  0.32908283605650007  0.08594236386407769  0.7228469195608582  1.0000
  N   N14       1.0  0.6709163644351008  0.9140556969952343  0.2771518842676387  1.0000
  O   O1        1.0  0.15352361589976468  0.9957339163838055  0.6795257539023537  1.0000
  O   O2        1.0  0.8464746111864797  0.004265381063469  0.3204731405290318  1.0000
  O   O3        1.0  0.394912307111099  0.1264037205309805  0.8248446480743327  1.0000
  O   O4        1.0  0.605088262453819  0.8735943420875572  0.17515431014093252  1.0000
  O   O5        1.0  0.42636295115907785  0.12906008121026252  0.6610022447482252  1.0000
  O   O6        1.0  0.5736362493325303  0.8709379796490497  0.33899655908027176  1.0000
