data_image0
_chemical_formula_structural       Li8H52C44N4O28
_chemical_formula_sum              "Li8 H52 C44 N4 O28"
_cell_length_a       8.128308756315892
_cell_length_b       11.312768387159204
_cell_length_c       15.74357890004614
_cell_angle_alpha    89.9997841032096
_cell_angle_beta     89.99988956299198
_cell_angle_gamma    104.85301284329002

_space_group_name_H-M_alt    "P 1"
_space_group_IT_number       1

loop_
  _space_group_symop_operation_xyz
  'x, y, z'

loop_
  _atom_site_type_symbol
  _atom_site_label
  _atom_site_symmetry_multiplicity
  _atom_site_fract_x
  _atom_site_fract_y
  _atom_site_fract_z
  _atom_site_occupancy
  Li  Li1       1.0  0.4397606953632619  0.4931221124876542  0.91459357640413  1.0000
  Li  Li2       1.0  0.5602406057940286  0.0068769556395765  0.41459540552484964  1.0000
  Li  Li3       1.0  0.5602381562374887  0.5068779629186793  0.08540655895311033  1.0000
  Li  Li4       1.0  0.43976102970602693  0.9931240433528573  0.5854053650093576  1.0000
  Li  Li5       1.0  0.14044423725680846  0.5814013410980295  0.9661524039937606  1.0000
  Li  Li6       1.0  0.859556990800158  0.9186000741118789  0.46615219429300236  1.0000
  Li  Li7       1.0  0.8595589990098703  0.41860423040559164  0.0338490017130937  1.0000
  Li  Li8       1.0  0.1404440043963007  0.08139909587932691  0.5338473058848054  1.0000
  H   H1        1.0  0.2172875473607689  0.8209091500673721  0.7341736594575183  1.0000
  H   H2        1.0  0.7827141177961964  0.6790910044208757  0.23417353458383872  1.0000
  H   H3        1.0  0.7827050961377965  0.1790872491655264  0.26582393518938124  1.0000
  H   H4        1.0  0.21729062176643052  0.3209118326704541  0.7658246952279983  1.0000
  H   H5        1.0  0.20062686306356878  0.4961650925895426  0.8260598189044901  1.0000
  H   H6        1.0  0.7993721875726295  0.0038336178559106007  0.3260595133799029  1.0000
  H   H7        1.0  0.7993735405665562  0.5038359018642068  0.1739396812711504  1.0000
  H   H8        1.0  0.2006242002844445  0.9961664484689905  0.6739393516193887  1.0000
  H   H9        1.0  0.3029253864500063  0.6397055738570856  0.8225864132430093  1.0000
  H   H10       1.0  0.6970720504422091  0.860294001878124  0.3225858863050348  1.0000
  H   H11       1.0  0.6970704098369113  0.36029631692630204  0.17741372211330744  1.0000
  H   H12       1.0  0.30292771287858505  0.1397051635683084  0.67741424905298  1.0000
  H   H13       1.0  0.07006287959257664  0.7165604242882323  0.8499436104552701  1.0000
  H   H14       1.0  0.9299378654430016  0.783445382651763  0.3499405182971388  1.0000
  H   H15       1.0  0.929929763902159  0.283435974940609  0.1500552545508071  1.0000
  H   H16       1.0  0.0700659623976634  0.21655836439742868  0.6500583466935127  1.0000
  H   H17       1.0  0.8333131541711438  0.902412666808914  0.6654175943275364  1.0000
  H   H18       1.0  0.1666858698900882  0.597589742534076  0.16541893496737714  1.0000
  H   H19       1.0  0.16667579369850932  0.09758371878763938  0.3345825410395733  1.0000
  H   H20       1.0  0.8333185495111695  0.4024121800464897  0.8345818355642081  1.0000
  H   H21       1.0  0.5399508106062001  0.706122215477208  0.8722489930361662  1.0000
  H   H22       1.0  0.4600463270913907  0.793877042818096  0.3722488798101438  1.0000
  H   H23       1.0  0.46004183288087575  0.2938741837435188  0.127752412688281  1.0000
  H   H24       1.0  0.5399580923156151  0.20612487976855934  0.6277499851826677  1.0000
  H   H25       1.0  0.17063368174204632  0.8761275938591307  0.08303322506121451  1.0000
  H   H26       1.0  0.8293651983537061  0.6238735130881068  0.583029461103834  1.0000
  H   H27       1.0  0.8293669932853974  0.1238706616131964  0.9169713565546973  1.0000
  H   H28       1.0  0.17063675730196343  0.37612840040900153  0.4169706742493987  1.0000
  H   H29       1.0  0.3031909038674385  0.029828972320899497  0.09002000178335832  1.0000
  H   H30       1.0  0.6968110720877122  0.4701685124521333  0.5900179792908062  1.0000
  H   H31       1.0  0.6968119147595431  0.9701683777403499  0.9099826742939359  1.0000
  H   H32       1.0  0.3031890113867918  0.5298315674969415  0.4099821560658158  1.0000
  H   H33       1.0  0.27152721703267696  0.933513470050478  0.18134365419434323  1.0000
  H   H34       1.0  0.7284732143807063  0.5664861030856443  0.681340779775475  1.0000
  H   H35       1.0  0.7284774737716405  0.06648571355474792  0.8186602922387467  1.0000
  H   H36       1.0  0.2715284211231648  0.4335148959108466  0.31865872039954724  1.0000
  H   H37       1.0  0.6914303457295362  0.9062952894436265  0.09999603227712582  1.0000
  H   H38       1.0  0.30856774310777985  0.5937002265876501  0.599997947624729  1.0000
  H   H39       1.0  0.3085700091595029  0.0937020515422873  0.900003467903453  1.0000
  H   H40       1.0  0.6914323403648128  0.4062998533593927  0.40000282291148187  1.0000
  H   H41       1.0  0.5930221212102538  0.9533892288041412  0.19080827905622755  1.0000
  H   H42       1.0  0.40697975646278917  0.5466075494052518  0.6908076826139296  1.0000
  H   H43       1.0  0.40698412162726794  0.0466108738525577  0.8091937618360845  1.0000
  H   H44       1.0  0.5930200068579978  0.4533916160411806  0.3091924527440782  1.0000
  H   H45       1.0  0.6327326248831113  0.048596407862326885  0.09884880937222112  1.0000
  H   H46       1.0  0.36726528209892  0.4514000923375931  0.5988497050418291  1.0000
  H   H47       1.0  0.3672664981302631  0.9514009285788204  0.9011513259885648  1.0000
  H   H48       1.0  0.6327382255842054  0.548602740204899  0.4011504303094001  1.0000
  H   H49       1.0  0.5283838237537071  0.7603217034945614  0.0281606735497348  1.0000
  H   H50       1.0  0.4716174817736843  0.7396751953057575  0.5281575884977486  1.0000
  H   H51       1.0  0.4716233308038583  0.23967748920224352  0.9718413673433447  1.0000
  H   H52       1.0  0.5283850654540672  0.2603248937348964  0.4718406413188633  1.0000
  C   C1        1.0  0.8024613856913447  0.7015820345546259  0.8685146480830641  1.0000
  C   C2        1.0  0.1975385584043607  0.7984181711975963  0.3685147831345149  1.0000
  C   C3        1.0  0.19753248967905532  0.29841436921898895  0.1314835817428062  1.0000
  C   C4        1.0  0.8024649005396043  0.20158100787909214  0.6314847170420493  1.0000
  C   C5        1.0  0.9581762787960457  0.7423727019573507  0.8265393079437262  1.0000
  C   C6        1.0  0.04182177458839925  0.7576286775156829  0.3265390719655556  1.0000
  C   C7        1.0  0.04181358080130341  0.257622773687423  0.1734582867057952  1.0000
  C   C8        1.0  0.9581810927911435  0.24237232602558115  0.6734597930292595  1.0000
  C   C9        1.0  0.969833743002859  0.8162607470594453  0.7540918891182857  1.0000
  C   C10       1.0  0.030162874659040967  0.6837392619400119  0.2540924984879069  1.0000
  C   C11       1.0  0.030154293154396303  0.18373654850512366  0.24590570552969385  1.0000
  C   C12       1.0  0.9698415447498762  0.3162626606486754  0.7459057313253155  1.0000
  C   C13       1.0  0.8246340993403295  0.8473254270111001  0.7228112301118301  1.0000
  C   C14       1.0  0.17536388990166077  0.652671133002464  0.22281304926269746  1.0000
  C   C15       1.0  0.175355760253197  0.1526700486296164  0.2771876348968689  1.0000
  C   C16       1.0  0.8246405295015153  0.3473307895801269  0.7771870860892989  1.0000
  C   C17       1.0  0.668305257643958  0.8049040435151226  0.7644372239724933  1.0000
  C   C18       1.0  0.3316915691039384  0.6950931603917565  0.2644381388005783  1.0000
  C   C19       1.0  0.33168706569132683  0.1950914412049869  0.23556354657375075  1.0000
  C   C20       1.0  0.6683122587367265  0.3049105866574421  0.735560726190073  1.0000
  C   C21       1.0  0.6592225412273367  0.7348212558441817  0.8380508261348754  1.0000
  C   C22       1.0  0.3407741621879908  0.7651763920346824  0.3380515435795176  1.0000
  C   C23       1.0  0.3407654461811873  0.26517238624444417  0.1619493092363982  1.0000
  C   C24       1.0  0.659229616903943  0.23482370153856638  0.6619498621344351  1.0000
  C   C25       1.0  0.7821572917784607  0.6172209981831925  0.9434716798356106  1.0000
  C   C26       1.0  0.2178434813639144  0.8827823864742117  0.44346775690976165  1.0000
  C   C27       1.0  0.21784343199389158  0.38278091076102055  0.05653163141618481  1.0000
  C   C28       1.0  0.7821556903924574  0.11721860343679677  0.5565317432664971  1.0000
  C   C29       1.0  0.5093608341064596  0.8324437698183332  0.7301629751121723  1.0000
  C   C30       1.0  0.49064085521008144  0.6675564103027796  0.23016380623885627  1.0000
  C   C31       1.0  0.4906355050056987  0.16755264303468212  0.26983716025123533  1.0000
  C   C32       1.0  0.5093617407549189  0.33244733220164585  0.7698356939320095  1.0000
  C   C33       1.0  0.2850835868314476  0.9350414377960519  0.11185880928290003  1.0000
  C   C34       1.0  0.7149147994417152  0.564958570389095  0.6118578579618303  1.0000
  C   C35       1.0  0.7149183200773948  0.06495682222713128  0.8881432316140376  1.0000
  C   C36       1.0  0.2850865646437982  0.43504516756649286  0.3881435477484204  1.0000
  C   C37       1.0  0.5962135934793551  0.953269701753548  0.12103252924881502  1.0000
  C   C38       1.0  0.4037856005043992  0.546725684365164  0.6210319356552816  1.0000
  C   C39       1.0  0.40378831343140587  0.046728558271667  0.8789688764685268  1.0000
  C   C40       1.0  0.596214482972016  0.453274395585943  0.37896756452175145  1.0000
  C   C41       1.0  0.4098551225981027  0.7886514751999699  0.0398835688074541  1.0000
  C   C42       1.0  0.5901445602713551  0.7113444296173482  0.5398823478285095  1.0000
  C   C43       1.0  0.5901511202451601  0.2113486274628258  0.9601165665460842  1.0000
  C   C44       1.0  0.40985707522869325  0.28865656937508527  0.4601184227056977  1.0000
  N   N1        1.0  0.43037518915163986  0.889528518921203  0.08776453095394743  1.0000
  N   N2        1.0  0.5696266690102122  0.6104670889361046  0.5877616959370898  1.0000
  N   N3        1.0  0.5696313250946831  0.11046884476625247  0.9122387803010883  1.0000
  N   N4        1.0  0.4303746463361335  0.3895329955536793  0.412239074598503  1.0000
  O   O1        1.0  0.6389816430887408  0.592726408361294  0.9818163053134656  1.0000
  O   O2        1.0  0.3610163378050189  0.9072694151681658  0.4818159855695258  1.0000
  O   O3        1.0  0.36101624804705784  0.40727092353304784  0.0181851004071163  1.0000
  O   O4        1.0  0.6389853464399452  0.0927352372961536  0.5181835146005654  1.0000
  O   O5        1.0  0.9026126037888461  0.5704591692067352  0.9642973161533066  1.0000
  O   O6        1.0  0.09739489230818778  0.929549587524022  0.46429275187475144  1.0000
  O   O7        1.0  0.09739652042249246  0.42954916396361387  0.035707900624458916  1.0000
  O   O8        1.0  0.9026079750694438  0.0704514160152101  0.5357067482996529  1.0000
  O   O9        1.0  0.5229682099211743  0.9099091372930344  0.6715446805578511  1.0000
  O   O10       1.0  0.4770301856694702  0.5900950573577716  0.17154319267812929  1.0000
  O   O11       1.0  0.4770296812203584  0.09008819460739662  0.3284548196239642  1.0000
  O   O12       1.0  0.5229693549912612  0.40991050053385447  0.828453131593861  1.0000
  O   O13       1.0  0.3656852795839215  0.7740777193536986  0.763254711144228  1.0000
  O   O14       1.0  0.6343152986515435  0.7259231592089747  0.26325524282670903  1.0000
  O   O15       1.0  0.6343101965511978  0.22592325692907167  0.23674478903388524  1.0000
  O   O16       1.0  0.3656844646711618  0.2740760062394897  0.7367442573517097  1.0000
  O   O17       1.0  0.11945025937888687  0.8571050571834247  0.7117403865740641  1.0000
  O   O18       1.0  0.8805475251471435  0.6428943125592497  0.21174216744869065  1.0000
  O   O19       1.0  0.880541792555249  0.1428931665140496  0.28825657289108625  1.0000
  O   O20       1.0  0.11945534223239924  0.35710669098201453  0.7882566975461317  1.0000
  O   O21       1.0  0.27031711762683847  0.7300323651746865  0.010429804021768503  1.0000
  O   O22       1.0  0.7296914145495776  0.7699674131803886  0.5104270166556476  1.0000
  O   O23       1.0  0.7296965652019268  0.2699714182144248  0.9895696961435405  1.0000
  O   O24       1.0  0.2703117729779335  0.23003450485742857  0.48957375387655605  1.0000
  O   O25       1.0  0.2626772780120917  0.5676831538874865  0.8607900416586747  1.0000
  O   O26       1.0  0.7373211605959185  0.9323161821971767  0.3607892811995015  1.0000
  O   O27       1.0  0.7373206618666972  0.4323178314767091  0.13921072887738722  1.0000
  O   O28       1.0  0.26267801115853473  0.0676848077117995  0.6392108541563533  1.0000
