data_image0
_chemical_formula_structural       Al3H27C81Br18O18
_chemical_formula_sum              "Al3 H27 C81 Br18 O18"
_cell_length_a       4.068754382829593
_cell_length_b       27.893524137500986
_cell_length_c       27.918295863375008
_cell_angle_alpha    60.020762658505696
_cell_angle_beta     89.74006135329029
_cell_angle_gamma    89.46492400385148

_space_group_name_H-M_alt    "P 1"
_space_group_IT_number       1

loop_
  _space_group_symop_operation_xyz
  'x, y, z'

loop_
  _atom_site_type_symbol
  _atom_site_label
  _atom_site_symmetry_multiplicity
  _atom_site_fract_x
  _atom_site_fract_y
  _atom_site_fract_z
  _atom_site_occupancy
  Al  Al1       1.0  0.999592909771785  0.5000026516183169  0.4999781004332462  1.0000
  Al  Al2       1.0  0.949116288960098  0.8331776618443101  0.8332997417791362  1.0000
  Al  Al3       1.0  0.062096321113593  0.16639695661336873  0.16633689699483506  1.0000
  H   H1        1.0  0.5134754874795179  0.07747217661624728  0.9223210934137355  1.0000
  H   H2        1.0  0.49628717365909847  0.25519756321862985  0.8333995630198173  1.0000
  H   H3        1.0  0.5249366896101365  0.16609007980211032  0.7447601641540089  1.0000
  H   H4        1.0  0.7144352994837889  0.012839302898093855  0.9146507446700554  1.0000
  H   H5        1.0  0.2541385645637177  0.09726038958051929  0.7534107251453577  1.0000
  H   H6        1.0  0.3078482198098627  0.08548403076015615  0.986055227302174  1.0000
  H   H7        1.0  0.7624520503901806  0.24669805449630638  0.9027179936847746  1.0000
  H   H8        1.0  0.7501447777512383  0.31669837610406393  0.7622837720479367  1.0000
  H   H9        1.0  0.268070232053141  0.23738535142282297  0.6831795439552978  1.0000
  H   H10       1.0  0.5125079173749612  0.49976083777001895  0.07760771544651841  1.0000
  H   H11       1.0  0.5253547414190578  0.5888922988332511  0.1661963904739637  1.0000
  H   H12       1.0  0.49631179852633533  0.4112232056127994  0.25520912835960974  1.0000
  H   H13       1.0  0.29852490714286267  0.42833184535114555  0.08580403640832655  1.0000
  H   H14       1.0  0.7614761450276434  0.34951632642020064  0.2468376159179257  1.0000
  H   H15       1.0  0.7240146482219602  0.5715727406388496  0.013825703757348177  1.0000
  H   H16       1.0  0.2529541828043805  0.6497393523430689  0.09674341450003957  1.0000
  H   H17       1.0  0.2604743702085131  0.5792992354375669  0.23739237318270776  1.0000
  H   H18       1.0  0.7593097122250825  0.42099903275496336  0.31656689744578165  1.0000
  H   H19       1.0  0.4839895767631715  0.9229303340640627  0.49972102729944373  1.0000
  H   H20       1.0  0.46585419661350613  0.8341460262421235  0.4108407806384236  1.0000
  H   H21       1.0  0.4924906319091065  0.7451410712220365  0.5884042127943515  1.0000
  H   H22       1.0  0.6921248978669325  0.9146365575304429  0.5712396337914922  1.0000
  H   H23       1.0  0.2358326446953498  0.7535368772637769  0.650049683367257  1.0000
  H   H24       1.0  0.28075846133071997  0.9878383425331237  0.42686803459497474  1.0000
  H   H25       1.0  0.7480362291686048  0.9020457566387493  0.35131419290177496  1.0000
  H   H26       1.0  0.7262963052807692  0.7627454400665455  0.42058085556169533  1.0000
  H   H27       1.0  0.234914027131957  0.6836986389337126  0.5786901476880361  1.0000
  C   C1        1.0  0.49415582705363204  0.5738005893846889  0.4999367592839549  1.0000
  C   C2        1.0  0.5022136383688292  0.4262976047883671  0.5736747825141677  1.0000
  C   C3        1.0  0.5022819708739164  0.5000360113848359  0.4262235725558128  1.0000
  C   C4        1.0  0.4463744334711565  0.9067247644012111  0.8333266731166376  1.0000
  C   C5        1.0  0.45221812342221307  0.7596374208919698  0.9068531145737923  1.0000
  C   C6        1.0  0.45111856162471037  0.8329085930505259  0.7599429212602472  1.0000
  C   C7        1.0  0.5636092758854403  0.16685450945114874  0.09263759398419324  1.0000
  C   C8        1.0  0.5564612897693165  0.23973108292085496  0.16695451745729883  1.0000
  C   C9        1.0  0.5629636291503246  0.0926970953018724  0.2397338810106078  1.0000
  C   C10       1.0  0.5192740313463561  0.16630521311260077  0.884029204141207  1.0000
  C   C11       1.0  0.5129307761183597  0.11646236805368206  0.8832949311011333  1.0000
  C   C12       1.0  0.5050140664513948  0.11558317415695284  0.8335727472447729  1.0000
  C   C13       1.0  0.511511304116887  0.16612983444501594  0.7837130640429991  1.0000
  C   C14       1.0  0.5111294469418297  0.21673214314202477  0.7830000858247671  1.0000
  C   C15       1.0  0.5112183538517031  0.21614163454411542  0.8334956086976247  1.0000
  C   C16       1.0  0.5771559897865542  0.9631822641613114  0.8794979768191381  1.0000
  C   C17       1.0  0.6018658892068488  0.013028674755943888  0.879271228585523  1.0000
  C   C18       1.0  0.48938338663791103  0.06249919872979609  0.8337844633329823  1.0000
  C   C19       1.0  0.35586514253346024  0.06030783750229312  0.7886669272455721  1.0000
  C   C20       1.0  0.345989507470037  0.010402198780724162  0.7887459996892474  1.0000
  C   C21       1.0  0.45421039518672046  0.960472280244119  0.834045620079408  1.0000
  C   C22       1.0  0.417542443500956  0.12087056811915194  0.9861417364500581  1.0000
  C   C23       1.0  0.43744176900585063  0.1207696899036321  0.035948420194031896  1.0000
  C   C24       1.0  0.5569269713311301  0.16627317313582074  0.03885688544019672  1.0000
  C   C25       1.0  0.6658839094733509  0.2115386893939259  0.9892172700062148  1.0000
  C   C26       1.0  0.660654710314617  0.21147057539027264  0.93940788277812  1.0000
  C   C27       1.0  0.531457485004438  0.16624186609923444  0.9370095780158748  1.0000
  C   C28       1.0  0.638683140716594  0.31777134635635923  0.7264115269729672  1.0000
  C   C29       1.0  0.6347500740064618  0.3676966267223066  0.676614443009143  1.0000
  C   C30       1.0  0.5049710886406302  0.3725154558017039  0.6273946066696966  1.0000
  C   C31       1.0  0.37785130534650335  0.32320419347356477  0.6322207531762841  1.0000
  C   C32       1.0  0.3780132915234803  0.27333659147148387  0.6820723315605831  1.0000
  C   C33       1.0  0.5095093532578828  0.26968047465923217  0.730076097023499  1.0000
  C   C34       1.0  0.5054987148762394  0.5505050953014745  0.11570884587608529  1.0000
  C   C35       1.0  0.512108425636363  0.4998365935148925  0.11658059050716217  1.0000
  C   C36       1.0  0.5173084927521714  0.44926695257891675  0.166402389285281  1.0000
  C   C37       1.0  0.5111289043456181  0.4500997637236068  0.2161848293819091  1.0000
  C   C38       1.0  0.5117483726306917  0.5000631355163989  0.21675156241639829  1.0000
  C   C39       1.0  0.5119195265078035  0.549906657395681  0.16619971349273033  1.0000
  C   C40       1.0  0.4274706050183569  0.3427458364675715  0.12116394355899018  1.0000
  C   C41       1.0  0.40930077373494816  0.39259068910672557  0.1211816830809481  1.0000
  C   C42       1.0  0.5267182737733904  0.39620028493442305  0.1664487161350223  1.0000
  C   C43       1.0  0.6567904862611654  0.3482380098509666  0.21169210483860476  1.0000
  C   C44       1.0  0.6598078198735634  0.2982571102110684  0.2118531945625506  1.0000
  C   C45       1.0  0.5483779870659758  0.294049941666195  0.16662747566277153  1.0000
  C   C46       1.0  0.6093927687751018  0.6070908413120222  0.013622753557008632  1.0000
  C   C47       1.0  0.586945978709153  0.6567880114415987  0.9637761389946887  1.0000
  C   C48       1.0  0.46124622958524947  0.7052718978000172  0.9606874184686873  1.0000
  C   C49       1.0  0.34950494445977404  0.7009928642256043  0.01026658434722795  1.0000
  C   C50       1.0  0.3576043620163106  0.6511453942743871  0.06012244031586521  1.0000
  C   C51       1.0  0.49221929729400665  0.6034162813076378  0.06267220421764108  1.0000
  C   C52       1.0  0.3741186379411019  0.5445175182939009  0.27330599154947066  1.0000
  C   C53       1.0  0.37351273650896394  0.5445397280878836  0.323164424101023  1.0000
  C   C54       1.0  0.5055384439246923  0.5001426451026134  0.372410040204862  1.0000
  C   C55       1.0  0.6403490403933105  0.45576144605725943  0.3675495585251766  1.0000
  C   C56       1.0  0.6444522135476448  0.45582336931440887  0.31766154251744183  1.0000
  C   C57       1.0  0.5104769603813325  0.5001719784624045  0.26963401796766123  1.0000
  C   C58       1.0  0.48898750030931387  0.8846465462943769  0.4491677846879582  1.0000
  C   C59       1.0  0.4816661349088776  0.8838761372605929  0.499740280263012  1.0000
  C   C60       1.0  0.47370325960335435  0.8340520658876615  0.5502838642958708  1.0000
  C   C61       1.0  0.47852357098061293  0.7841909201452496  0.5495148340758647  1.0000
  C   C62       1.0  0.4780404562051856  0.7835400315410297  0.4996473829137358  1.0000
  C   C63       1.0  0.47937846179573995  0.8341084398893057  0.4498200455679465  1.0000
  C   C64       1.0  0.5710904491766798  0.8789604361990871  0.6569043366219134  1.0000
  C   C65       1.0  0.584198631324618  0.8791783908653771  0.6069687751808954  1.0000
  C   C66       1.0  0.46660990393597507  0.83398098587179  0.6033250264597143  1.0000
  C   C67       1.0  0.3406287858227656  0.7886392162136103  0.6513282036588138  1.0000
  C   C68       1.0  0.3425185181420148  0.7882222802258315  0.7013952708696819  1.0000
  C   C69       1.0  0.454767940452079  0.8333618476411434  0.7056236907970614  1.0000
  C   C70       1.0  0.3962374904444772  0.9872899474812584  0.3919030299598205  1.0000
  C   C71       1.0  0.4246505387402806  0.03691412456957021  0.34218386608532103  1.0000
  C   C72       1.0  0.5515926566829917  0.03912781692202572  0.2942964709529221  1.0000
  C   C73       1.0  0.6602212229423258  0.9889420644531767  0.2993355461850555  1.0000
  C   C74       1.0  0.6461552115771312  0.9392494430678511  0.34925232427948316  1.0000
  C   C75       1.0  0.5085153292043002  0.9375592662117856  0.39625637092576227  1.0000
  C   C76       1.0  0.61501672428183  0.7268359788542044  0.45535624192498864  1.0000
  C   C77       1.0  0.6176394987745013  0.6769146870100045  0.4553930797458393  1.0000
  C   C78       1.0  0.4890956816094489  0.6276406740754297  0.49982618059907946  1.0000
  C   C79       1.0  0.3553112997593005  0.632547614941757  0.5441259735410496  1.0000
  C   C80       1.0  0.3490769832083984  0.682529959165194  0.543958551005531  1.0000
  C   C81       1.0  0.4800608931179158  0.7305698536834698  0.4996262102441449  1.0000
  Br  Br1       1.0  0.17847225639824418  0.011129969829042442  0.7249845895627304  1.0000
  Br  Br2       1.0  0.7165289508328386  0.897544406612255  0.9438270901751694  1.0000
  Br  Br3       1.0  0.2959495508531944  0.0565708898624706  0.10118132467108859  1.0000
  Br  Br4       1.0  0.8275839075824011  0.27539987605487687  0.9888096200609909  1.0000
  Br  Br5       1.0  0.803342231247136  0.4287738553782107  0.681141557652481  1.0000
  Br  Br6       1.0  0.20754721107692836  0.31859685394042714  0.5712410278514426  1.0000
  Br  Br7       1.0  0.8218293349960248  0.23441121590045802  0.27579800342205374  1.0000
  Br  Br8       1.0  0.2819763203148185  0.34191642179199283  0.05707807369728364  1.0000
  Br  Br9       1.0  0.7342326806306404  0.6577145329176304  0.898701970349876  1.0000
  Br  Br10      1.0  0.1808553444013015  0.7645680146816006  0.010558672871937376  1.0000
  Br  Br11      1.0  0.19486804770768631  0.6100147635297191  0.3186786245396006  1.0000
  Br  Br12      1.0  0.814815612838693  0.3901706935602292  0.4285542938849288  1.0000
  Br  Br13      1.0  0.18701997863072256  0.7240159034308391  0.7652749185036142  1.0000
  Br  Br14      1.0  0.718260363122134  0.9428572912114602  0.6578979368439163  1.0000
  Br  Br15      1.0  0.2851190824574132  0.10290966632111058  0.3403712052561332  1.0000
  Br  Br16      1.0  0.8339336606084371  0.9875667138643609  0.23676039912135138  1.0000
  Br  Br17      1.0  0.79329199306612  0.6813757930512667  0.38996134876641253  1.0000
  Br  Br18      1.0  0.1852215404322237  0.5715112518047081  0.6097075682003633  1.0000
  O   O1        1.0  0.7392009778707518  0.475896475854384  0.4594371788427267  1.0000
  O   O2        1.0  0.7327945259703271  0.5647787612333205  0.4759228878118194  1.0000
  O   O3        1.0  0.7369434995610149  0.45951496634309313  0.5645838772403381  1.0000
  O   O4        1.0  0.2631332723501885  0.5240641743808894  0.4352586959927791  1.0000
  O   O5        1.0  0.2655755739580599  0.4352835713212145  0.5406124757344131  1.0000
  O   O6        1.0  0.2591251563331696  0.5405496761957451  0.5240524873801249  1.0000
  O   O7        1.0  0.6879451843782505  0.8083996828516928  0.7928803202240289  1.0000
  O   O8        1.0  0.6817558036612111  0.8980223965443342  0.8085615246552537  1.0000
  O   O9        1.0  0.6854354537088412  0.7929091174640134  0.8981948998672918  1.0000
  O   O10       1.0  0.21166769095415114  0.8571699116012825  0.7684305657495828  1.0000
  O   O11       1.0  0.2137490878439792  0.7679842669425413  0.8744370787860163  1.0000
  O   O12       1.0  0.20782358095824804  0.8745018156987784  0.8573242526865742  1.0000
  O   O13       1.0  0.8017018413297663  0.12479149298034997  0.23156571434849843  1.0000
  O   O14       1.0  0.8036449974626051  0.1427266414527395  0.12490558617959378  1.0000
  O   O15       1.0  0.7965052016289674  0.23143203761776482  0.14278435083711827  1.0000
  O   O16       1.0  0.32989343835392754  0.10148829485404329  0.2061730393297054  1.0000
  O   O17       1.0  0.3223038698261149  0.20653600124771293  0.1913758486964028  1.0000
  O   O18       1.0  0.3272372795692248  0.19148789774159522  0.1013936784583152  1.0000
