data_image0
_chemical_formula_structural       Cu4H52C64S4N12O20
_chemical_formula_sum              "Cu4 H52 C64 S4 N12 O20"
_cell_length_a       6.96155411608588
_cell_length_b       13.031219750019453
_cell_length_c       24.282695485264142
_cell_angle_alpha    90.00015132054187
_cell_angle_beta     90.00053299298654
_cell_angle_gamma    90.00013038253529

_space_group_name_H-M_alt    "P 1"
_space_group_IT_number       1

loop_
  _space_group_symop_operation_xyz
  'x, y, z'

loop_
  _atom_site_type_symbol
  _atom_site_label
  _atom_site_symmetry_multiplicity
  _atom_site_fract_x
  _atom_site_fract_y
  _atom_site_fract_z
  _atom_site_occupancy
  Cu  Cu1       1.0  0.6138456617940805  0.688184677519665  0.6413984114595834  1.0000
  Cu  Cu2       1.0  0.38614965099795023  0.18818305497754298  0.35860212425578913  1.0000
  Cu  Cu3       1.0  0.1138572422169446  0.6881665001593619  0.8586034236395648  1.0000
  Cu  Cu4       1.0  0.8861682362525726  0.18818895415432021  0.141398759372656  1.0000
  H   H1        1.0  0.23397857734512675  0.6758715914047073  0.5945426990637799  1.0000
  H   H2        1.0  0.7660195558087892  0.17587066426263934  0.40545658404592905  1.0000
  H   H3        1.0  0.7339953359973846  0.6758726725323144  0.9054540983664694  1.0000
  H   H4        1.0  0.26603583582410556  0.17588032659250533  0.0945480675078016  1.0000
  H   H5        1.0  0.5490696181792031  0.6378160343315001  0.8148588483232544  1.0000
  H   H6        1.0  0.4509441536438458  0.13782513341234187  0.18513832269258756  1.0000
  H   H7        1.0  0.04905424622366181  0.6378138716693867  0.6851382069718852  1.0000
  H   H8        1.0  0.9509379786876195  0.13781578524741886  0.3148606112696442  1.0000
  H   H9        1.0  0.11144287604053459  0.8672050621569696  0.578338530658094  1.0000
  H   H10       1.0  0.8885287808008969  0.3672058995440111  0.4216601954710768  1.0000
  H   H11       1.0  0.6114687585450936  0.8671855049131594  0.9216693127448822  1.0000
  H   H12       1.0  0.3885718484407761  0.36720627214315016  0.0783335316254679  1.0000
  H   H13       1.0  0.3088146697217056  0.9862752169708601  0.510615351332099  1.0000
  H   H14       1.0  0.6911804786124732  0.4862822927704968  0.48938436442957567  1.0000
  H   H15       1.0  0.8088168063518708  0.986282857093556  0.9893894989090413  1.0000
  H   H16       1.0  0.1912070712157217  0.4862792569934983  0.010610628711575  1.0000
  H   H17       1.0  0.5096338679713098  0.4833127026351108  0.6137475695032251  1.0000
  H   H18       1.0  0.49034259356572807  0.9832998532270877  0.38624431758738353  1.0000
  H   H19       1.0  0.009663547444887398  0.4832977331478077  0.8862446311796505  1.0000
  H   H20       1.0  0.9903459527314952  0.9833033119266545  0.1137513741077072  1.0000
  H   H21       1.0  0.440648185811753  0.31604447239458  0.6591508834695787  1.0000
  H   H22       1.0  0.5592758493217573  0.8160261078016263  0.3408382995053145  1.0000
  H   H23       1.0  0.9406715497768942  0.3160191391005967  0.8408422790802135  1.0000
  H   H24       1.0  0.0592955792647203  0.8160268847314711  0.1591555520711196  1.0000
  H   H25       1.0  0.4475792912332892  0.30904769617377076  0.7639679173317191  1.0000
  H   H26       1.0  0.5523360953391716  0.809045681311609  0.236022903153831  1.0000
  H   H27       1.0  0.9475677866861075  0.309033349277449  0.7360215482991207  1.0000
  H   H28       1.0  0.052359091609417895  0.8090439130809203  0.2639738021659852  1.0000
  H   H29       1.0  0.5099573221287556  0.4714401831746073  0.8158326227462283  1.0000
  H   H30       1.0  0.4900004148772296  0.9714455070598261  0.1841646013894476  1.0000
  H   H31       1.0  0.009934737537818698  0.4714380156386468  0.6841653276441663  1.0000
  H   H32       1.0  0.9900172536404455  0.9714400007187294  0.3158339555576717  1.0000
  H   H33       1.0  0.5277044759536906  0.7974895555313848  0.8428352310670777  1.0000
  H   H34       1.0  0.472334397078491  0.29748702978146463  0.1571650452448026  1.0000
  H   H35       1.0  0.027693978038030295  0.797470370382335  0.6571644584395884  1.0000
  H   H36       1.0  0.9722960552709451  0.29748089110108816  0.3428358177869413  1.0000
  H   H37       1.0  0.46635758166562624  0.9803165531095954  0.8203406537465057  1.0000
  H   H38       1.0  0.5336791986914164  0.4803241903983774  0.17966440737454553  1.0000
  H   H39       1.0  0.9663586852035877  0.9803103654860409  0.6796592713737084  1.0000
  H   H40       1.0  0.03364936589071021  0.48031503024499494  0.3203449660650364  1.0000
  H   H41       1.0  0.4467434224568194  0.0323098674130193  0.7193898880087062  1.0000
  H   H42       1.0  0.5532612805638876  0.5323111462371344  0.28061949040810674  1.0000
  H   H43       1.0  0.9467835834608281  0.032303417486801295  0.7806156622915168  1.0000
  H   H44       1.0  0.05325990396429601  0.5323114570797786  0.2193920689112048  1.0000
  H   H45       1.0  0.5079804874975337  0.8978679949254416  0.6482732653996877  1.0000
  H   H46       1.0  0.49200279196926283  0.3978680012409156  0.35173168072243755  1.0000
  H   H47       1.0  0.008026328731986599  0.8978528527400583  0.8517273330438115  1.0000
  H   H48       1.0  0.992025900783126  0.39786702831663945  0.14827514226728772  1.0000
  H   H49       1.0  0.3888948667513716  0.7558127117877899  0.5663759976927594  1.0000
  H   H50       1.0  0.6111007345923339  0.25581864404839655  0.4336217495791317  1.0000
  H   H51       1.0  0.8889081937830382  0.7558085621191071  0.9336229879367864  1.0000
  H   H52       1.0  0.1111233191734584  0.255820491590704  0.06638093662172652  1.0000
  C   C1        1.0  0.704499667307985  0.8371275942246258  0.554304108890925  1.0000
  C   C2        1.0  0.2954905351808605  0.33712936693817136  0.445694575341669  1.0000
  C   C3        1.0  0.20450965246109118  0.8371075504339482  0.9457014796798404  1.0000
  C   C4        1.0  0.7955236439312118  0.3371286913020128  0.0543050291000782  1.0000
  C   C5        1.0  0.8585784943937824  0.8991325625938914  0.5282314776904258  1.0000
  C   C6        1.0  0.14140622684231363  0.3991365809250097  0.47176729296064934  1.0000
  C   C7        1.0  0.35858785557444856  0.8991203231187439  0.9717733890594147  1.0000
  C   C8        1.0  0.6414457053849033  0.39913807701194054  0.028230323442628  1.0000
  C   C9        1.0  0.049732064156714294  0.9083645537504521  0.5436022147762715  1.0000
  C   C10       1.0  0.9502541329271066  0.40837101153110217  0.45639574511459813  1.0000
  C   C11       1.0  0.5497389186472644  0.9083490072116263  0.9564034557941666  1.0000
  C   C12       1.0  0.45029037227421037  0.4083650712449084  0.0435982104845323  1.0000
  C   C13       1.0  0.15547239074307836  0.9712964719512412  0.5073803144518294  1.0000
  C   C14       1.0  0.8445140749396812  0.47129684353459567  0.492622263126556  1.0000
  C   C15       1.0  0.6554818104491743  0.9712918500548399  0.9926236779415802  1.0000
  C   C16       1.0  0.34454918547514524  0.47129839590034084  0.0073764288010238  1.0000
  C   C17       1.0  0.042987613310920395  0.0100355532938039  0.465085172438947  1.0000
  C   C18       1.0  0.9569968840877435  0.5100309204492888  0.5349171740288554  1.0000
  C   C19       1.0  0.5430000073930188  0.010028641541154596  0.0349178059432376  1.0000
  C   C20       1.0  0.4570347660357612  0.5100270887898688  0.9650795987960236  1.0000
  C   C21       1.0  0.10247087513143778  0.07572771222265828  0.4187164780490633  1.0000
  C   C22       1.0  0.8975253942647753  0.5757278435022499  0.5812847245545285  1.0000
  C   C23       1.0  0.602478968361986  0.0757302411029102  0.08128758045216242  1.0000
  C   C24       1.0  0.39754315731493506  0.5757184081468409  0.9187136221824589  1.0000
  C   C25       1.0  0.505628259537282  0.4764255057221263  0.6583908731791652  1.0000
  C   C26       1.0  0.4943165705170002  0.9764247160185704  0.3416022397240965  1.0000
  C   C27       1.0  0.005656547831833298  0.4764087781138783  0.8416021304268355  1.0000
  C   C28       1.0  0.9943342489640725  0.9764176546378707  0.1583938652348422  1.0000
  C   C29       1.0  0.4696580459250796  0.38365065660174474  0.6841066022872297  1.0000
  C   C30       1.0  0.5302964434878774  0.8836467123544623  0.3158880285782431  1.0000
  C   C31       1.0  0.9696677040917833  0.38363057016587016  0.8158875585431744  1.0000
  C   C32       1.0  0.0303011499239147  0.8836430097822117  0.1841099550369094  1.0000
  C   C33       1.0  0.47340091912591487  0.38054058020261283  0.7418238385895323  1.0000
  C   C34       1.0  0.5265535570026144  0.8805424817579705  0.2581691406814954  1.0000
  C   C35       1.0  0.9734001599110939  0.38052250716691566  0.7581690928226833  1.0000
  C   C36       1.0  0.026555752694846998  0.8805352310060783  0.2418284164075359  1.0000
  C   C37       1.0  0.5074571776896803  0.4696044777060991  0.7709945150534239  1.0000
  C   C38       1.0  0.4925120431686096  0.969606192014936  0.2290031183528853  1.0000
  C   C39       1.0  0.007441736194010698  0.4695933258429861  0.7290042494818606  1.0000
  C   C40       1.0  0.9925088106917102  0.9696019961175107  0.2709966784150311  1.0000
  C   C41       1.0  0.5383422683598055  0.5622749507574198  0.7419875461817894  1.0000
  C   C42       1.0  0.4616496341575313  0.0622775209153303  0.258007460428118  1.0000
  C   C43       1.0  0.038336349511865805  0.5622670135630868  0.7580081386405908  1.0000
  C   C44       1.0  0.9616498071742042  0.06227011035593219  0.24198975066192216  1.0000
  C   C45       1.0  0.5471915138806409  0.7517468976987233  0.7575436241534135  1.0000
  C   C46       1.0  0.4528198712094706  0.2517532162541655  0.24245576473715152  1.0000
  C   C47       1.0  0.04719660197515199  0.7517365805256302  0.7424535847576763  1.0000
  C   C48       1.0  0.9528133465955546  0.25174511611435685  0.2575445686703688  1.0000
  C   C49       1.0  0.5247433243405767  0.8237218345278734  0.8003638482508891  1.0000
  C   C50       1.0  0.4752798595832032  0.3237302682726765  0.199636464610272  1.0000
  C   C51       1.0  0.024734149932079702  0.8237151400619779  0.6996342223560602  1.0000
  C   C52       1.0  0.9752660505770336  0.3237177780278131  0.3003660904598746  1.0000
  C   C53       1.0  0.48902142755027705  0.9249724707437821  0.7872586520325271  1.0000
  C   C54       1.0  0.5110007520245433  0.4249810134119088  0.21274550829677  1.0000
  C   C55       1.0  0.9890135067911886  0.9249687507866253  0.7127420824059243  1.0000
  C   C56       1.0  0.010989998756585401  0.424970920375003  0.2872616660719629  1.0000
  C   C57       1.0  0.47898981839422566  0.9539181963788009  0.7317594654336548  1.0000
  C   C58       1.0  0.521025302434829  0.45392242455493187  0.2682480297554974  1.0000
  C   C59       1.0  0.9789908094346558  0.9539055454351058  0.7682433406223269  1.0000
  C   C60       1.0  0.021028620707234304  0.4539174255750211  0.2317620954810167  1.0000
  C   C61       1.0  0.5106931681181877  0.8799818293183961  0.6919595105813556  1.0000
  C   C62       1.0  0.48932020067085347  0.37998468334712504  0.3080429397587849  1.0000
  C   C63       1.0  0.0107089187679534  0.879968003331136  0.8080406585963047  1.0000
  C   C64       1.0  0.9893259968995807  0.37998239420213753  0.1919617917624734  1.0000
  S   S1        1.0  0.8087655722004145  0.9677829044672703  0.4694756235075985  1.0000
  S   S2        1.0  0.19122231487820332  0.46777960332129  0.5305228310139185  1.0000
  S   S3        1.0  0.3087812936111902  0.9677707596487649  0.030526543997027  1.0000
  S   S4        1.0  0.6912525602082055  0.46778560906574285  0.9694723223998309  1.0000
  N   N1        1.0  0.5422701261241443  0.5642500703497505  0.6863499899975452  1.0000
  N   N2        1.0  0.4577059837587997  0.0642498445316093  0.313645842973294  1.0000
  N   N3        1.0  0.04228461504406771  0.5642339702508395  0.8136457084907677  1.0000
  N   N4        1.0  0.9577216605080423  0.0642467599571646  0.1863521835879993  1.0000
  N   N5        1.0  0.563435031740518  0.6499859417690318  0.7726638081927746  1.0000
  N   N6        1.0  0.4365644274389028  0.14998986279815088  0.22733626247369187  1.0000
  N   N7        1.0  0.0634382122201771  0.6499763163416361  0.7273349511787047  1.0000
  N   N8        1.0  0.9365612469103936  0.14998260569029753  0.2726642958442085  1.0000
  N   N9        1.0  0.5476259933200609  0.7807217959975575  0.7042727878975725  1.0000
  N   N10       1.0  0.45238407900033917  0.28072761315452505  0.2957299359041343  1.0000
  N   N11       1.0  0.047649979013243596  0.7807117453492722  0.7957261098942682  1.0000
  N   N12       1.0  0.9523802036944743  0.28072538560287086  0.2042741430313839  1.0000
  O   O1        1.0  0.7488022341357593  0.8021179723473253  0.6025800879564969  1.0000
  O   O2        1.0  0.25118207310861607  0.30211254328379067  0.3974189592812678  1.0000
  O   O3        1.0  0.2488150242239158  0.8020946174784954  0.8974222801240758  1.0000
  O   O4        1.0  0.7512181226810526  0.3021228525915092  0.1025780026199854  1.0000
  O   O5        1.0  0.5482956207246232  0.8250932595312293  0.5290002680412371  1.0000
  O   O6        1.0  0.4516916574780366  0.32510148749560136  0.47099675215437736  1.0000
  O   O7        1.0  0.04831214024167  0.8250710401736042  0.9710052824890809  1.0000
  O   O8        1.0  0.9517196683199955  0.32509147661226484  0.0290007976955167  1.0000
  O   O9        1.0  0.9760124081030314  0.103954983554452  0.38400698227657415  1.0000
  O   O10       1.0  0.0239882911296689  0.6039626696659326  0.615993436050708  1.0000
  O   O11       1.0  0.4760293565208683  0.10396552058008271  0.1159965040011599  1.0000
  O   O12       1.0  0.5240058178271739  0.60395673699567  0.8840067970883965  1.0000
  O   O13       1.0  0.2820299355031963  0.09766283127877529  0.41678038391469124  1.0000
  O   O14       1.0  0.7179592452199159  0.5976681260550479  0.5832220847042322  1.0000
  O   O15       1.0  0.7820481443207966  0.09767457850705338  0.0832242030248196  1.0000
  O   O16       1.0  0.21798556664839447  0.5976464028083583  0.916777030201196  1.0000
  O   O17       1.0  0.33370078007541076  0.7278944275893339  0.6013481312462616  1.0000
  O   O18       1.0  0.6662932656473757  0.22789027582377494  0.3986491652871537  1.0000
  O   O19       1.0  0.8337230725593016  0.727885498644234  0.8986539569754868  1.0000
  O   O20       1.0  0.16631837653713433  0.2279015069870098  0.1013536350226474  1.0000
