data_image0
_chemical_formula_structural       Cd4H28C48N4O16
_chemical_formula_sum              "Cd4 H28 C48 N4 O16"
_cell_length_a       7.072086738395346
_cell_length_b       14.285337859851461
_cell_length_c       15.30906629880828
_cell_angle_alpha    90.00011476685886
_cell_angle_beta     96.14243192637132
_cell_angle_gamma    90.00123042501693

_space_group_name_H-M_alt    "P 1"
_space_group_IT_number       1

loop_
  _space_group_symop_operation_xyz
  'x, y, z'

loop_
  _atom_site_type_symbol
  _atom_site_label
  _atom_site_symmetry_multiplicity
  _atom_site_fract_x
  _atom_site_fract_y
  _atom_site_fract_z
  _atom_site_occupancy
  Cd  Cd1       1.0  0.5279185261080102  0.8020023936124616  0.3129510548863338  1.0000
  Cd  Cd2       1.0  0.9720950797724298  0.3020107014474577  0.6870587384004807  1.0000
  Cd  Cd3       1.0  0.47208675580671405  0.19799159578045794  0.6870517801916661  1.0000
  Cd  Cd4       1.0  0.027918777085240293  0.6979853880390008  0.3129373457658957  1.0000
  H   H1        1.0  0.8262658643821865  0.14538957556504783  0.3972491632603763  1.0000
  H   H2        1.0  0.673767872507149  0.6453939660391723  0.6027561500106132  1.0000
  H   H3        1.0  0.17375794000071917  0.8546044139211021  0.6027487312547137  1.0000
  H   H4        1.0  0.3262118256792945  0.3546042233237328  0.3972427761879232  1.0000
  H   H5        1.0  0.7018386962322081  0.0113212717185718  0.299937216102407  1.0000
  H   H6        1.0  0.7981819940621832  0.5113272044931776  0.7000691611913439  1.0000
  H   H7        1.0  0.2981765484831841  0.9886727177265513  0.7000648172598218  1.0000
  H   H8        1.0  0.20180339280206278  0.48867098490035943  0.2999300531892288  1.0000
  H   H9        1.0  0.6382030901800846  0.8429892850748714  0.514452658005375  1.0000
  H   H10       1.0  0.8618009797713811  0.3429882696808235  0.4855514982599018  1.0000
  H   H11       1.0  0.3617936588725996  0.15701170445654358  0.4855497448135395  1.0000
  H   H12       1.0  0.1382029068876349  0.657017620013079  0.5144466936761347  1.0000
  H   H13       1.0  0.7428185271144371  0.9732864938468141  0.6206629728018954  1.0000
  H   H14       1.0  0.7571856080252887  0.4732834274851925  0.3793420680556352  1.0000
  H   H15       1.0  0.25718107771439236  0.0267151957162497  0.3793376150579207  1.0000
  H   H16       1.0  0.24280690884623368  0.5267203620906855  0.6206542414778015  1.0000
  H   H17       1.0  0.6410997530154035  0.9903034770391413  0.0594146836220446  1.0000
  H   H18       1.0  0.8588994262261094  0.4902936408820436  0.9405934020072806  1.0000
  H   H19       1.0  0.35888845546792675  0.0097003125215096  0.9405885929637351  1.0000
  H   H20       1.0  0.14108598338888356  0.5097003483965991  0.0594018942618888  1.0000
  H   H21       1.0  0.672535214621206  0.09487181652841058  0.9299455750515406  1.0000
  H   H22       1.0  0.8274792008031396  0.59486476240167  0.07006259023599878  1.0000
  H   H23       1.0  0.32748567721694855  0.905136873342464  0.07006392971091203  1.0000
  H   H24       1.0  0.17252185262941572  0.4051271269058816  0.929933498529586  1.0000
  H   H25       1.0  0.1258254228776181  0.8333931226559771  0.1731897249944652  1.0000
  H   H26       1.0  0.3741788871000722  0.3333796966103578  0.8268159062729767  1.0000
  H   H27       1.0  0.87418406120873  0.1666183672330419  0.8268244275468604  1.0000
  H   H28       1.0  0.625819314379065  0.6666121926832885  0.1731813444359318  1.0000
  C   C1        1.0  0.8484380847266805  0.1489536876259621  0.5773800256187017  1.0000
  C   C2        1.0  0.6515645255837085  0.6489511414549013  0.42262306383747733  1.0000
  C   C3        1.0  0.15157007978512377  0.8510487019965751  0.4226164233953753  1.0000
  C   C4        1.0  0.34841513093942916  0.3510568481739895  0.5773830455694763  1.0000
  C   C5        1.0  0.7904033886328959  0.06928351127719169  0.5163487078617024  1.0000
  C   C6        1.0  0.7096013746809646  0.5692859193509746  0.4836569640472916  1.0000
  C   C7        1.0  0.20960050170963743  0.9307167782684402  0.4836488310459971  1.0000
  C   C8        1.0  0.2903897009848181  0.4307178702207679  0.5163425385264873  1.0000
  C   C9        1.0  0.7833509779931589  0.0796247450333567  0.4252403254127231  1.0000
  C   C10       1.0  0.7166670646344996  0.5796260306127438  0.5747621180522131  1.0000
  C   C11       1.0  0.2166585894662063  0.9203692443790172  0.5747594607159527  1.0000
  C   C12       1.0  0.2833154665309435  0.4203749588413713  0.4252389112944357  1.0000
  C   C13       1.0  0.7168384253823703  0.005511977941452499  0.3714168656241555  1.0000
  C   C14       1.0  0.7831791714266386  0.5055154920401748  0.6285880383658906  1.0000
  C   C15       1.0  0.28317825682430703  0.99448621161919  0.6285826277232829  1.0000
  C   C16       1.0  0.2168161820610024  0.4944833974233162  0.3714097212831362  1.0000
  C   C17       1.0  0.6792914755829644  0.9116353877453846  0.49182262052077874  1.0000
  C   C18       1.0  0.8207070948467107  0.4116381847130483  0.508181377311324  1.0000
  C   C19       1.0  0.3207067032382227  0.08836490177383638  0.5081785483079031  1.0000
  C   C20       1.0  0.17928400369356007  0.5883670048913601  0.49181420716222146  1.0000
  C   C21       1.0  0.738638979540255  0.9831559531106464  0.549936573048818  1.0000
  C   C22       1.0  0.7613599107406658  0.483156588407155  0.45006691296942597  1.0000
  C   C23       1.0  0.2613577846950648  0.016842936362614597  0.45006321769722046  1.0000
  C   C24       1.0  0.23863402834671632  0.5168493012317156  0.549929468613712  1.0000
  C   C25       1.0  0.7491452062131002  0.8655973067083876  0.18537197490306312  1.0000
  C   C26       1.0  0.7508584747135743  0.365589539297673  0.8146263223330836  1.0000
  C   C27       1.0  0.2508686279556827  0.134405782966752  0.8146280273802945  1.0000
  C   C28       1.0  0.24914259400988203  0.6344051500808446  0.1853671543694091  1.0000
  C   C29       1.0  0.8692979847679537  0.9069794662356117  0.1212073825601223  1.0000
  C   C30       1.0  0.6306903826734355  0.4069740605938462  0.8788032755532598  1.0000
  C   C31       1.0  0.13069441770022647  0.0930159231400651  0.8788085174716684  1.0000
  C   C32       1.0  0.3692992744290891  0.5930206287297396  0.12119550193968823  1.0000
  C   C33       1.0  0.7904531196024963  0.9712119704201144  0.0598365827143326  1.0000
  C   C34       1.0  0.7095594339934479  0.4712068415803897  0.9401728002398002  1.0000
  C   C35       1.0  0.20955781304117954  0.0287876191580523  0.9401730707285836  1.0000
  C   C36       1.0  0.29044445624082016  0.5287885478361218  0.05982473865812211  1.0000
  C   C37       1.0  0.9012188158512727  0.0124858405668533  0.9985281594846216  1.0000
  C   C38       1.0  0.5987820609832895  0.5124810966206326  0.0014693775901762044  1.0000
  C   C39       1.0  0.09879075950101418  0.9875207491761272  0.0014703206348513995  1.0000
  C   C40       1.0  0.40121047856165143  0.48751499274811744  0.9985230138248795  1.0000
  C   C41       1.0  0.8234718221565275  0.0775996706482687  0.9342957413017459  1.0000
  C   C42       1.0  0.676530471625469  0.5775888978772842  0.0657085136291187  1.0000
  C   C43       1.0  0.176523504989639  0.92241321918906  0.0657065894953917  1.0000
  C   C44       1.0  0.3234677411826467  0.4223987913035714  0.9342867780199029  1.0000
  C   C45       1.0  0.06463101627574021  0.8826978409697687  0.12389536721813953  1.0000
  C   C46       1.0  0.4353655363009068  0.3826851766171587  0.8761066913250631  1.0000
  C   C47       1.0  0.9353713987813349  0.1173108487994199  0.8761112419011852  1.0000
  C   C48       1.0  0.5646312467541748  0.6173039125943374  0.12388983431557682  1.0000
  N   N1        1.0  0.6649598172125691  0.9230721153431816  0.40410992997512113  1.0000
  N   N2        1.0  0.8350406806957975  0.42307175975515326  0.5958941855178068  1.0000
  N   N3        1.0  0.3350411868648281  0.07692607413954279  0.5958946480262385  1.0000
  N   N4        1.0  0.1649518437129132  0.5769285297270912  0.4041008179743102  1.0000
  O   O1        1.0  0.7809349502909129  0.1507027562866483  0.6515356186136502  1.0000
  O   O2        1.0  0.7190634745585811  0.6506979648872503  0.3484666086614681  1.0000
  O   O3        1.0  0.21907034696111077  0.8492961332325633  0.3484646044054501  1.0000
  O   O4        1.0  0.28091761950224026  0.34931632491249337  0.6515369607348803  1.0000
  O   O5        1.0  0.9625596200091805  0.20992447584500698  0.5534579277326871  1.0000
  O   O6        1.0  0.537454240365605  0.7099200663878021  0.4465419191049307  1.0000
  O   O7        1.0  0.03745138494146969  0.7900737136828794  0.4465393183811983  1.0000
  O   O8        1.0  0.4625325077210221  0.29007672298778425  0.5534678155930806  1.0000
  O   O9        1.0  0.8157063855268092  0.7998575869721947  0.2374007948375123  1.0000
  O   O10       1.0  0.684273080718718  0.2998496944295467  0.7625922413741364  1.0000
  O   O11       1.0  0.1842875384243357  0.2001525027801705  0.76259819882268  1.0000
  O   O12       1.0  0.3157266153915117  0.7001477950059396  0.2373926740652195  1.0000
  O   O13       1.0  0.5813541391106654  0.8963713282725719  0.18979173599626625  1.0000
  O   O14       1.0  0.9186693557315521  0.39636813975037904  0.8102134977540629  1.0000
  O   O15       1.0  0.418672463939501  0.10362336125579928  0.8102141388172799  1.0000
  O   O16       1.0  0.08134305236772117  0.6036307498071379  0.18978708549257564  1.0000
