data_image0
_chemical_formula_structural       Cd6H24C28N4O24
_chemical_formula_sum              "Cd6 H24 C28 N4 O24"
_cell_length_a       6.704815320424216
_cell_length_b       10.684561825386224
_cell_length_c       13.092902009876893
_cell_angle_alpha    102.5218165765166
_cell_angle_beta     90.0215461080279
_cell_angle_gamma    108.27739313010622

_space_group_name_H-M_alt    "P 1"
_space_group_IT_number       1

loop_
  _space_group_symop_operation_xyz
  'x, y, z'

loop_
  _atom_site_type_symbol
  _atom_site_label
  _atom_site_symmetry_multiplicity
  _atom_site_fract_x
  _atom_site_fract_y
  _atom_site_fract_z
  _atom_site_occupancy
  Cd  Cd1       1.0  0.33708368088417023  0.8380830412075966  0.9529864966372229  1.0000
  Cd  Cd2       1.0  0.49917350649926817  0.1620144492661098  0.5469809033167294  1.0000
  Cd  Cd3       1.0  0.6629200569363148  0.16191784389634023  0.04701384637979801  1.0000
  Cd  Cd4       1.0  0.5008262361058372  0.8379844110657048  0.45301908789112133  1.0000
  Cd  Cd5       1.0  0.6438974368982072  0.00022802773675320023  0.7500616282115686  1.0000
  Cd  Cd6       1.0  0.3561028092947893  0.9997718404306184  0.24993777418630003  1.0000
  H   H1        1.0  0.7460058344579962  0.4751446370687802  0.8340203591982132  1.0000
  H   H2        1.0  0.2714821073937941  0.5251106846236695  0.6658338377796937  1.0000
  H   H3        1.0  0.2540013898465859  0.5248572558012371  0.16597939528489286  1.0000
  H   H4        1.0  0.7285121807218786  0.4748891974383867  0.3341678577956202  1.0000
  H   H5        1.0  0.062379098951574063  0.5305180924277124  0.9183994903694667  1.0000
  H   H6        1.0  0.5322510680366008  0.46967935288697776  0.5817589731810884  1.0000
  H   H7        1.0  0.9376261226019267  0.4694827788857625  0.0815985590559904  1.0000
  H   H8        1.0  0.46774517522592873  0.5303184767525552  0.4182377836780162  1.0000
  H   H9        1.0  0.6942866932499713  0.703006315507885  0.8793590295967209  1.0000
  H   H10       1.0  0.9921375924808515  0.29727127857933777  0.6204605389786977  1.0000
  H   H11       1.0  0.30571903960650804  0.2969955773968707  0.1206407247483554  1.0000
  H   H12       1.0  0.007859673387635376  0.7027285942427498  0.37953962771962324  1.0000
  H   H13       1.0  0.7746022756419819  0.9514334201698561  0.928941261781624  1.0000
  H   H14       1.0  0.8231665197591911  0.04859079134220681  0.5711106556188952  1.0000
  H   H15       1.0  0.22539797055100766  0.048566447997522716  0.0710581406162447  1.0000
  H   H16       1.0  0.1768347117223217  0.9514080643696234  0.42888857115046625  1.0000
  H   H17       1.0  0.9921145279154686  0.8748550241461857  0.8160008874838027  1.0000
  H   H18       1.0  0.11759451756341832  0.12523179051315486  0.6839483021018609  1.0000
  H   H19       1.0  0.007880236757436912  0.1251428284542939  0.1839996921199258  1.0000
  H   H20       1.0  0.8824052224699914  0.874767065233421  0.3160509245294563  1.0000
  H   H21       1.0  0.15723824500967248  0.005994493553764403  0.8858379846695074  1.0000
  H   H22       1.0  0.15156374962442976  0.9940702733041539  0.6141644395060766  1.0000
  H   H23       1.0  0.8427565222349288  0.9940033636319543  0.11416335951075501  1.0000
  H   H24       1.0  0.8484365017119587  0.005929604033703102  0.38583649204485226  1.0000
  C   C1        1.0  0.591286174619306  0.48379169530713284  0.8509055552518417  1.0000
  C   C2        1.0  0.10804430019441472  0.5164942550752585  0.6490805638559679  1.0000
  C   C3        1.0  0.4087205409539934  0.5162091805568424  0.1490932588881861  1.0000
  C   C4        1.0  0.8919524620861806  0.4835046099112788  0.3509201916523423  1.0000
  C   C5        1.0  0.21035201634494183  0.5139274893114776  0.896736123016872  1.0000
  C   C6        1.0  0.6968720725619946  0.4862683369080472  0.6033835144828288  1.0000
  C   C7        1.0  0.7896467062259022  0.4860693324230142  0.10326122292829612  1.0000
  C   C8        1.0  0.303122207838591  0.5137315313982854  0.39661588736288417  1.0000
  C   C9        1.0  0.22462081793912606  0.3834805120980747  0.8729550276055845  1.0000
  C   C10       1.0  0.8414867270199552  0.6167642873757518  0.6271930399127257  1.0000
  C   C11       1.0  0.775384401042679  0.6165203546301614  0.12704225724334614  1.0000
  C   C12       1.0  0.15850607221931065  0.383235599306282  0.37280942010107754  1.0000
  C   C13       1.0  0.5632888922887248  0.610366157950857  0.875653040313054  1.0000
  C   C14       1.0  0.9536030564029048  0.3898776507198037  0.624267256975081  1.0000
  C   C15       1.0  0.4367158256768847  0.3896337055270608  0.12434559792239241  1.0000
  C   C16       1.0  0.04639272058917506  0.6101222267222681  0.3757336741617365  1.0000
  C   C17       1.0  0.4207399364712573  0.36750247758889293  0.8505853844276956  1.0000
  C   C18       1.0  0.05367152247341533  0.6328130614011657  0.6495613410094235  1.0000
  C   C19       1.0  0.5792648085250107  0.6325004231861656  0.14941378096934704  1.0000
  C   C20       1.0  0.9463247658216359  0.3671878376321871  0.35044129504700555  1.0000
  C   C21       1.0  0.44949298375167496  0.23015878777545853  0.834767937051403  1.0000
  C   C22       1.0  0.2198512733600781  0.7701234866853428  0.6653292145884251  1.0000
  C   C23       1.0  0.5505087538894247  0.7698410803571819  0.16523146548450282  1.0000
  C   C24       1.0  0.7801434938845232  0.22987437050037576  0.3346721295918371  1.0000
  C   C25       1.0  0.029227639241291684  0.26616310497946943  0.8734430978929028  1.0000
  C   C26       1.0  0.7632215591012399  0.7339986306458003  0.6266068351757709  1.0000
  C   C27       1.0  0.9707751081472864  0.7338387834095174  0.12655589159955843  1.0000
  C   C28       1.0  0.236771229851243  0.26600123769527073  0.3733925665319049  1.0000
  N   N1        1.0  0.3751378975208013  0.6252651517363291  0.8985770398930414  1.0000
  N   N2        1.0  0.7504466861769289  0.37492381937028096  0.6014364767117968  1.0000
  N   N3        1.0  0.6248673266043953  0.3747357241623917  0.10142177410894963  1.0000
  N   N4        1.0  0.24955007096027523  0.6250750364457717  0.3985627496434461  1.0000
  O   O1        1.0  0.6493359488691794  0.9767346373531254  0.9174071223856544  1.0000
  O   O2        1.0  0.6726281092687926  0.023322454490980207  0.5826460098905955  1.0000
  O   O3        1.0  0.35066629493150714  0.023266243200311006  0.08259245591679591  1.0000
  O   O4        1.0  0.3273721369242039  0.9766774136763982  0.4173533925072661  1.0000
  O   O5        1.0  0.06459388599024171  0.9137581642701279  0.8877718603901458  1.0000
  O   O6        1.0  0.1510251142250709  0.08628133647226119  0.6122003743117546  1.0000
  O   O7        1.0  0.9354008786826641  0.08623968833035181  0.1122287192135829  1.0000
  O   O8        1.0  0.8489746309517232  0.9137175284447993  0.38780038147262985  1.0000
  O   O9        1.0  0.548985215208532  0.19576031596503193  0.756666692199829  1.0000
  O   O10       1.0  0.35396252251802457  0.8044766885781912  0.7433878838467932  1.0000
  O   O11       1.0  0.4510160137012847  0.8042385351615665  0.24333176999299866  1.0000
  O   O12       1.0  0.646034745922158  0.19552318882914224  0.2566130474280612  1.0000
  O   O13       1.0  0.9898121206280522  0.16479574845315884  0.7954883904323111  1.0000
  O   O14       1.0  0.8249864605520898  0.8353909765455826  0.7045302089506436  1.0000
  O   O15       1.0  0.010189105710068825  0.8352030980881938  0.20450930718398305  1.0000
  O   O16       1.0  0.17501381524326123  0.16461193350416894  0.2954704851853478  1.0000
  O   O17       1.0  0.9189465071811612  0.2824244588125567  0.9502395136998345  1.0000
  O   O18       1.0  0.6367223344277589  0.7175991110243205  0.5497066428578563  1.0000
  O   O19       1.0  0.08105970223255113  0.7175754046306225  0.04975912467365623  1.0000
  O   O20       1.0  0.3632749417275106  0.28240078013873676  0.4502965821465921  1.0000
  O   O21       1.0  0.37716717209060846  0.16150730293409052  0.9017510659303271  1.0000
  O   O22       1.0  0.2160533318372446  0.8387464220803341  0.5983421789779727  1.0000
  O   O23       1.0  0.6228335776902797  0.8384935730688455  0.09824774765755254  1.0000
  O   O24       1.0  0.7839449218914467  0.161252442871465  0.40165857666838173  1.0000
