data_image0
_chemical_formula_structural       Zn4H16C60S4N20O60
_chemical_formula_sum              "Zn4 H16 C60 S4 N20 O60"
_cell_length_a       9.209519198
_cell_length_b       17.86893183408029
_cell_length_c       34.73844699325716
_cell_angle_alpha    89.79992083176843
_cell_angle_beta     89.80716528732414
_cell_angle_gamma    90.07564222172957

_space_group_name_H-M_alt    "P 1"
_space_group_IT_number       1

loop_
  _space_group_symop_operation_xyz
  'x, y, z'

loop_
  _atom_site_type_symbol
  _atom_site_label
  _atom_site_symmetry_multiplicity
  _atom_site_fract_x
  _atom_site_fract_y
  _atom_site_fract_z
  _atom_site_occupancy
  Zn  Zn1       1.0  0.6407318295080912  0.9943556305101638  0.5001510703500218  1.0000
  Zn  Zn2       1.0  0.35863754832270434  0.0056561409303483995  0.5003958944207767  1.0000
  Zn  Zn3       1.0  0.2619834682395989  0.9923965373304143  0.9997775400420181  1.0000
  Zn  Zn4       1.0  0.5440934215643621  0.0042223959552246  0.9996174905495183  1.0000
  H   H1        1.0  0.7185034712071784  0.7663528794805571  0.4994825286972358  1.0000
  H   H2        1.0  0.7331727052227849  0.6283881007818479  0.5018665354693683  1.0000
  H   H3        1.0  0.26422567648297257  0.6177416945845664  0.5036242855668291  1.0000
  H   H4        1.0  0.7373866664869411  0.3822581783882412  0.5041337732089417  1.0000
  H   H5        1.0  0.2838200428108664  0.2334626017308139  0.4984060674592569  1.0000
  H   H6        1.0  0.26857911843389104  0.3713150467555835  0.5010029506296618  1.0000
  H   H7        1.0  0.18527515678010079  0.7645452840292322  0.0004363435781087002  1.0000
  H   H8        1.0  0.1698937058028562  0.6266727253529609  0.9976800309201935  1.0000
  H   H9        1.0  0.638746510625843  0.6160947511650222  0.9952984099090968  1.0000
  H   H10       1.0  0.16537510948283088  0.3800916609779676  0.995174711319514  1.0000
  H   H11       1.0  0.6196621326363924  0.23237979194571784  0.0010408037155472  1.0000
  H   H12       1.0  0.6342488104156202  0.37032936750659223  0.9981542205348576  1.0000
  H   H13       1.0  0.23609641466207876  0.8568319787009528  0.4724673833430729  1.0000
  H   H14       1.0  0.7676735608768227  0.1438310589094058  0.4728942191144867  1.0000
  H   H15       1.0  0.6688052526503725  0.8545609599903443  0.0265563026251456  1.0000
  H   H16       1.0  0.13651524909169405  0.14133562551783999  0.0269801094508111  1.0000
  C   C1        1.0  0.49296069795341413  0.8544662301354365  0.4993897474778138  1.0000
  C   C2        1.0  0.4984911040940219  0.9998489768575142  0.5746346220994596  1.0000
  C   C3        1.0  0.5092813197684123  0.14547138806126006  0.498870253580165  1.0000
  C   C4        1.0  0.4976868847246152  0.9998292672968533  0.42517635181107494  1.0000
  C   C5        1.0  0.411171599737763  0.8527084832266069  0.00045516029660320047  1.0000
  C   C6        1.0  0.40282594015992856  0.9988989957567186  0.9253814989854448  1.0000
  C   C7        1.0  0.39451720368852244  0.1438382166627505  0.000850847673874  1.0000
  C   C8        1.0  0.40373957767388186  0.997637010696593  0.0747336625207922  1.0000
  C   C9        1.0  0.40462872841963815  0.9986440870765492  0.8820268905010239  1.0000
  C   C10       1.0  0.5354579619114048  0.9971309625069935  0.8610713053760862  1.0000
  C   C11       1.0  0.5389342512087651  0.0009175663380816002  0.8210741726218275  1.0000
  C   C12       1.0  0.40921579316898254  0.9970725549671258  0.7996448899316917  1.0000
  C   C13       1.0  0.2784697206705005  0.9950130017492995  0.8206846846244106  1.0000
  C   C14       1.0  0.2758483199596355  8.591650784950005e-05  0.8605498165126448  1.0000
  C   C15       1.0  0.6237081040375544  0.9958026926178292  0.6792929316969777  1.0000
  C   C16       1.0  0.49319482253163466  0.9977199357161339  0.7004175922710517  1.0000
  C   C17       1.0  0.36331192800009393  0.0016840798112909  0.6790505952992092  1.0000
  C   C18       1.0  0.3663855920928398  0.99789715936663  0.6390589546102419  1.0000
  C   C19       1.0  0.4970197716150366  0.9994586335920346  0.6180083016555358  1.0000
  C   C20       1.0  0.6259626127632316  0.0009100760755345001  0.6394084417735044  1.0000
  C   C21       1.0  0.4049632464530219  0.9977458683391519  0.11812539488995101  1.0000
  C   C22       1.0  0.5353674830225827  0.0003477262318441  0.1389985722102764  1.0000
  C   C23       1.0  0.5383259707090459  0.996063038114869  0.1789704533563921  1.0000
  C   C24       1.0  0.4082206413918854  0.9992608614897094  0.2004643225809275  1.0000
  C   C25       1.0  0.2777406153212851  0.0003805459172028001  0.17954373075142635  1.0000
  C   C26       1.0  0.2759676867270571  0.994979691199518  0.1396950532845835  1.0000
  C   C27       1.0  0.6231431004612132  0.0015448663423214  0.3203004865368868  1.0000
  C   C28       1.0  0.4925236431321665  0.00022653034181270004  0.2994418312070835  1.0000
  C   C29       1.0  0.3625009888407646  0.9974925396073715  0.3210154875071112  1.0000
  C   C30       1.0  0.3657887513447733  0.0021317663653662  0.3609594535993567  1.0000
  C   C31       1.0  0.4963000891155006  0.9995989671809938  0.38177995593923714  1.0000
  C   C32       1.0  0.625136722454016  0.9965326176692387  0.3601764479511473  1.0000
  C   C33       1.0  0.4853273495052264  0.7713201329351095  0.5008266626751237  1.0000
  C   C34       1.0  0.6192362581523412  0.7332845078038019  0.5007073414137154  1.0000
  C   C35       1.0  0.627678457639405  0.6558830226658898  0.5020369301208945  1.0000
  C   C36       1.0  0.49925465280787046  0.613039501823927  0.5032411252628322  1.0000
  C   C37       1.0  0.36421328544551557  0.6502367298776336  0.503186149198612  1.0000
  C   C38       1.0  0.3560872087519584  0.7277843807096857  0.5021311964842213  1.0000
  C   C39       1.0  0.5019018149758948  0.5340836365852156  0.5038252063419648  1.0000
  C   C40       1.0  0.4994843992513722  0.46579025426996884  0.5037580680676045  1.0000
  C   C41       1.0  0.5023919933112992  0.3868428453845212  0.5029885818993023  1.0000
  C   C42       1.0  0.6375153486360149  0.3497279681831458  0.5032734076692904  1.0000
  C   C43       1.0  0.6458737454440707  0.27220860399478397  0.5021140328410354  1.0000
  C   C44       1.0  0.5169233929706323  0.22860512151588352  0.5003359260304592  1.0000
  C   C45       1.0  0.382932224444005  0.2665627552495096  0.49990556894681504  1.0000
  C   C46       1.0  0.3741724425196722  0.34392608475756253  0.5013461979082836  1.0000
  C   C47       1.0  0.41846559449809456  0.7695876527526694  0.998825102022643  1.0000
  C   C48       1.0  0.2843835367898109  0.7315314389796725  0.9990262159031076  1.0000
  C   C49       1.0  0.2755386966921378  0.6541624815781476  0.9974998132085134  1.0000
  C   C50       1.0  0.40372759482427506  0.611368917283329  0.9960658993186299  1.0000
  C   C51       1.0  0.5389359248553376  0.6485723024804457  0.9960140781196571  1.0000
  C   C52       1.0  0.547424848559814  0.7260816059532047  0.997208016076499  1.0000
  C   C53       1.0  0.4007060195401877  0.5324489476362898  0.9953429956032878  1.0000
  C   C54       1.0  0.4030410297748261  0.46417015604684764  0.9953852191738761  1.0000
  C   C55       1.0  0.40039527864103513  0.3852434732125759  0.996190614745217  1.0000
  C   C56       1.0  0.26540624943764607  0.34781111855087227  0.9960281211649401  1.0000
  C   C57       1.0  0.25741302972861746  0.2702702812612685  0.9973493380511442  1.0000
  C   C58       1.0  0.3865876509951676  0.22697759935971362  0.9991672538476238  1.0000
  C   C59       1.0  0.5204161943268062  0.2652477817246037  0.9994775620576135  1.0000
  C   C60       1.0  0.5288144794117285  0.34264580572736497  0.9978670215996176  1.0000
  S   S1        1.0  0.17178324339899828  0.7624441208625613  0.5033162689797097  1.0000
  S   S2        1.0  0.8299027662196109  0.23746384427772682  0.5040945084225897  1.0000
  S   S3        1.0  0.7316742720454528  0.7608639350745818  0.9954284005207585  1.0000
  S   S4        1.0  0.0734627906552845  0.2350322512370155  0.9956555492386913  1.0000
  N   N1        1.0  0.39269450235617137  0.996099739246013  0.759617659247944  1.0000
  N   N2        1.0  0.5099266184702671  0.9964939445456268  0.7404403555801125  1.0000
  N   N3        1.0  0.39161360763964126  0.0004628439005003  0.2404974230857775  1.0000
  N   N4        1.0  0.509009726985326  0.0009645129754787  0.2594001302643534  1.0000
  N   N5        1.0  0.13168983232014847  0.0083933606143134  0.8794210287094729  1.0000
  N   N6        1.0  0.140327334325832  0.9884064176849067  0.7991230082289604  1.0000
  N   N7        1.0  0.6772803238715781  0.9901138456808668  0.8812456707468925  1.0000
  N   N8        1.0  0.6825165140465401  0.010042181232215302  0.8021857443021361  1.0000
  N   N9        1.0  0.7621483571395657  0.9893999736197614  0.7007681552532077  1.0000
  N   N10       1.0  0.7699990172752321  0.0093166500218658  0.6204399083658744  1.0000
  N   N11       1.0  0.2199816913654047  0.011004482157964901  0.6979740060841239  1.0000
  N   N12       1.0  0.2244540457308375  0.9906861513589932  0.6189691372551067  1.0000
  N   N13       1.0  0.1321940436342146  0.9854606940055746  0.12097698040053469  1.0000
  N   N14       1.0  0.1391469554839517  0.0065909292307253994  0.20116171664451343  1.0000
  N   N15       1.0  0.6775637958958711  0.008215471103199002  0.11877826262726639  1.0000
  N   N16       1.0  0.6816306519383774  0.9863977418194594  0.1976572482794978  1.0000
  N   N17       1.0  0.7617094032633176  0.0075954948167833  0.2986071514824716  1.0000
  N   N18       1.0  0.7689670076713142  0.987084474040735  0.3789022689782442  1.0000
  N   N19       1.0  0.21889440543467487  0.9882724456443839  0.30245575059540647  1.0000
  N   N20       1.0  0.2239577968003132  0.010467711906578404  0.381243751471267  1.0000
  O   O1        1.0  0.618660956131194  0.8842971643316702  0.4967792349600161  1.0000
  O   O2        1.0  0.3742641183922474  0.8927206064731693  0.5008512662813089  1.0000
  O   O3        1.0  0.3788012284369486  0.013944820645200204  0.5580249959844965  1.0000
  O   O4        1.0  0.6189258207300483  0.9861374824761597  0.5582185107285298  1.0000
  O   O5        1.0  0.38370011917990604  0.1157779368929752  0.49640684739473784  1.0000
  O   O6        1.0  0.6279791559336018  0.10702999365017969  0.5001800982696452  1.0000
  O   O7        1.0  0.6206517723040365  0.0060210921728228  0.44123850861554104  1.0000
  O   O8        1.0  0.3754131824056941  0.9937538768802058  0.4419293582349155  1.0000
  O   O9        1.0  0.2855632541131  0.8823633952092466  0.0031241766733601005  1.0000
  O   O10       1.0  0.5299290374974673  0.8911505152432112  0.9991076145713366  1.0000
  O   O11       1.0  0.5224020494249402  0.013043441154486898  0.9420135246974726  1.0000
  O   O12       1.0  0.2822124351930668  0.9849891375589337  0.9417544048017846  1.0000
  O   O13       1.0  0.5201834069268472  0.1143838998232809  0.0034154510379452003  1.0000
  O   O14       1.0  0.27594448136435545  0.1051620641382058  0.9996520983494507  1.0000
  O   O15       1.0  0.28076791300679815  0.0033967134888329  0.058611942678958  1.0000
  O   O16       1.0  0.5260656227175032  0.9917994762301207  0.0580398005081406  1.0000
  O   O17       1.0  0.10416900069163398  0.0707279809463728  0.8922862337514986  1.0000
  O   O18       1.0  0.053432997513283495  0.9524065571132496  0.8791449133262433  1.0000
  O   O19       1.0  0.11441973046397892  0.92661094850034  0.7853419393107188  1.0000
  O   O20       1.0  0.06576854970857939  0.0455280758852297  0.7976470278373357  1.0000
  O   O21       1.0  0.7053704496229116  0.9276633176635869  0.8940771442414858  1.0000
  O   O22       1.0  0.752972364202506  0.046957081498995  0.8820412019446309  1.0000
  O   O23       1.0  0.7115051665344011  0.07354702622420461  0.7907806686333319  1.0000
  O   O24       1.0  0.7597559624423909  0.9539073840696161  0.8012296794816223  1.0000
  O   O25       1.0  0.7882314283245646  0.927704839125191  0.7148127080189681  1.0000
  O   O26       1.0  0.8367934957562825  0.046613814162938604  0.7019075607817487  1.0000
  O   O27       1.0  0.7976160165704586  0.07169042109620702  0.6073719536163793  1.0000
  O   O28       1.0  0.8480707274575536  0.9533692732183283  0.6208497055906079  1.0000
  O   O29       1.0  0.19215123944865545  0.074467345116247  0.7093686619338015  1.0000
  O   O30       1.0  0.1417450594375609  0.9551211119256636  0.6989499165932926  1.0000
  O   O31       1.0  0.1965031404189546  0.9282105807502533  0.606315206037273  1.0000
  O   O32       1.0  0.1486200917345855  0.04737149383625191  0.6180354621183498  1.0000
  O   O33       1.0  0.10312928759948649  0.9218340582494235  0.11012670390550032  1.0000
  O   O34       1.0  0.0553313574715375  0.0417574453240945  0.11948701909556551  1.0000
  O   O35       1.0  0.11229297874105978  0.0684971161513559  0.2146981764690068  1.0000
  O   O36       1.0  0.0650580152372342  0.9492113674250505  0.2028771156989393  1.0000
  O   O37       1.0  0.7084819782865424  0.07172830872271162  0.1078020938197497  1.0000
  O   O38       1.0  0.7511083097134801  0.9509406650342669  0.11621143961496472  1.0000
  O   O39       1.0  0.7093142331258377  0.922605707277441  0.20879889426828416  1.0000
  O   O40       1.0  0.7602118664303388  0.042131831512243395  0.19858902834715764  1.0000
  O   O41       1.0  0.7889595682370824  0.06947932372926148  0.2848276544657296  1.0000
  O   O42       1.0  0.8354180731198609  0.9501890084305485  0.2971102923495863  1.0000
  O   O43       1.0  0.7975049849390102  0.9235745523201616  0.3901985404991066  1.0000
  O   O44       1.0  0.8463980215527869  0.04329765549120171  0.3799546206792216  1.0000
  O   O45       1.0  0.18924868151270147  0.9244019496550989  0.2919876482321655  1.0000
  O   O46       1.0  0.14200999782581653  0.0445009165853421  0.300952388985941  1.0000
  O   O47       1.0  0.1939945419257327  0.07415973416217982  0.3918472018774324  1.0000
  O   O48       1.0  0.1497791000293773  0.9533634124225473  0.38426871194541695  1.0000
  O   O49       1.0  0.1670344457739432  0.815581251417349  0.46626116193949224  1.0000
  O   O50       1.0  0.07624702594659279  0.7012269305121209  0.49457897506512444  1.0000
  O   O51       1.0  0.15152528448391675  0.8053007836929993  0.5378461464478264  1.0000
  O   O52       1.0  0.837808566981394  0.185004585825908  0.4670064254141337  1.0000
  O   O53       1.0  0.9263642520397893  0.2987817000048452  0.4959058882208538  1.0000
  O   O54       1.0  0.846653057212528  0.1939313693072791  0.5386571884135378  1.0000
  O   O55       1.0  0.7385282996110901  0.8134087151688405  0.032487523913211205  1.0000
  O   O56       1.0  0.8275019347371709  0.6995656230952036  0.0037485281794716  1.0000
  O   O57       1.0  0.7499866068240306  0.8042604089243356  0.9608389188598282  1.0000
  O   O58       1.0  0.0663444202719248  0.18232040310452646  0.032851469859835405  1.0000
  O   O59       1.0  0.9768049566122413  0.2960292117313302  0.0038448630423957007  1.0000
  O   O60       1.0  0.056287871918954076  0.19170104201015192  0.9611907658146136  1.0000
