data_image0
_chemical_formula_structural       ZnH56C60Br4N4O8
_chemical_formula_sum              "Zn1 H56 C60 Br4 N4 O8"
_cell_length_a       8.72827209410926
_cell_length_b       12.86285358639564
_cell_length_c       15.109158897306418
_cell_angle_alpha    113.23945721700694
_cell_angle_beta     97.43651025338005
_cell_angle_gamma    97.56824721905691

_space_group_name_H-M_alt    "P 1"
_space_group_IT_number       1

loop_
  _space_group_symop_operation_xyz
  'x, y, z'

loop_
  _atom_site_type_symbol
  _atom_site_label
  _atom_site_symmetry_multiplicity
  _atom_site_fract_x
  _atom_site_fract_y
  _atom_site_fract_z
  _atom_site_occupancy
  Zn  Zn1       1.0  0.999997747852966  1.3302341841011742e-06  0.9999994799895616  1.0000
  H   H1        1.0  0.4799507966636655  0.9081915219255522  0.12469608983180074  1.0000
  H   H2        1.0  0.5200485450081871  0.0918106419858162  0.87530598203773  1.0000
  H   H3        1.0  0.6674158175502002  0.08440301436039728  0.28158103649627  1.0000
  H   H4        1.0  0.3325811985661318  0.9155991514879245  0.7184188824468476  1.0000
  H   H5        1.0  0.2612599388868659  0.30996246910735437  0.3606294580654036  1.0000
  H   H6        1.0  0.738734302011558  0.690037963514797  0.6393703357950143  1.0000
  H   H7        1.0  0.484261202687371  0.31578880630377165  0.2543262433018042  1.0000
  H   H8        1.0  0.515734405344567  0.6842125018203262  0.7456706362657  1.0000
  H   H9        1.0  0.8224113209158762  0.3305355827022111  0.29111491965629444  1.0000
  H   H10       1.0  0.17758521818348072  0.6694605377486482  0.70888358118151  1.0000
  H   H11       1.0  0.0695468802179846  0.13554599411625645  0.41608812297598513  1.0000
  H   H12       1.0  0.9304626083455432  0.8644553339910104  0.5839110898503889  1.0000
  H   H13       1.0  0.6373337503367084  0.4594100422792662  0.48709105187349155  1.0000
  H   H14       1.0  0.36267067380015316  0.5405852166502001  0.5129116982569001  1.0000
  H   H15       1.0  0.8172184762397166  0.5584981166078222  0.5139148341970952  1.0000
  H   H16       1.0  0.1827760076902933  0.44150317569467745  0.4860865918163738  1.0000
  H   H17       1.0  0.5009723634326521  0.5504153986286723  0.406591051393029  1.0000
  H   H18       1.0  0.49902883143587234  0.44958936014532463  0.5934113704896757  1.0000
  H   H19       1.0  0.5673343877130536  0.5645459007464594  0.30474788055852287  1.0000
  H   H20       1.0  0.4326682015355559  0.4354553995914967  0.695256119306947  1.0000
  H   H21       1.0  0.6743014135473118  0.6560288681092955  0.4278303105146505  1.0000
  H   H22       1.0  0.32570116660110676  0.3439724361792642  0.5721723663133673  1.0000
  H   H23       1.0  0.0944723104686389  0.3207982970200191  0.6650976677303573  1.0000
  H   H24       1.0  0.9055272651346016  0.6792047305222935  0.3349047132547651  1.0000
  H   H25       1.0  0.9200761519556623  0.21403933627361477  0.6282390152646754  1.0000
  H   H26       1.0  0.07991855680553071  0.7859628236104398  0.37176139682693315  1.0000
  H   H27       1.0  0.2135201001929588  0.18037627341345797  0.718639684709906  1.0000
  H   H28       1.0  0.7864852096723852  0.8196267838542896  0.2813565020135512  1.0000
  H   H29       1.0  0.20991693399427902  0.042841706678515806  0.6210843608826051  1.0000
  H   H30       1.0  0.790087201718059  0.957161356495959  0.3789090955808303  1.0000
  H   H31       1.0  0.0324741257402152  0.07600605054610549  0.6633678351300247  1.0000
  H   H32       1.0  0.9675339820395055  0.9239944079851199  0.3366323074330848  1.0000
  H   H33       1.0  0.3113287374634409  0.8644235039168534  0.9685358795150445  1.0000
  H   H34       1.0  0.6886689484883348  0.13557262247909557  0.03146138247043236  1.0000
  H   H35       1.0  0.6193793063841825  0.6196632450916154  0.8995137173760952  1.0000
  H   H36       1.0  0.38062023731436073  0.3803354741916536  0.10048455614128217  1.0000
  H   H37       1.0  0.9809275127969814  0.7198512094581911  0.8833513624275607  1.0000
  H   H38       1.0  0.019069480514850985  0.28014664418046914  0.11664577208525623  1.0000
  H   H39       1.0  0.9750939484575696  0.6574944804331435  0.9693135814526597  1.0000
  H   H40       1.0  0.02490582917236141  0.342505102481077  0.030685001180302172  1.0000
  H   H41       1.0  0.9927618596676954  0.7921850443322853  0.13630152598454967  1.0000
  H   H42       1.0  0.0072404728990420825  0.207815402251235  0.8636988571716981  1.0000
  H   H43       1.0  0.10406675340499302  0.9351572400081023  0.17218687378308303  1.0000
  H   H44       1.0  0.8959339280457785  0.06484148917085969  0.8278088378445003  1.0000
  H   H45       1.0  0.20128650785547114  0.8148441718978531  0.1379833893364476  1.0000
  H   H46       1.0  0.7987141735953004  0.1851545572811091  0.862012322291143  1.0000
  H   H47       1.0  0.38789302972629974  0.40126248816149973  0.9253481870813545  1.0000
  H   H48       1.0  0.6121092937402396  0.5987379623726311  0.0746508730374415  1.0000
  H   H49       1.0  0.32281086843497064  0.3689203884716434  0.7994806549204794  1.0000
  H   H50       1.0  0.6771900742477613  0.631079192486446  0.20051933493505897  1.0000
  H   H51       1.0  0.5826799275000027  0.2795207065566743  0.8761313287116436  1.0000
  H   H52       1.0  0.41732058382876863  0.7204857755094379  0.12387228873586038  1.0000
  H   H53       1.0  0.7176832608592819  0.31904953505421924  0.8087779864341795  1.0000
  H   H54       1.0  0.28231701648410024  0.6809517612947715  0.191225845061055  1.0000
  H   H55       1.0  0.5160202149297107  0.25306765940873527  0.7500430155297477  1.0000
  H   H56       1.0  0.48398398442997603  0.7469310540253388  0.24996022535918158  1.0000
  C   C1        1.0  0.6800008272568052  0.9284751846774026  0.04788112773533724  1.0000
  C   C2        1.0  0.32000174379141555  0.0715261235617604  0.9521202260552284  1.0000
  C   C3        1.0  0.5968979616394067  0.9524995832319045  0.12865293716860274  1.0000
  C   C4        1.0  0.4031013708782397  0.04749826254390398  0.8713483348267983  1.0000
  C   C5        1.0  0.6922228035647963  0.04219776487246919  0.20858631508296097  1.0000
  C   C6        1.0  0.3077765381070564  0.9578043990389062  0.7914157567865698  1.0000
  C   C7        1.0  0.8368588476826917  0.07052091921731568  0.17829561404400343  1.0000
  C   C8        1.0  0.16313770967106223  0.9294795154184995  0.8217050097053755  1.0000
  C   C9        1.0  0.971709850480764  0.15117146532511333  0.24195893814390246  1.0000
  C   C10       1.0  0.028290385857729892  0.8488255267154371  0.7580394628461276  1.0000
  C   C11       1.0  0.11971252985008363  0.17119640563114297  0.21751540040352066  1.0000
  C   C12       1.0  0.8802826194192834  0.8288031712804549  0.7824821839702448  1.0000
  C   C13       1.0  0.25488357075099094  0.2575547683428923  0.28326483444190126  1.0000
  C   C14       1.0  0.7451074407710722  0.7424465199514714  0.7167356774974818  1.0000
  C   C15       1.0  0.36771130871916574  0.26055802425319285  0.2288831050312082  1.0000
  C   C16       1.0  0.63228224408941  0.7394441336363825  0.7711172228752755  1.0000
  C   C17       1.0  0.302076774540545  0.17535848484988031  0.12924090981125855  1.0000
  C   C18       1.0  0.6979172233263002  0.82464108809193  0.8707572518961156  1.0000
  C   C19       1.0  0.6225341282491499  0.8425813481080554  0.9513419442943413  1.0000
  C   C20       1.0  0.37746497039112376  0.15741995612297185  0.04865849542214557  1.0000
  C   C21       1.0  0.9496635688770496  0.22493030966329283  0.3423845443275581  1.0000
  C   C22       1.0  0.05033528218154973  0.775070136862695  0.657613601717159  1.0000
  C   C23       1.0  0.8652629460989801  0.3132623740618569  0.3539609658819811  1.0000
  C   C24       1.0  0.1347393955139395  0.68673374648489  0.646041263475041  1.0000
  C   C25       1.0  0.8338108357576034  0.38039575851507096  0.4455363627511772  1.0000
  C   C26       1.0  0.16619311152432198  0.619606421275435  0.5544633997839268  1.0000
  C   C27       1.0  0.8873622205215954  0.35571003300189113  0.5251912701597377  1.0000
  C   C28       1.0  0.1126354836305694  0.6442860854928439  0.4748086379006366  1.0000
  C   C29       1.0  0.972580635443343  0.26834452575846507  0.5162863671892024  1.0000
  C   C30       1.0  0.027420995383252444  0.7316576520183841  0.48371256545693314  1.0000
  C   C31       1.0  0.004348961816710081  0.20420199732279082  0.42383051926486087  1.0000
  C   C32       1.0  0.9956570724852513  0.795794996788956  0.5761709487256608  1.0000
  C   C33       1.0  0.7440977185029994  0.4756393686450338  0.45813036820595693  1.0000
  C   C34       1.0  0.25590439378265023  0.5243602083816298  0.54187169039087  1.0000
  C   C35       1.0  0.6066774069537361  0.5686780542274404  0.3780651419962451  1.0000
  C   C36       1.0  0.3933180080976939  0.43132237248798316  0.6219373821241944  1.0000
  C   C37       1.0  0.025074771018083204  0.24165435776683344  0.6024977110581345  1.0000
  C   C38       1.0  0.9749254835748077  0.7583469484586728  0.39750281284347  1.0000
  C   C39       1.0  0.1437300889759996  0.1117902140434595  0.6487828397266638  1.0000
  C   C40       1.0  0.8562745418456787  0.8882102424549315  0.351215727243648  1.0000
  C   C41       1.0  0.4814778625398973  0.7534739090718645  0.9351969558774794  1.0000
  C   C42       1.0  0.5185203231253298  0.24652393075886175  0.06480555497025615  1.0000
  C   C43       1.0  0.3322474386108213  0.77707662045799  0.9483383678653893  1.0000
  C   C44       1.0  0.6677528068278633  0.22292036763195705  0.051661356162085795  1.0000
  C   C45       1.0  0.20532234867589244  0.6897841539970456  0.9354711086457212  1.0000
  C   C46       1.0  0.7946781215939823  0.3102137016744564  0.06452760145990057  1.0000
  C   C47       1.0  0.23191480214800467  0.5771891951530036  0.9070850319726914  1.0000
  C   C48       1.0  0.7680838422797934  0.422810375890222  0.09291677406878301  1.0000
  C   C49       1.0  0.3802151492705477  0.5503652084782686  0.8941710946493229  1.0000
  C   C50       1.0  0.6197871969464829  0.4496352321793396  0.10583127306310297  1.0000
  C   C51       1.0  0.5035254764991137  0.6397349021403896  0.9087547935726048  1.0000
  C   C52       1.0  0.49647803477072483  0.3602655365610943  0.09124898136239061  1.0000
  C   C53       1.0  0.04638166187198325  0.7207393313577912  0.9510255533062801  1.0000
  C   C54       1.0  0.9536132580160983  0.27925937994755395  0.04897238347061967  1.0000
  C   C55       1.0  0.09134869539812479  0.8437666575920985  0.12317418264403548  1.0000
  C   C56       1.0  0.9086510731316083  0.15623292927271848  0.8768230769514815  1.0000
  C   C57       1.0  0.4084591272149894  0.42979030733702217  0.8668378637171299  1.0000
  C   C58       1.0  0.5915418154677498  0.5702092736210744  0.1331621261384014  1.0000
  C   C59       1.0  0.59580326910465  0.31312933086161365  0.8200407759775172  1.0000
  C   C60       1.0  0.40419676065705096  0.6868711077823377  0.17996076184594745  1.0000
  Br  Br1       1.0  0.8408989040390368  0.44387679084350395  0.6504626844009066  1.0000
  Br  Br2       1.0  0.15909736917022596  0.5561098356311972  0.3495319230168688  1.0000
  Br  Br3       1.0  0.06281435839203908  0.4524429929284607  0.883319114661816  1.0000
  Br  Br4       1.0  0.9371846991893309  0.5475496849079561  0.11667641771278874  1.0000
  N   N1        1.0  0.8249446920749364  0.0017877795595850998  0.08032244303245048  1.0000
  N   N2        1.0  0.17505256707297434  0.9982152459690707  0.9196791080637181  1.0000
  N   N3        1.0  0.1539437590889676  0.1196593351959905  0.12539895849599958  1.0000
  N   N4        1.0  0.846048394735412  0.8803419610187572  0.8745996530723301  1.0000
  O   O1        1.0  0.7002739031220601  0.4832805041988308  0.3675443482474278  1.0000
  O   O2        1.0  0.2997245074283655  0.5167225252996132  0.6324566255151323  1.0000
  O   O3        1.0  0.11431559215424869  0.15329440161598026  0.5751240951685901  1.0000
  O   O4        1.0  0.8856888047360485  0.8467051912514661  0.4248741626861231  1.0000
  O   O5        1.0  0.0599665421546547  0.8349197205322411  0.025132968129376796  1.0000
  O   O6        1.0  0.9400316207600812  0.16507812917499357  0.974866235124736  1.0000
  O   O7        1.0  0.5649833696669122  0.42657957950208203  0.8512184428309408  1.0000
  O   O8        1.0  0.4350175548154382  0.5734200093572213  0.14877890094969354  1.0000
