data_image0
_chemical_formula_structural       Zn4H32C32N24O8
_chemical_formula_sum              "Zn4 H32 C32 N24 O8"
_cell_length_a       9.358884987067299
_cell_length_b       9.911490810928878
_cell_length_c       12.672627720259351
_cell_angle_alpha    76.2388516340334
_cell_angle_beta     68.3650166602277
_cell_angle_gamma    86.10212665113616

_space_group_name_H-M_alt    "P 1"
_space_group_IT_number       1

loop_
  _space_group_symop_operation_xyz
  'x, y, z'

loop_
  _atom_site_type_symbol
  _atom_site_label
  _atom_site_symmetry_multiplicity
  _atom_site_fract_x
  _atom_site_fract_y
  _atom_site_fract_z
  _atom_site_occupancy
  Zn  Zn1       1.0  0.46419325533015865  0.9146664158825505  0.9018062605230666  1.0000
  Zn  Zn2       1.0  0.5358052393868037  0.08533734794134769  0.09819726292947453  1.0000
  Zn  Zn3       1.0  0.883618574252573  0.5622998843203392  0.12409670112611332  1.0000
  Zn  Zn4       1.0  0.11638356759629431  0.4377035964742504  0.8759004250692755  1.0000
  H   H1        1.0  0.9208254668923385  0.27553856471418925  0.7868994426378889  1.0000
  H   H2        1.0  0.07917917371275252  0.724464653280947  0.21309157440742865  1.0000
  H   H3        1.0  0.7598722332180544  0.16491225067954224  0.8575457793112518  1.0000
  H   H4        1.0  0.24012973371316096  0.835084873193992  0.14244956559450367  1.0000
  H   H5        1.0  0.7725546537881414  0.006089715320044303  0.3050277850894004  1.0000
  H   H6        1.0  0.22743722992889565  0.9939149540919846  0.6949709135856349  1.0000
  H   H7        1.0  0.5740553054110863  0.6204432984643803  0.9207038331090586  1.0000
  H   H8        1.0  0.42594217589520167  0.37956142861252584  0.07929737712764506  1.0000
  H   H9        1.0  0.7315967619935293  0.5415095384625488  0.9448806874139989  1.0000
  H   H10       1.0  0.26839846074339857  0.4584940954739524  0.05511895784329104  1.0000
  H   H11       1.0  0.6182417913993704  0.936383056695917  0.5175972007176239  1.0000
  H   H12       1.0  0.3817557382984091  0.0636227086926127  0.48240377945440116  1.0000
  H   H13       1.0  0.002523863552276904  0.16637547355771432  0.23641238068080378  1.0000
  H   H14       1.0  0.9974733757965166  0.8336240619610537  0.7635899798792564  1.0000
  H   H15       1.0  0.654246635168022  0.34730648557975735  0.2956075141175417  1.0000
  H   H16       1.0  0.3457602351485889  0.6526978573186072  0.7043858583266027  1.0000
  H   H17       1.0  0.5461002569836566  0.2146450655594734  0.2843186931617367  1.0000
  H   H18       1.0  0.45390667104863525  0.785359213813237  0.715673098443581  1.0000
  H   H19       1.0  0.9244992074688555  0.18933039494645243  0.5760002217656818  1.0000
  H   H20       1.0  0.07550024117247742  0.8106659216520954  0.42400067193540275  1.0000
  H   H21       1.0  0.5733032958480423  0.3914301839060244  0.8183930287162581  1.0000
  H   H22       1.0  0.4267033249575364  0.6085766167694687  0.1816093686315269  1.0000
  H   H23       1.0  0.5967655691809738  0.36574799955234033  0.4915952766198258  1.0000
  H   H24       1.0  0.403229863844807  0.6342380899079458  0.5084111533074703  1.0000
  H   H25       1.0  0.7796832983780534  0.5792936036678711  0.7320438714139994  1.0000
  H   H26       1.0  0.22032345739253154  0.42071414003077484  0.26795592461087375  1.0000
  H   H27       1.0  0.8878611841454075  0.6660696719016672  0.5170111711941201  1.0000
  H   H28       1.0  0.11213159578033331  0.3339276138106514  0.48298647856829285  1.0000
  H   H29       1.0  0.8283896953997144  0.999631792336125  0.13221243184974443  1.0000
  H   H30       1.0  0.17160520901569504  0.0003689172424329958  0.8677926461180545  1.0000
  H   H31       1.0  0.8668389496706581  0.8318444999584997  0.19387477971711325  1.0000
  H   H32       1.0  0.13315711244460723  0.1681550875529396  0.8061286593694488  1.0000
  C   C1        1.0  0.667092211176268  0.7177313885683746  0.004912111214018421  1.0000
  C   C2        1.0  0.3329014769382965  0.282267232853961  0.9950929245707909  1.0000
  C   C3        1.0  0.7605488669415977  0.05852437450020182  0.5627079432975463  1.0000
  C   C4        1.0  0.2394517216365628  0.94147629745477  0.43729727497367316  1.0000
  C   C5        1.0  0.8046115815815682  0.045237230990942116  0.3666039161538137  1.0000
  C   C6        1.0  0.19538205814149734  0.9547603521197632  0.6334013496956672  1.0000
  C   C7        1.0  0.8069703731650649  0.28403482476070246  0.9560232288178838  1.0000
  C   C8        1.0  0.1930362449845688  0.7159621546677998  0.043969382820726814  1.0000
  C   C9        1.0  0.6749957615336442  0.021173117849805606  0.6913936318446828  1.0000
  C   C10       1.0  0.32501256600114914  0.978822284463746  0.308612300839165  1.0000
  C   C11       1.0  0.71764003548644  0.006435712392480798  0.4852247277524738  1.0000
  C   C12       1.0  0.2823573015306593  0.9935691734985429  0.5147804345813041  1.0000
  C   C13       1.0  0.7165506038438068  0.30802819569898093  0.13485565007147926  1.0000
  C   C14       1.0  0.28346065620005595  0.6919697411217599  0.8651355790741276  1.0000
  C   C15       1.0  0.7546081876828765  0.8497585551179868  0.08071570450078984  1.0000
  C   C16       1.0  0.24538781671672186  0.15024109591909965  0.9192893154245991  1.0000
  C   C17       1.0  0.9315514595576887  0.13471541698401523  0.32912029386751845  1.0000
  C   C18       1.0  0.06844261568886623  0.8652915109313286  0.6708829013999134  1.0000
  C   C19       1.0  0.8894639226219426  0.14826253726118213  0.5162294501548459  1.0000
  C   C20       1.0  0.110538981355937  0.8517358905595457  0.48377249035389974  1.0000
  C   C21       1.0  0.7508136974845598  0.5220418043665306  0.4870528858981089  1.0000
  C   C22       1.0  0.24917669911630463  0.47795561709395445  0.5129477113367072  1.0000
  C   C23       1.0  0.8147253334079849  0.5729052948255032  0.3576849955300785  1.0000
  C   C24       1.0  0.18526598914473175  0.4270879849214496  0.6423170242757618  1.0000
  C   C25       1.0  0.6259150030382941  0.4297939910278928  0.7241113259670441  1.0000
  C   C26       1.0  0.37408690706256925  0.5702064701202832  0.27588886168060606  1.0000
  C   C27       1.0  0.6384633793016263  0.4155823266982282  0.5432107678291302  1.0000
  C   C28       1.0  0.36153484371468647  0.5844130035813678  0.4567914344631203  1.0000
  C   C29       1.0  0.7397078236691357  0.5344417815744225  0.6768948788837577  1.0000
  C   C30       1.0  0.2602997417366382  0.4655586737129911  0.3231062394867338  1.0000
  C   C31       1.0  0.801442445288224  0.5827615639140759  0.5566035968825104  1.0000
  C   C32       1.0  0.1985555553042602  0.41722964488182873  0.4434003160878531  1.0000
  N   N1        1.0  0.8940253312644587  0.3843331287968752  0.9606165927350071  1.0000
  N   N2        1.0  0.10597702191343221  0.6156690278206796  0.039373649750317034  1.0000
  N   N3        1.0  0.6495671777486721  0.9227225180573271  0.044404077522209186  1.0000
  N   N4        1.0  0.350430149058937  0.0772801959219649  0.9555991736826711  1.0000
  N   N5        1.0  0.5944923349976392  0.8376375729187231  0.9936806343280793  1.0000
  N   N6        1.0  0.40550498248580175  0.16236624289784635  0.00632396765095677  1.0000
  N   N7        1.0  0.8377027704752963  0.39532846921159154  0.07861272670473338  1.0000
  N   N8        1.0  0.16229730548489135  0.6046747979401134  0.9213786523494959  1.0000
  N   N9        1.0  0.6949122938970548  0.23448452339817294  0.06273677371829216  1.0000
  N   N10       1.0  0.30509122719018933  0.7655186830639807  0.937253741014693  1.0000
  N   N11       1.0  0.8248682598595426  0.2419618587910577  0.859594988235571  1.0000
  N   N12       1.0  0.17512949049143603  0.7580414805831595  0.14039775745223437  1.0000
  N   N13       1.0  0.7677875227748531  0.7196003315875716  0.059745574174122906  1.0000
  N   N14       1.0  0.2322096300004262  0.2803992992196669  0.9402591576441848  1.0000
  N   N15       1.0  0.6406956506138713  0.6049328424825617  0.9699253721197889  1.0000
  N   N16       1.0  0.3592993115172121  0.39506780357035615  0.030078125009175824  1.0000
  N   N17       1.0  0.6211868569960688  0.29768319008561417  0.2461996672788728  1.0000
  N   N18       1.0  0.3788187197703651  0.7023180581077143  0.753794683466367  1.0000
  N   N19       1.0  0.9741710533168658  0.18654537486650474  0.40221885615297726  1.0000
  N   N20       1.0  0.025830702285325906  0.8134530731840712  0.5977833724628494  1.0000
  N   N21       1.0  0.5744781694181783  0.3708259656881125  0.6593095421875289  1.0000
  N   N22       1.0  0.4255249085920312  0.6291755453046762  0.34069091770778204  1.0000
  N   N23       1.0  0.844759304868987  0.8991146633883248  0.12650825799586576  1.0000
  N   N24       1.0  0.15523559954642252  0.100886046190233  0.8734968199719333  1.0000
  O   O1        1.0  0.551940994827099  0.9422347187843558  0.7282939896176187  1.0000
  O   O2        1.0  0.4480588120883909  0.05776993607002372  0.2717058539855016  1.0000
  O   O3        1.0  0.7208859552249863  0.06392070689331321  0.7587733266562963  1.0000
  O   O4        1.0  0.27912570023487865  0.9360682142839921  0.24122837957784768  1.0000
  O   O5        1.0  0.7929655772081078  0.494722340969993  0.2962197032693367  1.0000
  O   O6        1.0  0.20703933228683274  0.5052665427722829  0.7037797795102206  1.0000
  O   O7        1.0  0.8866301064024854  0.6881414732934844  0.31416546066657247  1.0000
  O   O8        1.0  0.1133701993802205  0.3118453194564595  0.6858332634124052  1.0000
