data_image0
_chemical_formula_structural       Zn3H45C36N3O12
_chemical_formula_sum              "Zn3 H45 C36 N3 O12"
_cell_length_a       6.74985327327995
_cell_length_b       12.56219232500673
_cell_length_c       12.566581320296535
_cell_angle_alpha    120.00764969959927
_cell_angle_beta     90.01186387406257
_cell_angle_gamma    90.01853316073908

_space_group_name_H-M_alt    "P 1"
_space_group_IT_number       1

loop_
  _space_group_symop_operation_xyz
  'x, y, z'

loop_
  _atom_site_type_symbol
  _atom_site_label
  _atom_site_symmetry_multiplicity
  _atom_site_fract_x
  _atom_site_fract_y
  _atom_site_fract_z
  _atom_site_occupancy
  Zn  Zn1       1.0  0.1123461919608175  0.4622249391049423  0.6446877259619939  1.0000
  Zn  Zn2       1.0  0.4454298304088411  0.3551567356973067  0.8174365756322145  1.0000
  Zn  Zn3       1.0  0.7787933462896319  0.18258129150864016  0.5377643253084585  1.0000
  H   H1        1.0  0.615551591506481  0.7435368805874277  0.828229509333916  1.0000
  H   H2        1.0  0.9483525212180693  0.17213734865030966  0.9159785936175242  1.0000
  H   H3        1.0  0.2814097976418068  0.08440124685882469  0.2561876849747833  1.0000
  H   H4        1.0  0.3048229223621561  0.05925716236295389  0.8622171212276941  1.0000
  H   H5        1.0  0.6366136391617944  0.1382933035916452  0.19739908429784953  1.0000
  H   H6        1.0  0.969261206610561  0.803249261918971  0.9407426764798076  1.0000
  H   H7        1.0  0.6066036824437903  0.9656473739809993  0.8971866916856116  1.0000
  H   H8        1.0  0.9389022226419569  0.1037677109065385  0.069483645819389  1.0000
  H   H9        1.0  0.2714660389658262  0.9314524410091636  0.03413980843111364  1.0000
  H   H10       1.0  0.014458702423084398  0.9267819988261223  0.7567560689615931  1.0000
  H   H11       1.0  0.34629749580016517  0.2433592169596963  0.16981857416654123  1.0000
  H   H12       1.0  0.6792444334869358  0.8302134656305428  0.07337079257371228  1.0000
  H   H13       1.0  0.8595450774115958  0.7505986472376168  0.6554354515792156  1.0000
  H   H14       1.0  0.19198138928636868  0.34445164885325125  0.09475102044390123  1.0000
  H   H15       1.0  0.525162761948522  0.9049688983333153  0.24963467595584624  1.0000
  H   H16       1.0  0.6293390407685918  0.5798597127210458  0.6027671722943212  1.0000
  H   H17       1.0  0.9620591731924364  0.3970636901484425  0.9766206756716826  1.0000
  H   H18       1.0  0.2955296704264327  0.0226997280115455  0.42033926989643794  1.0000
  H   H19       1.0  0.8540288804318906  0.3493294795798718  0.2976447709641192  1.0000
  H   H20       1.0  0.18677900923561447  0.7023846516954392  0.051583394596597894  1.0000
  H   H21       1.0  0.521479587421844  0.9484076614189473  0.6506577993950557  1.0000
  H   H22       1.0  0.05239934317823719  0.45420038824159537  0.37034106537025474  1.0000
  H   H23       1.0  0.3851852398269314  0.6296235381164337  0.08351465558270386  1.0000
  H   H24       1.0  0.7196155659147719  0.9164769389253067  0.5458019657829001  1.0000
  H   H25       1.0  0.9107835100054088  0.4588385517624687  0.2528335714027535  1.0000
  H   H26       1.0  0.24394789534528633  0.7471643234873115  0.2058192264499257  1.0000
  H   H27       1.0  0.5787894391747913  0.7940972294895021  0.5413170157050619  1.0000
  H   H28       1.0  0.8130530282851254  0.6290434482122648  0.45790805531856904  1.0000
  H   H29       1.0  0.1460532544740687  0.5419407676351254  0.17077854142786464  1.0000
  H   H30       1.0  0.48007615441456153  0.8287924637434473  0.37102791693058634  1.0000
  H   H31       1.0  0.4850112255774449  0.4356658985706758  0.3429591037433967  1.0000
  H   H32       1.0  0.818020981919112  0.6569613623533782  0.09263523936829188  1.0000
  H   H33       1.0  0.15237565954182491  0.9066830560330672  0.564288971256346  1.0000
  H   H34       1.0  0.5537458827287125  0.5457531160851089  0.29987795568826675  1.0000
  H   H35       1.0  0.8868812406162333  0.7000293309735994  0.24574695461037513  1.0000
  H   H36       1.0  0.22141046260932745  0.7535731713192246  0.45436816942672914  1.0000
  H   H37       1.0  0.44987421904914277  0.5947564623780863  0.44743609167925064  1.0000
  H   H38       1.0  0.7826731630536657  0.5524404063155046  0.14718854179968588  1.0000
  H   H39       1.0  0.1168032922490028  0.8518959508176778  0.40524349656546854  1.0000
  H   H40       1.0  0.14922944817850242  0.24502515297387356  0.452027300645817  1.0000
  H   H41       1.0  0.4827716450388948  0.5478556103534657  0.7930606249405303  1.0000
  H   H42       1.0  0.8159025600937823  0.2070201210881706  0.7549437742270797  1.0000
  H   H43       1.0  0.35939450688466934  0.3195877997495629  0.46823921335676744  1.0000
  H   H44       1.0  0.6930521487401079  0.5316583317054719  0.8512857777369122  1.0000
  H   H45       1.0  0.026225343651894696  0.1488981160641316  0.6805863145597684  1.0000
  C   C1        1.0  0.4842792571007521  0.7839334812593465  0.8117132130936542  1.0000
  C   C2        1.0  0.8168959607611584  0.18872454525873644  0.9727485228759323  1.0000
  C   C3        1.0  0.14986943257238036  0.0276468857271723  0.21591219491841682  1.0000
  C   C4        1.0  0.3219525652692353  0.7048846562716805  0.7501188075403393  1.0000
  C   C5        1.0  0.6546808813169066  0.25003276601891866  0.9549434389536204  1.0000
  C   C6        1.0  0.9879141135252568  0.0451247703778819  0.2950872062992502  1.0000
  C   C7        1.0  0.3081761171240629  0.9617498848737397  0.8322671522598457  1.0000
  C   C8        1.0  0.6401534842677704  0.168217098872276  0.12985575543924455  1.0000
  C   C9        1.0  0.9728755671470141  0.8706581408771895  0.03825673377968982  1.0000
  C   C10       1.0  0.14918353578205062  0.7593271416492372  0.7295433396988432  1.0000
  C   C11       1.0  0.48176028583611696  0.2706161835186195  0.02979228149055762  1.0000
  C   C12       1.0  0.8148196969039107  0.9702480177455257  0.24075289288861498  1.0000
  C   C13       1.0  0.478257627281792  0.9084524893797266  0.8507635044803834  1.0000
  C   C14       1.0  0.8105512503280252  0.14992840617610173  0.05835922078833281  1.0000
  C   C15       1.0  0.1433056827452788  0.9422670659221526  0.09143284790678767  1.0000
  C   C16       1.0  0.14760239258114183  0.8873491028516228  0.7728168864906169  1.0000
  C   C17       1.0  0.479655308288251  0.22737897398218374  0.11453789422660783  1.0000
  C   C18       1.0  0.8125842536003276  0.885608527284482  0.11274634746764885  1.0000
  C   C19       1.0  0.9742491013763511  0.6933605011913285  0.6648021758652121  1.0000
  C   C20       1.0  0.3068468190130815  0.3351512428340442  0.028295138972062272  1.0000
  C   C21       1.0  0.6400823133863582  0.9715324127802203  0.3068048544748477  1.0000
  C   C22       1.0  0.75722149736405  0.5263253226340154  0.5465766577221133  1.0000
  C   C23       1.0  0.0900118123414302  0.45332264237424613  0.9794129674536195  1.0000
  C   C24       1.0  0.4235997474486907  0.0201422655720833  0.4738304600266333  1.0000
  C   C25       1.0  0.9028726560358465  0.44427841673820734  0.3319103135650964  1.0000
  C   C26       1.0  0.23574727181227223  0.6680814348231863  0.11215356446976438  1.0000
  C   C27       1.0  0.5703033022981003  0.8877024943757802  0.5557480193156508  1.0000
  C   C28       1.0  0.7579776820317933  0.5354153244737959  0.42758584445946485  1.0000
  C   C29       1.0  0.09081205493056642  0.5723251761309172  0.10758666001200368  1.0000
  C   C30       1.0  0.42496686817177215  0.8919548678585512  0.4646282095120923  1.0000
  C   C31       1.0  0.5491755798450554  0.5270118016951385  0.37646176268287945  1.0000
  C   C32       1.0  0.8820974163542061  0.6234162041985839  0.15042528998173307  1.0000
  C   C33       1.0  0.2164279351790057  0.8488583237539443  0.47297509417536093  1.0000
  C   C34       1.0  0.7226568339975542  0.3956964146974329  0.5236766268362133  1.0000
  C   C35       1.0  0.055798768764113015  0.4762180699943669  0.8717222744195539  1.0000
  C   C36       1.0  0.38919593499485927  0.12784713907053197  0.6043955591589949  1.0000
  N   N1        1.0  0.9405712404197574  0.576610107018027  0.6168227864169893  1.0000
  N   N2        1.0  0.2733448165851868  0.3831058246480623  0.9595190787830534  1.0000
  N   N3        1.0  0.6067083119725681  0.04031443191145459  0.4235270702811178  1.0000
  O   O1        1.0  0.3379724889318467  0.5868902443566597  0.7139149956163282  1.0000
  O   O2        1.0  0.6707978072678742  0.28592514947634134  0.8729617335734974  1.0000
  O   O3        1.0  0.004306006470720501  0.1268031419142375  0.4130508386375737  1.0000
  O   O4        1.0  0.5963594213184961  0.32705802530540495  0.44750810360761767  1.0000
  O   O5        1.0  0.9299045594195758  0.5525655220766694  0.8792419978675456  1.0000
  O   O6        1.0  0.2631448202298614  0.12020625180810642  0.6730518311154158  1.0000
  O   O7        1.0  0.828362139637079  0.3621113741822342  0.5882814652510291  1.0000
  O   O8        1.0  0.16142187201856467  0.41146400932586147  0.7735682482374957  1.0000
  O   O9        1.0  0.4946595828423313  0.22614723123592032  0.6378712847432696  1.0000
  O   O10       1.0  0.21346307337874748  0.32774196791487503  0.48181965722557163  1.0000
  O   O11       1.0  0.5471060120044696  0.5179850349693851  0.8458459164140139  1.0000
  O   O12       1.0  0.8803610714319348  0.15446899625646177  0.6723103753436137  1.0000
