data_image0
_chemical_formula_structural       Cd4H14C20N10O14
_chemical_formula_sum              "Cd4 H14 C20 N10 O14"
_cell_length_a       6.874871316716426
_cell_length_b       10.463885691650672
_cell_length_c       11.442606939951771
_cell_angle_alpha    68.6912489095455
_cell_angle_beta     75.0907713736354
_cell_angle_gamma    70.03239413188747

_space_group_name_H-M_alt    "P 1"
_space_group_IT_number       1

loop_
  _space_group_symop_operation_xyz
  'x, y, z'

loop_
  _atom_site_type_symbol
  _atom_site_label
  _atom_site_symmetry_multiplicity
  _atom_site_fract_x
  _atom_site_fract_y
  _atom_site_fract_z
  _atom_site_occupancy
  Cd  Cd1       1.0  0.11560364140073894  0.4272736436851118  0.3663094360334256  1.0000
  Cd  Cd2       1.0  0.8843943892629728  0.572725397569428  0.6336914163434529  1.0000
  Cd  Cd3       1.0  0.36120282288370487  0.6811261849022257  0.07735002809874915  1.0000
  Cd  Cd4       1.0  0.6387940364122855  0.3188718317096074  0.9226522058699944  1.0000
  H   H1        1.0  0.22768736994697755  0.012120194323095699  0.04626241437600952  1.0000
  H   H2        1.0  0.7723183377168754  0.9878744294515726  0.9537370741508796  1.0000
  H   H3        1.0  0.24170631127938713  0.9807782493690167  0.9185279421920214  1.0000
  H   H4        1.0  0.7582910265367462  0.019222908862957393  0.08147055451816945  1.0000
  H   H5        1.0  0.6871970446496222  0.030093437416120094  0.3346715538436627  1.0000
  H   H6        1.0  0.31280577574290924  0.969904467882152  0.665332495165636  1.0000
  H   H7        1.0  0.7925071980604559  0.04755093136184027  0.6821389818151503  1.0000
  H   H8        1.0  0.20749332365038958  0.9524533730097032  0.31786326034336565  1.0000
  H   H9        1.0  0.610093764100789  0.4354483344230997  0.3815108000035182  1.0000
  H   H10       1.0  0.38991006468482  0.5645516138891294  0.6184863061228401  1.0000
  H   H11       1.0  0.8115158572929321  0.8185191158240668  0.837671948987982  1.0000
  H   H12       1.0  0.18848444272656203  0.18148199076287597  0.16232789358826247  1.0000
  H   H13       1.0  0.03672506289144906  0.8185342862396254  0.8693414556008038  1.0000
  H   H14       1.0  0.9632768062723331  0.18146254627497876  0.13065871485108005  1.0000
  C   C1        1.0  0.6337573860264456  0.2419942298181965  0.3461738785643079  1.0000
  C   C2        1.0  0.3662451613219561  0.7580047179218067  0.653827239228548  1.0000
  C   C3        1.0  0.6893036433711474  0.0930310882863523  0.39176352736597414  1.0000
  C   C4        1.0  0.31069745956540407  0.9069678772526683  0.6082360408023179  1.0000
  C   C5        1.0  0.7397655265685898  0.022598241202153698  0.5143614238219741  1.0000
  C   C6        1.0  0.26023327187473205  0.9774019129535318  0.4856476905700475  1.0000
  C   C7        1.0  0.7475979415933126  0.10133234609636324  0.5880468313079777  1.0000
  C   C8        1.0  0.25240089935137894  0.8986730104924374  0.41195005331798745  1.0000
  C   C9        1.0  0.7094117477555886  0.2493324615056095  0.5384767039356788  1.0000
  C   C10       1.0  0.29059413024683073  0.7506696002799841  0.4615246525393247  1.0000
  C   C11       1.0  0.6445439027977927  0.3200934164889375  0.4196698274867004  1.0000
  C   C12       1.0  0.35545809846235005  0.6799076161345212  0.580325427873291  1.0000
  C   C13       1.0  0.5681639561676664  0.3173122858241155  0.21787906396161824  1.0000
  C   C14       1.0  0.43183138533682097  0.6826857646337248  0.7821233737656429  1.0000
  C   C15       1.0  0.7899369273678118  0.8637960857109164  0.5640895839132227  1.0000
  C   C16       1.0  0.2100527114213051  0.13620526582159437  0.4359125616642104  1.0000
  C   C17       1.0  0.7525547617769489  0.3293764435223494  0.6093374825607755  1.0000
  C   C18       1.0  0.24745257226040018  0.6706360213774472  0.3906427173897742  1.0000
  C   C19       1.0  0.8698711865322795  0.7172977654095973  0.0204631590649456  1.0000
  C   C20       1.0  0.13012985768757096  0.28269698397357956  0.9795395708121506  1.0000
  N   N1        1.0  0.01872174673919609  0.6625593673172998  0.09609548035658834  1.0000
  N   N2        1.0  0.9812782948991269  0.3374385495085335  0.9039028393289288  1.0000
  N   N3        1.0  0.9414053844366991  0.5717380960689483  0.20153064759163192  1.0000
  N   N4        1.0  0.05859420070834903  0.4282609033160866  0.7984691243351777  1.0000
  N   N5        1.0  0.7583551373918598  0.5693361015541711  0.19237028637834894  1.0000
  N   N6        1.0  0.24164251015823637  0.43066400621258066  0.8076302648567336  1.0000
  N   N7        1.0  0.7070348546699353  0.6603508346629778  0.07921495012377024  1.0000
  N   N8        1.0  0.2929639642478819  0.33965029774648053  0.9207842195194477  1.0000
  N   N9        1.0  0.8819418242214572  0.8219687341863702  0.9056138299104505  1.0000
  N   N10       1.0  0.11805904236079812  0.17803126577089048  0.09438193034985433  1.0000
  O   O1        1.0  0.2767353420567746  0.9360339670245706  0.003895857847865563  1.0000
  O   O2        1.0  0.72327166907116  0.06396588150165879  0.9960973339952732  1.0000
  O   O3        1.0  0.4200819021567528  0.4333877818538594  0.20174018935880178  1.0000
  O   O4        1.0  0.5799183155667792  0.5666016384723348  0.7982574402119483  1.0000
  O   O5        1.0  0.666020706119845  0.25856253774273347  0.13167836248054238  1.0000
  O   O6        1.0  0.3339843013325138  0.7414257466271935  0.8683224637226276  1.0000
  O   O7        1.0  0.801956559193748  0.7952160732163305  0.4888486264536456  1.0000
  O   O8        1.0  0.1980440300852068  0.20478300465161678  0.5111632153962946  1.0000
  O   O9        1.0  0.819420360187799  0.7999628585689463  0.6793524098226416  1.0000
  O   O10       1.0  0.18054755255246857  0.20003907111312452  0.32066398536418467  1.0000
  O   O11       1.0  0.7394978227363326  0.27972615763387404  0.7279760849434994  1.0000
  O   O12       1.0  0.26050701754711286  0.7202823255434366  0.27202939776302065  1.0000
  O   O13       1.0  0.8067517437630656  0.4447850390097797  0.5402734167058583  1.0000
  O   O14       1.0  0.1932506993273933  0.5552191432573181  0.45971897808712486  1.0000
