data_image0
_chemical_formula_structural       Zn4H36C48N16O16
_chemical_formula_sum              "Zn4 H36 C48 N16 O16"
_cell_length_a       11.225777025002973
_cell_length_b       11.225786676338805
_cell_length_c       11.616136575846156
_cell_angle_alpha    73.46469188009728
_cell_angle_beta     73.46497168033211
_cell_angle_gamma    61.49951896862286

_space_group_name_H-M_alt    "P 1"
_space_group_IT_number       1

loop_
  _space_group_symop_operation_xyz
  'x, y, z'

loop_
  _atom_site_type_symbol
  _atom_site_label
  _atom_site_symmetry_multiplicity
  _atom_site_fract_x
  _atom_site_fract_y
  _atom_site_fract_z
  _atom_site_occupancy
  Zn  Zn1       1.0  0.3345213074772673  0.07945660195166941  0.33818709047893947  1.0000
  Zn  Zn2       1.0  0.9205429125184639  0.6654765685706893  0.16181200477647922  1.0000
  Zn  Zn3       1.0  0.6654751570533722  0.9205456659007824  0.6618188252961797  1.0000
  Zn  Zn4       1.0  0.0794530559627944  0.3345246300184286  0.8381848773653429  1.0000
  H   H1        1.0  0.6901932927801225  0.9190698205557698  0.32954331979537677  1.0000
  H   H2        1.0  0.08092612312756124  0.3098059767783143  0.17045695400272357  1.0000
  H   H3        1.0  0.30980174904076563  0.0809272467538449  0.6704635801372588  1.0000
  H   H4        1.0  0.9190790262705735  0.6901870551394751  0.8295387847421338  1.0000
  H   H5        1.0  0.054814286027180976  0.12717743645096394  0.5267758928463877  1.0000
  H   H6        1.0  0.872823000385921  0.9451846522585118  0.9732219764350135  1.0000
  H   H7        1.0  0.945177984569689  0.8728237104040136  0.47322117293861493  1.0000
  H   H8        1.0  0.1271835978825351  0.054815664398510905  0.02677649467051419  1.0000
  H   H9        1.0  0.01257825227269636  0.9039715817809795  0.6763520166232411  1.0000
  H   H10       1.0  0.09603230066277742  0.9874209186683843  0.8236471865846012  1.0000
  H   H11       1.0  0.9874159045673567  0.09603168625897503  0.32365254161754103  1.0000
  H   H12       1.0  0.9039733624468129  0.012577316305254306  0.17635298580130862  1.0000
  H   H13       1.0  0.4301712845498642  0.7669131950713252  0.5001845922258283  1.0000
  H   H14       1.0  0.23308782851523796  0.569819610772058  0.9998147260329089  1.0000
  H   H15       1.0  0.5698196195381371  0.23308898158695976  0.4998168717528344  1.0000
  H   H16       1.0  0.7669164108130389  0.43017548066921313  0.00018069250621987113  1.0000
  H   H17       1.0  0.24563317419676875  0.6021446700450923  0.6024337596421813  1.0000
  H   H18       1.0  0.3978525247847458  0.7543605512522619  0.8975640680676376  1.0000
  H   H19       1.0  0.754361409041991  0.39785548156527994  0.3975663826812478  1.0000
  H   H20       1.0  0.6021485003302871  0.24563554536096893  0.1024362702377601  1.0000
  H   H21       1.0  0.16638057241026877  0.6615448794770915  0.7423937360349127  1.0000
  H   H22       1.0  0.3384577677109988  0.8336055392924211  0.7576112514201369  1.0000
  H   H23       1.0  0.8336112516501759  0.33845524754350015  0.25761148615764984  1.0000
  H   H24       1.0  0.6615483405309277  0.1663916560336887  0.24238564306047294  1.0000
  H   H25       1.0  0.4439446308186134  0.41479649875415703  0.6065883352993564  1.0000
  H   H26       1.0  0.5852048774002157  0.5560549474625847  0.8934188048838932  1.0000
  H   H27       1.0  0.5560583296460849  0.5852120584682297  0.3934097144852871  1.0000
  H   H28       1.0  0.4147942749214339  0.44393698331244036  0.10658407648023878  1.0000
  H   H29       1.0  0.6694196456778061  0.262366637609702  0.6764436874207786  1.0000
  H   H30       1.0  0.7376471606913385  0.330576206215092  0.8235636499882444  1.0000
  H   H31       1.0  0.3305855577781074  0.7376367386751568  0.3235439893516343  1.0000
  H   H32       1.0  0.2623630464121264  0.669409666716341  0.176441282924486  1.0000
  H   H33       1.0  0.5018011505603823  0.7888664686306943  0.018859478530259814  1.0000
  H   H34       1.0  0.2111318475378711  0.49819711971928654  0.4811419962560918  1.0000
  H   H35       1.0  0.4981985218281154  0.2111327296249925  0.981144676976754  1.0000
  H   H36       1.0  0.7888677622943592  0.5017937837654429  0.5188619047129491  1.0000
  C   C1        1.0  0.6500188717234536  0.8979461677004327  0.2669032631028258  1.0000
  C   C2        1.0  0.10205767884137618  0.34998463282090625  0.23309186245130317  1.0000
  C   C3        1.0  0.3499817810506515  0.10206338970944984  0.7330934291474874  1.0000
  C   C4        1.0  0.8979466018339011  0.6500166741378238  0.7669018131117156  1.0000
  C   C5        1.0  0.5075564434976625  0.9020204166208149  0.16969897887754115  1.0000
  C   C6        1.0  0.09799370718229738  0.49244503416395  0.3302891958527567  1.0000
  C   C7        1.0  0.4924461336519529  0.09800364852289793  0.8302862488395489  1.0000
  C   C8        1.0  0.9020128447878691  0.5075490620327159  0.6697092992247917  1.0000
  C   C9        1.0  0.3736245059432548  0.9442324126142908  0.13622974600491478  1.0000
  C   C10       1.0  0.05577046222157379  0.6263744639741448  0.36377045123289514  1.0000
  C   C11       1.0  0.626373819002538  0.05577400871912631  0.8637693292012611  1.0000
  C   C12       1.0  0.944227336301978  0.3736226254538054  0.6362305093285625  1.0000
  C   C13       1.0  0.6905950620262331  0.6991379018508752  0.057193776906501806  1.0000
  C   C14       1.0  0.3008680241169158  0.30942124789464037  0.4428055188336089  1.0000
  C   C15       1.0  0.3094143890886798  0.3008728233061717  0.9428053043901343  1.0000
  C   C16       1.0  0.6991298193008434  0.6905800025117514  0.5572002962580667  1.0000
  C   C17       1.0  0.6382185068668135  0.8021521905935318  0.13460249059013307  1.0000
  C   C18       1.0  0.1978634558828745  0.3617751652775071  0.3653862602839907  1.0000
  C   C19       1.0  0.361778025836479  0.1978666099575292  0.8653841657139622  1.0000
  C   C20       1.0  0.8021430823049585  0.6382168590800037  0.6346128157856014  1.0000
  C   C21       1.0  0.12589438999631852  0.018891199485146597  0.5413244605149642  1.0000
  C   C22       1.0  0.9811134957574839  0.8740991265070054  0.9586707154713919  1.0000
  C   C23       1.0  0.8741011121433362  0.981108959498002  0.4586737020180676  1.0000
  C   C24       1.0  0.01888845320974039  0.12589698242189942  0.041329362047697785  1.0000
  C   C25       1.0  0.1038348701873486  0.909842777473671  0.6162642049247465  1.0000
  C   C26       1.0  0.09015339815089603  0.8961610451603195  0.883739115803017  1.0000
  C   C27       1.0  0.8961578978629988  0.09016149812656243  0.38373701599130766  1.0000
  C   C28       1.0  0.9098508835959366  0.10383820478794092  0.11626029776429898  1.0000
  C   C29       1.0  0.3221494437113678  0.8348965732984726  0.5238240652926506  1.0000
  C   C30       1.0  0.16509405819867595  0.6778551927958107  0.976173040954741  1.0000
  C   C31       1.0  0.6778483360785615  0.1650984393474246  0.4761757572567546  1.0000
  C   C32       1.0  0.8349056155939111  0.3221460649417908  0.023826236050027247  1.0000
  C   C33       1.0  0.25252563401351574  0.6535463233527283  0.6659320733350781  1.0000
  C   C34       1.0  0.34647037351986393  0.7474667899078187  0.8340605785556504  1.0000
  C   C35       1.0  0.7474722383729926  0.346461130213882  0.3340677012702783  1.0000
  C   C36       1.0  0.6535421666957504  0.2525263405353543  0.16593307389875636  1.0000
  C   C37       1.0  0.3889052693625601  0.5704135479962321  0.7094266198112462  1.0000
  C   C38       1.0  0.42957339040810194  0.6111042597423477  0.7905812697904508  1.0000
  C   C39       1.0  0.611103147641515  0.4295805901319199  0.2905773702079911  1.0000
  C   C40       1.0  0.5704239594359141  0.3888959238721483  0.2094163711699721  1.0000
  C   C41       1.0  0.47655108314259564  0.4448645516694685  0.6693657737029993  1.0000
  C   C42       1.0  0.5551306946506857  0.5234528177175833  0.8306358497828157  1.0000
  C   C43       1.0  0.5234467531807566  0.555140807814958  0.33062684637600626  1.0000
  C   C44       1.0  0.44486387587729576  0.47654320504317854  0.16937061153694802  1.0000
  C   C45       1.0  0.6018444631825091  0.35924045251606174  0.7091546677123048  1.0000
  C   C46       1.0  0.6407544890920391  0.39815590577564575  0.7908442212301311  1.0000
  C   C47       1.0  0.39815609344780967  0.6407587185121318  0.29083547497571527  1.0000
  C   C48       1.0  0.35923869405034026  0.6018431840272955  0.20915402426264504  1.0000
  N   N1        1.0  0.5166731619027656  0.9610706757556078  0.2536417055793691  1.0000
  N   N2        1.0  0.03893343943228442  0.4833281533578742  0.24635520999994037  1.0000
  N   N3        1.0  0.4833247405240543  0.03894092396075172  0.7463577665439515  1.0000
  N   N4        1.0  0.9610666805642013  0.5166700077217357  0.7536465271038181  1.0000
  N   N5        1.0  0.7263626949784411  0.8012206463557946  0.19635110247341458  1.0000
  N   N6        1.0  0.19878420067750116  0.27363819324271793  0.303635414697176  1.0000
  N   N7        1.0  0.2736346951410198  0.19878780978662294  0.8036390575066008  1.0000
  N   N8        1.0  0.801222792877802  0.7263569178454363  0.6963532049687301  1.0000
  N   N9        1.0  0.26222876272213824  0.9706984997445076  0.4840002627756235  1.0000
  N   N10       1.0  0.029295583531634715  0.7377714889287222  0.015997394526493687  1.0000
  N   N11       1.0  0.7377635103503837  0.029302649581914902  0.5159976625114239  1.0000
  N   N12       1.0  0.9707063717909747  0.26222668442498787  0.9839995234944324  1.0000
  N   N13       1.0  0.22859060021011854  0.7949216712279112  0.6048480568062969  1.0000
  N   N14       1.0  0.2050823624887385  0.7714057596471237  0.8951474943386369  1.0000
  N   N15       1.0  0.7714044617484961  0.2050795323456712  0.3951551026361314  1.0000
  N   N16       1.0  0.7949242131663541  0.2285904182744859  0.10485385775505301  1.0000
  O   O1        1.0  0.8131268175109911  0.6096439411419114  0.052215921490820015  1.0000
  O   O2        1.0  0.3903692681593256  0.18686760482243872  0.4477888071817731  1.0000
  O   O3        1.0  0.18687106618220645  0.3903655817924019  0.947782412620455  1.0000
  O   O4        1.0  0.6096289263900871  0.8131181055338034  0.5522186564509041  1.0000
  O   O5        1.0  0.2677141760570123  0.028847839610648407  0.19445037024918577  1.0000
  O   O6        1.0  0.9711523787589088  0.7322872969635412  0.3055560972308697  1.0000
  O   O7        1.0  0.7322841397251949  0.971152398334141  0.8055616214596595  1.0000
  O   O8        1.0  0.028847299652433323  0.2677098492245805  0.6944555152845311  1.0000
  O   O9        1.0  0.37386711502135483  0.8913325081791966  0.051320494772710466  1.0000
  O   O10       1.0  0.10866479070767097  0.6261290239146791  0.4486881967879268  1.0000
  O   O11       1.0  0.6261307269923082  0.10866668274528024  0.9486901988212181  1.0000
  O   O12       1.0  0.8913339164816421  0.373863946507882  0.5513179624815121  1.0000
  O   O13       1.0  0.6052013279084322  0.7038564729749625  0.9969557349152536  1.0000
  O   O14       1.0  0.2961476580717175  0.39480082854061055  0.5030487551312531  1.0000
  O   O15       1.0  0.3948034788565379  0.29615004939685724  0.0030466717990336603  1.0000
  O   O16       1.0  0.7038515564736584  0.6051952805129944  0.4969649972774093  1.0000
