data_image0
_chemical_formula_structural       Cr3Ga9P12H78C24N18O48
_chemical_formula_sum              "Cr3 Ga9 P12 H78 C24 N18 O48"
_cell_length_a       13.472047995787639
_cell_length_b       14.219150624733851
_cell_length_c       14.219817533404319
_cell_angle_alpha    110.50378348914968
_cell_angle_beta     108.41892432449862
_cell_angle_gamma    108.41298674672608

_space_group_name_H-M_alt    "P 1"
_space_group_IT_number       1

loop_
  _space_group_symop_operation_xyz
  'x, y, z'

loop_
  _atom_site_type_symbol
  _atom_site_label
  _atom_site_symmetry_multiplicity
  _atom_site_fract_x
  _atom_site_fract_y
  _atom_site_fract_z
  _atom_site_occupancy
  Cr  Cr1       1.0  0.2670783762744263  0.458013851008097  0.5885297136870236  1.0000
  Cr  Cr2       1.0  0.6785554109298174  0.4114886318952173  0.8694457049120672  1.0000
  Cr  Cr3       1.0  0.808975155681942  0.1305419204452605  0.5419789513718243  1.0000
  Ga  Ga1       1.0  0.4797672739539395  0.6255316789068034  0.4561580212061997  1.0000
  Ga  Ga2       1.0  0.31902209296539763  0.5861424329374857  0.13004184897400967  1.0000
  Ga  Ga3       1.0  0.023700649353351477  0.5439852394268244  0.16942598251422689  1.0000
  Ga  Ga4       1.0  0.18895296119917065  0.8699837583967355  0.45611411525037965  1.0000
  Ga  Ga5       1.0  0.854207983679359  0.8306338697381719  0.37454894133448857  1.0000
  Ga  Ga6       1.0  0.7328862708758661  0.5438982765002862  0.4138601063064087  1.0000
  Ga  Ga7       1.0  0.5187336973323936  0.3719283277293216  0.5428023725798357  1.0000
  Ga  Ga8       1.0  0.975968316415084  0.4572064284152688  0.8292027472148503  1.0000
  Ga  Ga9       1.0  0.146749116134103  0.1708649573800685  0.6280897457576344  1.0000
  P   P1        1.0  0.5399680064577126  0.6050217661600287  0.6611881901214718  1.0000
  P   P2        1.0  0.6016178033889616  0.6665461155248807  0.31176340081449894  1.0000
  P   P3        1.0  0.878796743769989  0.3388546274194937  0.9439062322678069  1.0000
  P   P4        1.0  0.28998927749400144  0.6883796393565264  0.35478665433431206  1.0000
  P   P5        1.0  0.9348967007651579  0.056195926115812304  0.3950127704209763  1.0000
  P   P6        1.0  0.9351031128679919  0.6452341130632746  0.33344755619454247  1.0000
  P   P7        1.0  0.4579465390806376  0.3936363085911908  0.33923268618933394  1.0000
  P   P8        1.0  0.3994900647094966  0.33234247441293974  0.6887547459725739  1.0000
  P   P9        1.0  0.11877421933186137  0.6608630812452533  0.05434452084297449  1.0000
  P   P10       1.0  0.7107473754876281  0.3112313720654854  0.6436045259750076  1.0000
  P   P11       1.0  0.06439771120535913  0.9456220409026841  0.6065147278408816  1.0000
  P   P12       1.0  0.06711953734678394  0.35640184951365245  0.6676512264113371  1.0000
  H   H1        1.0  0.4171316105489282  0.6590180088320282  0.765855729549678  1.0000
  H   H2        1.0  0.28711919034632427  0.6101928285451025  0.7703358414794084  1.0000
  H   H3        1.0  0.24256202992692982  0.5474425769655938  0.4602939702833454  1.0000
  H   H4        1.0  0.137078043071206  0.24216032206799554  0.4348307073570511  1.0000
  H   H5        1.0  0.2568560766212117  0.29437775826884405  0.41931089859750165  1.0000
  H   H6        1.0  0.3538115351088038  0.7229355558508743  0.6469676679620521  1.0000
  H   H7        1.0  0.27677771876928164  0.7522544752849714  0.7259644320260465  1.0000
  H   H8        1.0  0.13514867556292398  0.6434347694430401  0.512709052719366  1.0000
  H   H9        1.0  0.09851204344420954  0.5588376686461772  0.576862728427642  1.0000
  H   H10       1.0  0.03404462202691146  0.42513833110017163  0.31795745511075774  1.0000
  H   H11       1.0  0.016406273290698416  0.3694437597398093  0.410638510187539  1.0000
  H   H12       1.0  0.046303481632300206  0.240110281481634  0.26530342188729616  1.0000
  H   H13       1.0  0.18246199616143602  0.3577273843616667  0.30649097673313025  1.0000
  H   H14       1.0  0.6512512732869168  0.2341333517304207  0.8930532554058176  1.0000
  H   H15       1.0  0.5167499662655431  0.2296972597499832  0.8398102436684597  1.0000
  H   H16       1.0  0.7823639130435323  0.5396725259971902  0.08706654593991192  1.0000
  H   H17       1.0  0.7022996711899409  0.5652085678866288  0.8073258714169783  1.0000
  H   H18       1.0  0.8376138278255638  0.580707630172327  0.8750409518468487  1.0000
  H   H19       1.0  0.706979319193273  0.3530054934946277  0.07587916593817559  1.0000
  H   H20       1.0  0.5509424102103537  0.2739912793149345  0.026272474380917288  1.0000
  H   H21       1.0  0.62264214349846  0.4872667567319483  0.13076480702164864  1.0000
  H   H22       1.0  0.5217263774406645  0.423116402298831  0.9820524838673848  1.0000
  H   H23       1.0  0.7161629465385246  0.6819883525589886  0.10712583328050579  1.0000
  H   H24       1.0  0.6058424905720655  0.5893336559500993  0.9587487463078902  1.0000
  H   H25       1.0  0.7810714162417651  0.7346820359852871  0.9747800317973728  1.0000
  H   H26       1.0  0.8760938541228925  0.6935319024734385  0.051224042949620276  1.0000
  H   H27       1.0  0.7580241480984286  0.10682008110973841  0.34097489067707454  1.0000
  H   H28       1.0  0.67684369244499  0.16018209231894792  0.3897406679618882  1.0000
  H   H29       1.0  0.6950004724765151  0.912850905550208  0.45246003258861833  1.0000
  H   H30       1.0  0.8948650569432104  0.19259489227368928  0.7578324992557697  1.0000
  H   H31       1.0  0.9624284106393545  0.12490134170408142  0.7055755448770995  1.0000
  H   H32       1.0  0.6307364997467316  0.9240668368060202  0.27706379301496065  1.0000
  H   H33       1.0  0.5243798310381466  0.9737333595756824  0.24766347364040092  1.0000
  H   H34       1.0  0.4916019415340712  0.8692766618952844  0.3564546442037866  1.0000
  H   H35       1.0  0.5395130833248132  0.018002026823666  0.44108918805667235  1.0000
  H   H36       1.0  0.6088132542600775  0.8927589297279115  0.574733124110175  1.0000
  H   H37       1.0  0.6468895533510661  0.041130591121834904  0.6304777379472669  1.0000
  H   H38       1.0  0.8061573444428944  0.025055191227941993  0.7597658474080475  1.0000
  H   H39       1.0  0.8246807980099646  0.9486944123746498  0.6421184272674054  1.0000
  H   H40       1.0  0.5836005823820045  0.3445117379439893  0.23693122578688994  1.0000
  H   H41       1.0  0.7126901263572663  0.39351836419584174  0.23075983162203792  1.0000
  H   H42       1.0  0.7607237841834475  0.45241146657089365  0.5431335790437402  1.0000
  H   H43       1.0  0.8611662273669508  0.7598279370165882  0.5653079455209921  1.0000
  H   H44       1.0  0.7411343560227123  0.7037959936555325  0.5795016516205537  1.0000
  H   H45       1.0  0.6473284145412561  0.2772583219599412  0.3516002210752447  1.0000
  H   H46       1.0  0.7259311345575197  0.25177887463917165  0.2734821769782771  1.0000
  H   H47       1.0  0.8643903053613969  0.3553091436474459  0.4857722898629291  1.0000
  H   H48       1.0  0.9035687623455004  0.44324583123727734  0.4254209569432705  1.0000
  H   H49       1.0  0.9676695710359269  0.5787415268429754  0.6853008231049317  1.0000
  H   H50       1.0  0.9845415429868396  0.6306994993501505  0.5899210435650915  1.0000
  H   H51       1.0  0.9553122016067022  0.7620957668179643  0.7331295597453791  1.0000
  H   H52       1.0  0.8200083534663634  0.6458581918023825  0.695574220088993  1.0000
  H   H53       1.0  0.34677153913609254  0.7630800364720682  0.10756041976434004  1.0000
  H   H54       1.0  0.4820287769559783  0.7692509136050703  0.16281443850339625  1.0000
  H   H55       1.0  0.21761122777980546  0.45678212225891457  0.9093002713838487  1.0000
  H   H56       1.0  0.2957919105658533  0.43473408409232667  0.19461064956597343  1.0000
  H   H57       1.0  0.16154250437006817  0.42046940385187526  0.12428522849889131  1.0000
  H   H58       1.0  0.29586380956435226  0.6484122582080972  0.9256856872562055  1.0000
  H   H59       1.0  0.4526110263703913  0.7265037623975773  0.9783509816219721  1.0000
  H   H60       1.0  0.37865587331416617  0.5142236630258311  0.8696120151194364  1.0000
  H   H61       1.0  0.47821607186936893  0.5745516581686233  0.01789922832325881  1.0000
  H   H62       1.0  0.28236723958696064  0.3146610680336863  0.8935785519696537  1.0000
  H   H63       1.0  0.3946648739050147  0.41006758278931704  0.04090035127028104  1.0000
  H   H64       1.0  0.22219180949593206  0.26688797170271533  0.029152284807338356  1.0000
  H   H65       1.0  0.12442335781612712  0.3043518011770204  0.9503487128361601  1.0000
  H   H66       1.0  0.2391805244622916  0.8924038577069028  0.6555120382665934  1.0000
  H   H67       1.0  0.3191474675006062  0.837140894424948  0.6064060870176462  1.0000
  H   H68       1.0  0.30833723014229253  0.0907357115649603  0.5476213917371808  1.0000
  H   H69       1.0  0.1012801137593015  0.8054803084732283  0.2401727134071549  1.0000
  H   H70       1.0  0.03721432084122273  0.8756662431107075  0.2960941500150869  1.0000
  H   H71       1.0  0.37024926430743915  0.07428344208323519  0.7228087316233811  1.0000
  H   H72       1.0  0.4742925185227023  0.021566646220520607  0.7481611279670376  1.0000
  H   H73       1.0  0.509093154714968  0.13036929104374914  0.6446715526394586  1.0000
  H   H74       1.0  0.46027859860944176  0.9820984807665168  0.5566727383451423  1.0000
  H   H75       1.0  0.3888460082617299  0.10657890590545088  0.42126481775790137  1.0000
  H   H76       1.0  0.35380205893061867  0.959250613317309  0.36931096253462675  1.0000
  H   H77       1.0  0.19311753480734953  0.9710321610208725  0.23790008591742415  1.0000
  H   H78       1.0  0.17405667229866847  0.0497020672588349  0.3541257317484111  1.0000
  C   C1        1.0  0.284703895570928  0.6837615336889868  0.6670850950866267  1.0000
  C   C2        1.0  0.16617141991694945  0.6003788443824547  0.5569854725424221  1.0000
  C   C3        1.0  0.07828771248148317  0.4060704925390156  0.38281732487944015  1.0000
  C   C4        1.0  0.1219928782276654  0.3229407504025374  0.3366501656159998  1.0000
  C   C5        1.0  0.6177239154759134  0.3328886083682931  0.016639350502423194  1.0000
  C   C6        1.0  0.6093075429876789  0.442988116927225  0.043409076799520066  1.0000
  C   C7        1.0  0.6955596830953253  0.6171588812263096  0.023206456644437948  1.0000
  C   C8        1.0  0.7854506964895905  0.663344453576265  0.9862611122649768  1.0000
  C   C9        1.0  0.6007904095238815  0.9833566180928204  0.316191447002943  1.0000
  C   C10       1.0  0.5656667006821579  0.9566291124120953  0.3995438539938263  1.0000
  C   C11       1.0  0.67213631518036  0.9766899427249172  0.593831914525353  1.0000
  C   C12       1.0  0.7990079489084393  0.0136289467951727  0.6769512362455006  1.0000
  C   C13       1.0  0.7166709810149213  0.3185753615391747  0.3328012569824637  1.0000
  C   C14       1.0  0.8351444643801783  0.40088987290251055  0.4440941445273836  1.0000
  C   C15       1.0  0.9227949559167785  0.5950475700007943  0.6183077945699652  1.0000
  C   C16       1.0  0.8789722354494315  0.6790195214433866  0.6633975178950992  1.0000
  C   C17       1.0  0.38400201114783533  0.6672084050780641  0.9858323675316428  1.0000
  C   C18       1.0  0.39110735639241767  0.5558824489345467  0.9568653556120453  1.0000
  C   C19       1.0  0.3045216437372175  0.3816620249626226  0.9768635117032576  1.0000
  C   C20       1.0  0.2155819006375808  0.33657621458723247  0.015733749509919938  1.0000
  C   C21       1.0  0.3981975059460793  0.014131747979824598  0.6814238783251483  1.0000
  C   C22       1.0  0.4342372724230188  0.0431221707641356  0.5990718259807651  1.0000
  C   C23       1.0  0.327700942238657  0.023277000716021203  0.40496319555976623  1.0000
  C   C24       1.0  0.1998822482897965  0.9843866013397647  0.32098007099334325  1.0000
  N   N1        1.0  0.3246053219555095  0.6203725181207957  0.7201191730876532  1.0000
  N   N2        1.0  0.18414207565919577  0.5103721424213461  0.4849348681585256  1.0000
  N   N3        1.0  0.1911226165378537  0.30967632713819176  0.4315830152772265  1.0000
  N   N4        1.0  0.604483941059712  0.27987762735468646  0.9001860221499671  1.0000
  N   N5        1.0  0.6992768449105923  0.5150442621780016  0.025389528285543816  1.0000
  N   N6        1.0  0.7596049671286096  0.5684349829548979  0.8780666829508094  1.0000
  N   N7        1.0  0.7041263366922903  0.09976422335231662  0.379595373524765  1.0000
  N   N8        1.0  0.6736701022182032  0.9745679438431908  0.4895593847158112  1.0000
  N   N9        1.0  0.8813903167061312  0.12187007053995562  0.6902863471856125  1.0000
  N   N10       1.0  0.6761889624242201  0.3823673498144944  0.28132109289126833  1.0000
  N   N11       1.0  0.8179843429253494  0.48984556965609033  0.5178043729203737  1.0000
  N   N12       1.0  0.8086763683470936  0.6913903156821279  0.5685934559324651  1.0000
  N   N13       1.0  0.39496411776612916  0.718691535566748  0.10107195803115589  1.0000
  N   N14       1.0  0.3002057534367495  0.48215230889918104  0.9721028044289712  1.0000
  N   N15       1.0  0.24003417038007777  0.43141286577264293  0.12285030789588096  1.0000
  N   N16       1.0  0.29386429529400715  0.8988974512790052  0.6176247903554853  1.0000
  N   N17       1.0  0.32811588887356874  0.0279504398034831  0.5101605327254362  1.0000
  N   N18       1.0  0.11719217140678492  0.8771921125206104  0.3085814721314789  1.0000
  O   O1        1.0  0.4051993962393752  0.5235014903365354  0.569969411837164  1.0000
  O   O2        1.0  0.5868446832584766  0.676871349431565  0.6060161294821358  1.0000
  O   O3        1.0  0.6009355139083183  0.5252386033433041  0.6579164046540101  1.0000
  O   O4        1.0  0.5666202274238188  0.6785548318270643  0.7806999937577717  1.0000
  O   O5        1.0  0.5863388062933694  0.7090142420598086  0.42098644157108833  1.0000
  O   O6        1.0  0.6904435609837236  0.7790723540176147  0.3232000617217779  1.0000
  O   O7        1.0  0.4854648525299082  0.6051857427160813  0.20082240532099863  1.0000
  O   O8        1.0  0.6595793677020436  0.5890639965289282  0.30995883829531573  1.0000
  O   O9        1.0  0.8352376147382684  0.4300365086195796  0.9534964015424094  1.0000
  O   O10       1.0  0.980916835856405  0.3941506901562093  0.07093526649268254  1.0000
  O   O11       1.0  0.9429726688433249  0.34203469998355734  0.867333294063954  1.0000
  O   O12       1.0  0.7859407940395183  0.21934519133094446  0.898046507233289  1.0000
  O   O13       1.0  0.16549381723255147  0.579077050883562  0.2879836253719361  1.0000
  O   O14       1.0  0.36743189190917047  0.6770062443558303  0.45589761360884046  1.0000
  O   O15       1.0  0.2846466340749673  0.7992322353089422  0.4043446881489318  1.0000
  O   O16       1.0  0.34972932498487097  0.6902189841492402  0.27909010985662525  1.0000
  O   O17       1.0  0.881714290662657  0.046581417113586106  0.4765719300303318  1.0000
  O   O18       1.0  0.9098787951819034  0.9291508493955334  0.32320993163358497  1.0000
  O   O19       1.0  0.0756779504586476  0.132681602348363  0.4747726937743337  1.0000
  O   O20       1.0  0.8879699384313609  0.1021284693037217  0.32142164019160907  1.0000
  O   O21       1.0  0.8773522283761251  0.7120366432141908  0.2910298503562955  1.0000
  O   O22       1.0  0.9114643225109943  0.54421853699386  0.22092121205341195  1.0000
  O   O23       1.0  0.8802555257962438  0.5955493079501579  0.39470397834655546  1.0000
  O   O24       1.0  0.07056802287602452  0.7209097754891476  0.4109852930343437  1.0000
  O   O25       1.0  0.5914940085212023  0.476933182446146  0.43135843623024084  1.0000
  O   O26       1.0  0.410552498771203  0.3204858356907964  0.3932612248590531  1.0000
  O   O27       1.0  0.39479612632757716  0.47190104718328735  0.34123203834916177  1.0000
  O   O28       1.0  0.4334092089058784  0.32125882255487426  0.2201434968308789  1.0000
  O   O29       1.0  0.41420100050726216  0.28794520228068887  0.5793775153504798  1.0000
  O   O30       1.0  0.31022097377750407  0.22082261834909642  0.6785323555887288  1.0000
  O   O31       1.0  0.5163813632570751  0.3930302227043826  0.7994920430288346  1.0000
  O   O32       1.0  0.3439751663662988  0.4113704573503513  0.6913038336683642  1.0000
  O   O33       1.0  0.16016869916897747  0.5687224035617645  0.045452573798193854  1.0000
  O   O34       1.0  0.01717948879572631  0.6067361727646131  0.9272151743503088  1.0000
  O   O35       1.0  0.05380745200305638  0.6589359189086822  0.1307504698764177  1.0000
  O   O36       1.0  0.21332096863870492  0.7799258783610273  0.10091870789521809  1.0000
  O   O37       1.0  0.8348892608037984  0.42055199842533136  0.7085648999063424  1.0000
  O   O38       1.0  0.6317733486888244  0.32152796621164736  0.5423340447133855  1.0000
  O   O39       1.0  0.7167463432051235  0.2004182344217399  0.5935119747258143  1.0000
  O   O40       1.0  0.6526569964886164  0.3087271388742608  0.7200558609725719  1.0000
  O   O41       1.0  0.11466606678452247  0.9544892074785878  0.5232619057124169  1.0000
  O   O42       1.0  0.08996584646161658  0.072751835075394  0.6795110891226701  1.0000
  O   O43       1.0  0.9229995316768081  0.8692166841840177  0.5281540144335679  1.0000
  O   O44       1.0  0.11234187292889461  0.8990383427447816  0.6790074472541864  1.0000
  O   O45       1.0  0.12621697074384028  0.2914051957894372  0.7120681577303645  1.0000
  O   O46       1.0  0.08941951170407955  0.4577066351201538  0.7791660848940297  1.0000
  O   O47       1.0  0.123330164157693  0.406421390823951  0.6069554668595958  1.0000
  O   O48       1.0  0.9325368539523564  0.2799629223026514  0.5886389291667771  1.0000
