data_image0
_chemical_formula_structural       Zn2H24C36N22O12
_chemical_formula_sum              "Zn2 H24 C36 N22 O12"
_cell_length_a       9.023821554975893
_cell_length_b       12.428760303132623
_cell_length_c       12.645453567003234
_cell_angle_alpha    111.21905283413875
_cell_angle_beta     107.01100575153593
_cell_angle_gamma    100.97416838589439

_space_group_name_H-M_alt    "P 1"
_space_group_IT_number       1

loop_
  _space_group_symop_operation_xyz
  'x, y, z'

loop_
  _atom_site_type_symbol
  _atom_site_label
  _atom_site_symmetry_multiplicity
  _atom_site_fract_x
  _atom_site_fract_y
  _atom_site_fract_z
  _atom_site_occupancy
  Zn  Zn1       1.0  0.7322384197125446  0.17943998042162684  0.83918646288182  1.0000
  Zn  Zn2       1.0  0.2677614843243744  0.820560600862386  0.1608128533993777  1.0000
  H   H1        1.0  0.45109592472844884  0.15253437411594456  0.6046069921928918  1.0000
  H   H2        1.0  0.5489092810916529  0.8474625268333966  0.39539136267001845  1.0000
  H   H3        1.0  0.6056800701389804  0.4716664295539772  0.5510468954280228  1.0000
  H   H4        1.0  0.3943185866663938  0.5283314101153564  0.4489527715292922  1.0000
  H   H5        1.0  0.85798499377524  0.5517304698700014  0.7467290685642143  1.0000
  H   H6        1.0  0.142009925568658  0.4482719640912621  0.2532730049413204  1.0000
  H   H7        1.0  0.8898244163497393  0.42828579289488283  0.8625332112778852  1.0000
  H   H8        1.0  0.11017015372728163  0.5717184798586246  0.13747180837596315  1.0000
  H   H9        1.0  0.009659909082550646  0.2078377122727914  0.06347501346467507  1.0000
  H   H10       1.0  0.9903342020123912  0.7921628859035365  0.9365238690801122  1.0000
  H   H11       1.0  0.827031100416704  0.9577002745402294  0.1955270187794083  1.0000
  H   H12       1.0  0.17296608178266834  0.042299395793818896  0.8044706075594237  1.0000
  H   H13       1.0  0.5793454450981058  0.8504319944164394  0.9939121249912475  1.0000
  H   H14       1.0  0.4206490942538537  0.14956951330123763  0.0060847965681318965  1.0000
  H   H15       1.0  0.5543388997027561  0.9369467455286936  0.8428535107166583  1.0000
  H   H16       1.0  0.4456567918022569  0.06305476103748478  0.157144445980876  1.0000
  H   H17       1.0  0.8935051745879504  0.6798093184022916  0.03210288895161268  1.0000
  H   H18       1.0  0.10650131991432224  0.3201930854859468  0.9679016326781851  1.0000
  H   H19       1.0  0.7193352158627276  0.7242836706307328  0.3224645795792753  1.0000
  H   H20       1.0  0.2806704650278036  0.2757168993283798  0.6775375414155109  1.0000
  H   H21       1.0  0.9921114676478521  0.8871247730231674  0.4715369426767141  1.0000
  H   H22       1.0  0.007890063612549571  0.11287947611911157  0.5284671748745069  1.0000
  H   H23       1.0  0.20507374473457662  0.9337051858840014  0.3908538864435087  1.0000
  H   H24       1.0  0.7949304293732382  0.06629722587464928  0.609150935887165  1.0000
  C   C1        1.0  0.08854647232409009  0.15317411592531727  0.2572539261800629  1.0000
  C   C2        1.0  0.9114503084321939  0.8468246355883624  0.742741709515535  1.0000
  C   C3        1.0  0.35557635379041846  0.2550170295437795  0.45475254316584585  1.0000
  C   C4        1.0  0.6444234712563598  0.7449808034066406  0.5452457879524388  1.0000
  C   C5        1.0  0.5387325998448771  0.2414205572931891  0.6344059190971978  1.0000
  C   C6        1.0  0.46126837199216897  0.758577276361535  0.3655942374849701  1.0000
  C   C7        1.0  0.5090014470611591  0.30579952728342613  0.5640892257360195  1.0000
  C   C8        1.0  0.4909983726228332  0.6941983075228038  0.43590989570799366  1.0000
  C   C9        1.0  0.6258620596523556  0.4190535981444796  0.6032355030938916  1.0000
  C   C10       1.0  0.37413427675855343  0.5809442493952587  0.3967644645643064  1.0000
  C   C11       1.0  0.7645289139141767  0.463770233949667  0.7113624051815962  1.0000
  C   C12       1.0  0.2354674907612946  0.5362303656352766  0.2886401282909646  1.0000
  C   C13       1.0  0.7833497721741267  0.39475393467721176  0.7767312040957536  1.0000
  C   C14       1.0  0.21664786364453895  0.6052494120898189  0.2232733496778678  1.0000
  C   C15       1.0  0.9167986462502139  0.1287756158157478  0.05051171953520851  1.0000
  C   C16       1.0  0.08319738379610445  0.8712240556697994  0.949484871665469  1.0000
  C   C17       1.0  0.9400375950625348  0.0882529703717836  0.14221557093823387  1.0000
  C   C18       1.0  0.05995619357945963  0.9117494573177682  0.8577823061262254  1.0000
  C   C19       1.0  0.815837034687334  0.9877086642868705  0.12351005537253444  1.0000
  C   C20       1.0  0.18415749930183978  0.012292845286609103  0.8764876565125806  1.0000
  C   C21       1.0  0.6777043302753113  0.9298211868268568  0.013092238203007808  1.0000
  C   C22       1.0  0.32228945836669  0.0701812408626878  0.9869056388614512  1.0000
  C   C23       1.0  0.6635972576702757  0.9776041431422444  0.927958467724999  1.0000
  C   C24       1.0  0.3363980216660778  0.0223964483151775  0.07203907898075813  1.0000
  C   C25       1.0  0.6326096753184203  0.5901369376581443  0.07715738391637932  1.0000
  C   C26       1.0  0.3673976435211728  0.40986729644762226  0.9228479576969737  1.0000
  C   C27       1.0  0.9108081487548176  0.7253961653108264  0.12839382316496292  1.0000
  C   C28       1.0  0.08919950862608057  0.2746062337143087  0.8716101529515331  1.0000
  C   C29       1.0  0.7858788810972397  0.6908672785516217  0.16593603429404158  1.0000
  C   C30       1.0  0.21412719587359416  0.3091342120836628  0.8340688676697072  1.0000
  C   C31       1.0  0.8141870691591677  0.7503845617109307  0.29115788724919883  1.0000
  C   C32       1.0  0.18581744348995236  0.2496160149670885  0.7088455695846109  1.0000
  C   C33       1.0  0.9645971822907667  0.8401864740601965  0.373367094771936  1.0000
  C   C34       1.0  0.03540583430120848  0.1598159407057622  0.6266374827463111  1.0000
  C   C35       1.0  0.08362727229864922  0.8672044419821604  0.32894855460214256  1.0000
  C   C36       1.0  0.916375744293326  0.13279797278379143  0.6710560229161047  1.0000
  N   N1        1.0  0.34357919444536106  0.29910779854301944  0.37040986098218553  1.0000
  N   N2        1.0  0.6564198852542447  0.7008909525234656  0.6295886353154501  1.0000
  N   N3        1.0  0.20698265235994737  0.24736995858977906  0.2698088907027909  1.0000
  N   N4        1.0  0.7930145191138533  0.7526297154558819  0.730190316287498  1.0000
  N   N5        1.0  0.09207013514483006  0.12157288023437468  0.3493740992601034  1.0000
  N   N6        1.0  0.9079315245004052  0.8784212795474745  0.6506217456768937  1.0000
  N   N7        1.0  0.22705086222737236  0.1739445564355862  0.44995087092460306  1.0000
  N   N8        1.0  0.7729492277333705  0.8260486912448074  0.5500443192081833  1.0000
  N   N9        1.0  0.45560328758782737  0.9850060437746182  0.6685695864617289  1.0000
  N   N10       1.0  0.5444011889734526  0.0149917697233803  0.33142656260334763  1.0000
  N   N11       1.0  0.775842758963634  0.3612987167962061  0.06776705414752364  1.0000
  N   N12       1.0  0.22415978792069063  0.6387000271041785  0.9322329669131266  1.0000
  N   N13       1.0  0.6728192991952682  0.28467452775283425  0.7384989387810992  1.0000
  N   N14       1.0  0.32717943123745385  0.7153260621058948  0.26150250366485045  1.0000
  N   N15       1.0  0.779389298201572  0.0768161936170344  0.9467737906148488  1.0000
  N   N16       1.0  0.2206059757719955  0.9231843996961899  0.05322454641663641  1.0000
  N   N17       1.0  0.6153206440988866  0.5346462041831472  0.9584503302190445  1.0000
  N   N18       1.0  0.38468435970902687  0.46535803593722846  0.04155452176945567  1.0000
  N   N19       1.0  0.5201041772490453  0.5572976641489403  0.12046134474728372  1.0000
  N   N20       1.0  0.4798961228681689  0.44270383781125117  0.8795407525028766  1.0000
  N   N21       1.0  0.05734818430448018  0.8112620382268219  0.2084445548179942  1.0000
  N   N22       1.0  0.9426532626030023  0.18873946443766698  0.7915593678960492  1.0000
  O   O1        1.0  0.5876045241797669  0.9787798732937034  0.6521386644154248  1.0000
  O   O2        1.0  0.41240067123680996  0.0212270761883815  0.3478505758956771  1.0000
  O   O3        1.0  0.4707661163743139  0.08053541861938379  0.7638554765667962  1.0000
  O   O4        1.0  0.529235849635512  0.9194569172166637  0.23614374482771439  1.0000
  O   O5        1.0  0.31994054101083674  0.9051704810071043  0.5988977187068159  1.0000
  O   O6        1.0  0.6800649979877845  0.09482458671740797  0.40110006098496614  1.0000
  O   O7        1.0  0.8726813985877584  0.34304477934097116  0.008203850795887003  1.0000
  O   O8        1.0  0.1273180932805004  0.6569548868342777  0.9917950554935334  1.0000
  O   O9        1.0  0.6286979821108927  0.29060874261444514  0.012547892949228808  1.0000
  O   O10       1.0  0.3713038247890451  0.7093909175462016  0.987451502965044  1.0000
  O   O11       1.0  0.832295395369165  0.44605260628601673  0.17375090289601752  1.0000
  O   O12       1.0  0.1677070564366687  0.5539433948481901  0.8262505039789049  1.0000
