data_image0
_chemical_formula_structural       Zr6H28C62Cl12O32
_chemical_formula_sum              "Zr6 H28 C62 Cl12 O32"
_cell_length_a       14.95811845350149
_cell_length_b       14.863878732914081
_cell_length_c       14.898735377465758
_cell_angle_alpha    60.12729163674341
_cell_angle_beta     59.822091278716336
_cell_angle_gamma    59.86937004852538

_space_group_name_H-M_alt    "P 1"
_space_group_IT_number       1

loop_
  _space_group_symop_operation_xyz
  'x, y, z'

loop_
  _atom_site_type_symbol
  _atom_site_label
  _atom_site_symmetry_multiplicity
  _atom_site_fract_x
  _atom_site_fract_y
  _atom_site_fract_z
  _atom_site_occupancy
  Zr  Zr1       1.0  0.880423484576866  0.381298872230829  0.6131218527411235  1.0000
  Zr  Zr2       1.0  0.11546031752285286  0.6212808841849905  0.37813956375611457  1.0000
  Zr  Zr3       1.0  0.11564275493279294  0.3841650042400886  0.6174832335202183  1.0000
  Zr  Zr4       1.0  0.8840235987998711  0.6174075000652691  0.3753128594383528  1.0000
  Zr  Zr5       1.0  0.8774888105288454  0.6167206302055276  0.6184605436732653  1.0000
  Zr  Zr6       1.0  0.12148877068515417  0.3767478475472927  0.38259729742564735  1.0000
  H   H1        1.0  0.9030676493565435  0.40788755398489934  0.7782424724464436  1.0000
  H   H2        1.0  0.9050245078599841  0.781500258433617  0.4023608087065044  1.0000
  H   H3        1.0  0.2785895398166859  0.4071388715758956  0.4083045326553433  1.0000
  H   H4        1.0  0.912096669794046  0.4017432671039315  0.4024539092546463  1.0000
  H   H5        1.0  0.5392238359245737  0.74363435029052  0.8643036678674036  1.0000
  H   H6        1.0  0.6237437389533509  0.6626807779702377  0.9479798254447118  1.0000
  H   H7        1.0  0.4550383844436465  0.6654492747368009  0.11795192612109427  1.0000
  H   H8        1.0  0.36989005277524717  0.7456289898322623  0.034517865770084206  1.0000
  H   H9        1.0  0.2367487174153453  0.05426706588305307  0.3080548321523153  1.0000
  H   H10       1.0  0.1265653917649701  0.13537554571957602  0.2552864434849198  1.0000
  H   H11       1.0  0.12722713360596305  0.9656804150163084  0.2558755678453011  1.0000
  H   H12       1.0  0.23145441129985028  0.8824652330468367  0.3174815406291955  1.0000
  H   H13       1.0  0.5235288983110068  0.8611727807054662  0.3579914741289586  1.0000
  H   H14       1.0  0.6066564985871776  0.9465923733375233  0.2675408163641536  1.0000
  H   H15       1.0  0.43713652982539497  0.11532125010890573  0.27358686182139286  1.0000
  H   H16       1.0  0.3533078441019341  0.030344203151514575  0.3633780611447436  1.0000
  H   H17       1.0  0.8791479257302155  0.7452496559410304  0.028424839054743165  1.0000
  H   H18       1.0  0.7782067033120866  0.6791861401178141  0.11525884313887504  1.0000
  H   H19       1.0  0.767746061340304  0.6875222221057768  0.9466111184426679  1.0000
  H   H20       1.0  0.8728088026796137  0.7478644735441974  0.8624855245085783  1.0000
  H   H21       1.0  0.8250391470041337  0.2718934161519968  0.9372685958839567  1.0000
  H   H22       1.0  0.6767499417265057  0.28043994101297876  0.11404570309083786  1.0000
  H   H23       1.0  0.8205629899568122  0.9329157844197057  0.26512913417074935  1.0000
  H   H24       1.0  0.6736714759247702  0.10935665791377162  0.2785551585561095  1.0000
  H   H25       1.0  0.5395722780414827  0.3497201040281083  0.7389513950814434  1.0000
  H   H26       1.0  0.6205220271701107  0.2628093107637853  0.6563976704567693  1.0000
  H   H27       1.0  0.4480420184181496  0.2664825773688052  0.6601510505481016  1.0000
  H   H28       1.0  0.3669258053458223  0.35263566495012083  0.74346804318796  1.0000
  C   C1        1.0  0.6937314898247708  0.49782584066837615  0.7959853676325962  1.0000
  C   C2        1.0  0.9934116932124438  0.7992480486017753  0.507149322431374  1.0000
  C   C3        1.0  0.3012941672846522  0.4978024440159672  0.19681158105447588  1.0000
  C   C4        1.0  0.00916444172780466  0.18739578937070436  0.507443322353275  1.0000
  C   C5        1.0  0.9994705528566641  0.1940140910297288  0.7960239827922919  1.0000
  C   C6        1.0  0.6976980905454722  0.5055664024252094  0.49048285074871245  1.0000
  C   C7        1.0  0.0034448351080201144  0.7977498467705146  0.1864317855555839  1.0000
  C   C8        1.0  0.29374924021585247  0.5121855987230077  0.4985106796638022  1.0000
  C   C9        1.0  0.9968769812588789  0.4983728927140234  0.8027736247027446  1.0000
  C   C10       1.0  0.2950612230506024  0.19252171545403485  0.5122105382273148  1.0000
  C   C11       1.0  0.015394095225538262  0.49199936517181436  0.19252731727031863  1.0000
  C   C12       1.0  0.6925687307834779  0.7964761195336933  0.5037871254675255  1.0000
  C   C13       1.0  0.597156676878853  0.4895132217055361  0.8994380755738335  1.0000
  C   C14       1.0  0.40327375944657  0.49008403594796585  0.0978642482155864  1.0000
  C   C15       1.0  0.5453069670992431  0.5697816209430613  0.9490233946048788  1.0000
  C   C16       1.0  0.45738284416049874  0.4041987847989502  0.051602926753538746  1.0000
  C   C17       1.0  0.4523143435841133  0.5706105256394948  0.04336573238242648  1.0000
  C   C18       1.0  0.5511836307088556  0.4042003675869169  0.9546541470699735  1.0000
  C   C19       1.0  0.5498819445542152  0.6739314798160834  0.9390187043475536  1.0000
  C   C20       1.0  0.444383420022845  0.6752827998886985  0.045543240951616444  1.0000
  C   C21       1.0  0.009918599449370909  0.08174201895729995  0.5178978264861271  1.0000
  C   C22       1.0  0.9944424565480574  0.895051113764552  0.5151741861956084  1.0000
  C   C23       1.0  0.07456195808267549  0.03953776715508891  0.4311446320120352  1.0000
  C   C24       1.0  0.9255186932217683  0.9383855614481358  0.6036151800545894  1.0000
  C   C25       1.0  0.06926204748365457  0.9484241435536233  0.4312951257939589  1.0000
  C   C26       1.0  0.9382869593132381  0.023939067867999448  0.6085932076769821  1.0000
  C   C27       1.0  0.15767016680644022  0.058735892130869244  0.3161652590564401  1.0000
  C   C28       1.0  0.15500828666304745  0.9530061780648538  0.31821673886719265  1.0000
  C   C29       1.0  0.5906170274655196  0.8954382367977872  0.5128252296521794  1.0000
  C   C30       1.0  0.39142874515108167  0.0888036753310573  0.5204241434511302  1.0000
  C   C31       1.0  0.5341699837043734  0.9435905000530339  0.44000026305607076  1.0000
  C   C32       1.0  0.44434926230736954  0.039151960086677116  0.5989414200400488  1.0000
  C   C33       1.0  0.43974726642449  0.036464157317603114  0.44321637215119136  1.0000
  C   C34       1.0  0.5430272376430592  0.947204287836179  0.5930198374008099  1.0000
  C   C35       1.0  0.5349553536390417  0.9357912830850166  0.3419844362450063  1.0000
  C   C36       1.0  0.42858050087411204  0.041376101073680595  0.3453608727642532  1.0000
  C   C37       1.0  0.0169846026001963  0.48634440557090386  0.09425315101695028  1.0000
  C   C38       1.0  0.0008170792258396012  0.4872841990694852  0.9062547839851476  1.0000
  C   C39       1.0  0.9411062734999123  0.570243593193659  0.042625712492295575  1.0000
  C   C40       1.0  0.07525399435622393  0.39694583957144397  0.9612018616995998  1.0000
  C   C41       1.0  0.934391944069496  0.5716255232199712  0.9519204531575055  1.0000
  C   C42       1.0  0.08690560983671959  0.39935351144480075  0.04878007069209636  1.0000
  C   C43       1.0  0.8524408253654059  0.6812988219260702  0.042437168918091656  1.0000
  C   C44       1.0  0.8465173553955694  0.6839579485626003  0.9384778655896967  1.0000
  C   C45       1.0  0.9985269528144939  0.09095226572540577  0.896068152315003  1.0000
  C   C46       1.0  0.9131261216847477  0.09765807438842695  0.9986629359210613  1.0000
  C   C47       1.0  0.07888019943769826  0.9904555950238815  0.8884044682637082  1.0000
  C   C48       1.0  0.8267798654062729  0.1981059188930701  0.00955003240753171  1.0000
  C   C49       1.0  0.7430091810380617  0.2026281715420666  0.10833548544211173  1.0000
  C   C50       1.0  0.000508583545212042  0.8988914437758169  0.08474658889253558  1.0000
  C   C51       1.0  0.08082245893786685  0.8941859169036164  0.9836117267667462  1.0000
  C   C52       1.0  0.9128670124186441  4.487407323238923e-05  0.09380256902527859  1.0000
  C   C53       1.0  0.8245861256981613  0.007432129526066112  0.19405634655409906  1.0000
  C   C54       1.0  0.7414687886217735  0.10619953977121803  0.20117784337533362  1.0000
  C   C55       1.0  0.5969091796543609  0.5116226099283949  0.48555203569971184  1.0000
  C   C56       1.0  0.39549590641350096  0.5165720251113726  0.4911575798643214  1.0000
  C   C57       1.0  0.5428607351346669  0.43616966703056886  0.56644137953122  1.0000
  C   C58       1.0  0.4492089336833798  0.5943971087987094  0.4069990451018343  1.0000
  C   C59       1.0  0.44718176315391384  0.4382849187398963  0.5689027950098122  1.0000
  C   C60       1.0  0.547537102670546  0.5910148896940015  0.40342270023494115  1.0000
  C   C61       1.0  0.547928364236867  0.33585391620889027  0.6689243561087111  1.0000
  C   C62       1.0  0.44001611892143444  0.3380120129166286  0.67154835834927  1.0000
  Cl  Cl1       1.0  0.41347860139604353  0.2939078164231574  0.11094810754316596  1.0000
  Cl  Cl2       1.0  0.6082662710951113  0.2950808172782828  0.9085287444816003  1.0000
  Cl  Cl3       1.0  0.8190805012190479  0.8931562088685399  0.7073727776692211  1.0000
  Cl  Cl4       1.0  0.8663276608149816  0.05291201609181673  0.7298970768426544  1.0000
  Cl  Cl5       1.0  0.3913816311875277  0.08732992102617483  0.7055156046994285  1.0000
  Cl  Cl6       1.0  0.605133633041525  0.9049584774534052  0.6845159813788441  1.0000
  Cl  Cl7       1.0  0.15169674408957692  0.2778959296631739  0.9273184899396726  1.0000
  Cl  Cl8       1.0  0.19179568188351942  0.2937011098569897  0.09563180279374713  1.0000
  Cl  Cl9       1.0  0.3982151412383245  0.6973582185839788  0.30319858834958074  1.0000
  Cl  Cl10      1.0  0.6062744614916085  0.6865517775792682  0.29276052444581785  1.0000
  Cl  Cl11      1.0  0.1824015392581516  0.7703778869513228  0.9716143390679974  1.0000
  Cl  Cl12      1.0  0.17555661275571322  0.9805648087249423  0.7623627041054205  1.0000
  O   O1        1.0  0.7339136605977997  0.42864856182433897  0.747438583785936  1.0000
  O   O2        1.0  0.0677898294024929  0.7676446048975192  0.4249898674254382  1.0000
  O   O3        1.0  0.26384596515661934  0.5782251961666203  0.23041331117034508  1.0000
  O   O4        1.0  0.9272152066197705  0.23758517357124015  0.573400408206716  1.0000
  O   O5        1.0  0.07302855150998519  0.2339211414464585  0.762038648677553  1.0000
  O   O6        1.0  0.7412757595112678  0.5796657343415531  0.41816097412557696  1.0000
  O   O7        1.0  0.9280733064685336  0.7576443952578275  0.2263267110405779  1.0000
  O   O8        1.0  0.26050686959453606  0.4326780142757301  0.5755333401543651  1.0000
  O   O9        1.0  0.9170484561657658  0.5746733623082675  0.7699133016015053  1.0000
  O   O10       1.0  0.2625051392832773  0.22860908997247978  0.43216535448753746  1.0000
  O   O11       1.0  0.08764686025801875  0.41726045445029314  0.23698718914391037  1.0000
  O   O12       1.0  0.7336862946572752  0.7493040553678229  0.5796163348765974  1.0000
  O   O13       1.0  0.25387334628661057  0.2400792133047459  0.582336840091152  1.0000
  O   O14       1.0  0.9378792741048655  0.5715408264070091  0.22700437379397434  1.0000
  O   O15       1.0  0.7315580364749792  0.7661632512847659  0.420964644738504  1.0000
  O   O16       1.0  0.076184826401473  0.43131011268761194  0.7522082975252147  1.0000
  O   O17       1.0  0.9236113227863924  0.23382784737110987  0.7569255439278775  1.0000
  O   O18       1.0  0.24836129262572373  0.586468560700794  0.4265594840199468  1.0000
  O   O19       1.0  0.077150368976561  0.763253843008428  0.22629623865591958  1.0000
  O   O20       1.0  0.7334112866020847  0.4261915198560261  0.5673750678662586  1.0000
  O   O21       1.0  0.08670113259200453  0.2234422150549591  0.42969871148464023  1.0000
  O   O22       1.0  0.7301973186085817  0.5741967444285621  0.763462914087789  1.0000
  O   O23       1.0  0.9201489547261588  0.7554619736815126  0.5811436558904148  1.0000
  O   O24       1.0  0.2590770633025271  0.4231820645049353  0.24119933638822033  1.0000
  O   O25       1.0  0.936749645616686  0.43063738578845795  0.42851287159930257  1.0000
  O   O26       1.0  0.19901272697025968  0.4343873989834677  0.4334133173140131  1.0000
  O   O27       1.0  0.9310174022241213  0.70165002817199  0.4280682445849067  1.0000
  O   O28       1.0  0.9298693136181481  0.4333050880315454  0.6985534523187342  1.0000
  O   O29       1.0  0.04499027147864606  0.5517328557291492  0.5464970546640231  1.0000
  O   O30       1.0  0.8528531602441872  0.5487857884677824  0.5437344765385178  1.0000
  O   O31       1.0  0.05069009805581715  0.5476298504896633  0.3498542445392658  1.0000
  O   O32       1.0  0.048539428162925294  0.35107727040735176  0.5488729609757215  1.0000
