data_image0
_chemical_formula_structural       La4Cu6H60C48N12O48
_chemical_formula_sum              "La4 Cu6 H60 C48 N12 O48"
_cell_length_a       13.454572066387904
_cell_length_b       13.454571976012936
_cell_length_c       14.951227567039496
_cell_angle_alpha    89.9997366204592
_cell_angle_beta     90.00014863380017
_cell_angle_gamma    120.00009097985398

_space_group_name_H-M_alt    "P 1"
_space_group_IT_number       1

loop_
  _space_group_symop_operation_xyz
  'x, y, z'

loop_
  _atom_site_type_symbol
  _atom_site_label
  _atom_site_symmetry_multiplicity
  _atom_site_fract_x
  _atom_site_fract_y
  _atom_site_fract_z
  _atom_site_occupancy
  La  La1       1.0  0.33333487018634145  0.6666671004553776  0.6691841937065988  1.0000
  La  La2       1.0  0.6666676211721665  0.33333398609224213  0.8308114688241304  1.0000
  La  La3       1.0  0.6666673132532992  0.33333243150801906  0.3308164037729497  1.0000
  La  La4       1.0  0.33333370404575674  0.6666664040973417  0.1691871221284273  1.0000
  Cu  Cu1       1.0  0.4999990081651833  0.9999991207219736  0.4999995962211088  1.0000
  Cu  Cu2       1.0  0.5000002334984687  0.500000624203807  0.4999999643162879  1.0000
  Cu  Cu3       1.0  5.690721991286957e-07  0.5000015375765727  0.4999993788444712  1.0000
  Cu  Cu4       1.0  0.49999965200159124  0.999999851067585  0.9999994105165299  1.0000
  Cu  Cu5       1.0  0.9999994626016859  0.5000005221626721  0.9999996278883712  1.0000
  Cu  Cu6       1.0  0.5000000405572039  0.4999974681652759  8.862201568e-07  1.0000
  H   H1        1.0  0.3625231487907215  0.04018270308987581  0.4194755964112531  1.0000
  H   H2        1.0  0.17038202889644807  0.8649615755407396  0.47270474155673264  1.0000
  H   H3        1.0  0.26011600220453357  0.9740731218937243  0.5501905655507429  1.0000
  H   H4        1.0  0.31497699111756833  0.9219463333551517  0.30071623934317415  1.0000
  H   H5        1.0  0.26162562067379025  0.8010948153032871  0.3703374666675501  1.0000
  H   H6        1.0  0.6776617368493306  0.6374787051290908  0.4194774020672796  1.0000
  H   H7        1.0  0.694579895954121  0.8296197631200499  0.47270475981446947  1.0000
  H   H8        1.0  0.7139561550784636  0.7398849949738062  0.5501909138064818  1.0000
  H   H9        1.0  0.606970219581193  0.6850229332492787  0.3007164037583934  1.0000
  H   H10       1.0  0.539467747110571  0.7383724225409694  0.3703365843998796  1.0000
  H   H11       1.0  0.9598175102866764  0.3223407853483592  0.4194770483292699  1.0000
  H   H12       1.0  0.1350412701549075  0.30542268737282535  0.4727065294307735  1.0000
  H   H13       1.0  0.025925341500638424  0.28604217019821476  0.5501910493772187  1.0000
  H   H14       1.0  0.07805238581008221  0.3930290984677285  0.3007163899861638  1.0000
  H   H15       1.0  0.19890424358415265  0.4605311620078965  0.3703374306701051  1.0000
  H   H16       1.0  0.3223428844304837  0.9598191454213136  0.0805188655413005  1.0000
  H   H17       1.0  0.3054249012455088  0.13504301625491166  0.0272881379115262  1.0000
  H   H18       1.0  0.28604328690687447  0.02592333382283128  0.9498059032489509  1.0000
  H   H19       1.0  0.3930222937474355  0.07805197921782539  0.19928159391138678  1.0000
  H   H20       1.0  0.46052908627335404  0.1989068503851783  0.1296630585208192  1.0000
  H   H21       1.0  0.040179683559955555  0.3625239524191457  0.0805204427028272  1.0000
  H   H22       1.0  0.8649567504684369  0.17038188808466265  0.027290057484457  1.0000
  H   H23       1.0  0.9740753750522161  0.26012028449596175  0.9498075608809273  1.0000
  H   H24       1.0  0.9219456474888688  0.3149689753205251  0.1992823907540355  1.0000
  H   H25       1.0  0.8010915952636709  0.2616219356755777  0.12966332723596  1.0000
  H   H26       1.0  0.6374762565541447  0.6776545333687665  0.08051915087693831  1.0000
  H   H27       1.0  0.8296180593901356  0.694575154717917  0.0272895978342333  1.0000
  H   H28       1.0  0.739879819756439  0.7139530099971837  0.9498056766173875  1.0000
  H   H29       1.0  0.6850341118382564  0.6069800760391006  0.1992821765911259  1.0000
  H   H30       1.0  0.7383813261048929  0.5394727538062511  0.1296653529432703  1.0000
  H   H31       1.0  0.6374762608311145  0.9598166297231219  0.5805236633826639  1.0000
  H   H32       1.0  0.8296181239681814  0.13503850051505134  0.5272945182365092  1.0000
  H   H33       1.0  0.739882978306518  0.02592664003154956  0.4498080254003796  1.0000
  H   H34       1.0  0.6850219893936256  0.07805342856848779  0.6992830204493501  1.0000
  H   H35       1.0  0.7383741030803463  0.19890568986151888  0.629662461965701  1.0000
  H   H36       1.0  0.322337986904664  0.3625218000373421  0.5805218577245695  1.0000
  H   H37       1.0  0.30542100015330925  0.17038105617854873  0.5272944999780975  1.0000
  H   H38       1.0  0.286043568675531  0.2601155101926338  0.4498083459853675  1.0000
  H   H39       1.0  0.39302758857685666  0.3149765145389479  0.6992841937162098  1.0000
  H   H40       1.0  0.4605315475329304  0.26162851173447865  0.6296633442319788  1.0000
  H   H41       1.0  0.040183699952912565  0.6776612063036752  0.5805222114612363  1.0000
  H   H42       1.0  0.8649596259525227  0.6945781319257663  0.5272927303618005  1.0000
  H   H43       1.0  0.9740743822532072  0.7139583349698527  0.4498075415732288  1.0000
  H   H44       1.0  0.9219481961651895  0.6069705484774205  0.6992828698084708  1.0000
  H   H45       1.0  0.8010955951483256  0.5394677416944517  0.6296618291251974  1.0000
  H   H46       1.0  0.6776565251913523  0.04018018739167664  0.9194803942526165  1.0000
  H   H47       1.0  0.6945752516192699  0.8649570597992523  0.9727117907231175  1.0000
  H   H48       1.0  0.7139561227152529  0.9740759989869047  0.0501946942277698  1.0000
  H   H49       1.0  0.6069782882278358  0.9219476677273233  0.8007176658832478  1.0000
  H   H50       1.0  0.5394714957020667  0.8010927965583361  0.8703368701152172  1.0000
  H   H51       1.0  0.9598207834369747  0.637477295988461  0.9194794859297559  1.0000
  H   H52       1.0  0.13504426061761882  0.8296173297482028  0.972709871152972  1.0000
  H   H53       1.0  0.02592231812779026  0.7398807647514616  0.050195043114428  1.0000
  H   H54       1.0  0.07805407626526774  0.6850315298442808  0.8007175378792154  1.0000
  H   H55       1.0  0.19890887173311728  0.7383793127336561  0.8703359325552213  1.0000
  H   H56       1.0  0.36252295391459916  0.32234202562016634  0.9194827842880997  1.0000
  H   H57       1.0  0.17038103609969113  0.30542300573999637  0.972710330803146  1.0000
  H   H58       1.0  0.26011778924837614  0.28604366396861275  0.0501969273869349  1.0000
  H   H59       1.0  0.31496924395511183  0.3930197700531862  0.800719758571951  1.0000
  H   H60       1.0  0.26162234382062627  0.4605282646394784  0.870336582217739  1.0000
  C   C1        1.0  0.26501902972888314  0.819576097261816  0.5644472461725414  1.0000
  C   C2        1.0  0.2553105744234046  0.9071720703549248  0.5052853558133421  1.0000
  C   C3        1.0  0.3346891308732297  0.8884082565779536  0.3611160547408616  1.0000
  C   C4        1.0  0.4401813692812483  0.8774253260615907  0.3426621979345725  1.0000
  C   C5        1.0  0.5545564063033198  0.7349804872657302  0.5644470918030677  1.0000
  C   C6        1.0  0.6518600488761453  0.744689073532591  0.5052841505947043  1.0000
  C   C7        1.0  0.5537182021424414  0.6653091848264835  0.3611147673666224  1.0000
  C   C8        1.0  0.43724405434507935  0.5598168851081268  0.3426588401274344  1.0000
  C   C9        1.0  0.18042015645973225  0.4454425408614996  0.5644512672260902  1.0000
  C   C10       1.0  0.0928272752891672  0.34813904257625683  0.5052849872377152  1.0000
  C   C11       1.0  0.11159144468803121  0.4462813400430434  0.3611147038991405  1.0000
  C   C12       1.0  0.12257525762984767  0.5627577626606239  0.3426591344113348  1.0000
  C   C13       1.0  0.4454400564558797  0.18041884020792048  0.9355433954429984  1.0000
  C   C14       1.0  0.3481390860889065  0.09282762788933498  0.9947111800632484  1.0000
  C   C15       1.0  0.44627701384423096  0.11159180056612422  0.1388845393155478  1.0000
  C   C16       1.0  0.5627509656031222  0.12257056856366665  0.1573406625639038  1.0000
  C   C17       1.0  0.8195812722729982  0.26502194210354435  0.935544326925161  1.0000
  C   C18       1.0  0.9071708222727038  0.2553122133708357  0.9947121665246568  1.0000
  C   C19       1.0  0.8884070461736543  0.3346848815763506  0.1388845943560639  1.0000
  C   C20       1.0  0.8774293929060448  0.4401806812153525  0.15734037234950898  1.0000
  C   C21       1.0  0.734980660739808  0.5545568927320729  0.935546302768735  1.0000
  C   C22       1.0  0.7446880585700626  0.6518584891251178  0.9947124915617778  1.0000
  C   C23       1.0  0.665317953641697  0.5537247902678927  0.1388858853944583  1.0000
  C   C24       1.0  0.5598231536800712  0.43725157410577953  0.15734067536746474  1.0000
  C   C25       1.0  0.7349796366501593  0.18042249230838087  0.4355520136220434  1.0000
  C   C26       1.0  0.7446888351984313  0.0928272624580727  0.49471390398057474  1.0000
  C   C27       1.0  0.6653098496381135  0.1115915053440517  0.6388838738930644  1.0000
  C   C28       1.0  0.5598176112299527  0.12257443586204886  0.6573370618579517  1.0000
  C   C29       1.0  0.4454437465613169  0.2650195887900679  0.4355521679901742  1.0000
  C   C30       1.0  0.3481396748779986  0.2553114316322151  0.4947157780385467  1.0000
  C   C31       1.0  0.4462803492584087  0.3346910062045366  0.6388858301073057  1.0000
  C   C32       1.0  0.5627552402987137  0.44018404916406684  0.6573424261872276  1.0000
  C   C33       1.0  0.8195803105371982  0.5545587075461071  0.43554866140648574  1.0000
  C   C34       1.0  0.9071731917074713  0.6518622058346107  0.49471360371205714  1.0000
  C   C35       1.0  0.8884091372872406  0.5537183069021053  0.6388845558954941  1.0000
  C   C36       1.0  0.8774260675882247  0.43724262752732557  0.6573401253826319  1.0000
  C   C37       1.0  0.5545596672982641  0.8195816649568854  0.0644565331902598  1.0000
  C   C38       1.0  0.6518610667758725  0.9071724481648289  0.0052887485713953  1.0000
  C   C39       1.0  0.5537235681311901  0.8884078463773903  0.8611153893204886  1.0000
  C   C40       1.0  0.43724961637229864  0.8774290783798477  0.8426592660721255  1.0000
  C   C41       1.0  0.18041727912814323  0.7349782489242145  0.0644576082315709  1.0000
  C   C42       1.0  0.09282612766435969  0.744688092635414  0.0052897686299644  1.0000
  C   C43       1.0  0.1115926775804824  0.6653156235884551  0.8611153342771871  1.0000
  C   C44       1.0  0.12257075995859174  0.5598193948404386  0.842658887443733  1.0000
  C   C45       1.0  0.2650187488818858  0.4454424400825586  0.064452288183773  1.0000
  C   C46       1.0  0.25531072278804606  0.3481384989744639  0.0052894436018676  1.0000
  C   C47       1.0  0.33468454393038644  0.4462759140456853  0.8611160497658332  1.0000
  C   C48       1.0  0.4401809453557988  0.5627490152325691  0.8426599221121408  1.0000
  N   N1        1.0  0.3489746834091533  0.9605334237645379  0.4398265157005667  1.0000
  N   N2        1.0  0.6115580054842197  0.651024720624022  0.4398274650528862  1.0000
  N   N3        1.0  0.03946751168465581  0.3884431491936837  0.43982733973064103  1.0000
  N   N4        1.0  0.38844282920575773  0.039470156741401766  0.060171351990064195  1.0000
  N   N5        1.0  0.9605286405761648  0.3489728692740075  0.0601727176809774  1.0000
  N   N6        1.0  0.6510279486491727  0.6115556201362081  0.06017181070983209  1.0000
  N   N7        1.0  0.6510242971020405  0.03946633815910152  0.5601727440919504  1.0000
  N   N8        1.0  0.3884412891594238  0.3489762136498057  0.5601731324203739  1.0000
  N   N9        1.0  0.9605341276657172  0.6115584133460814  0.5601725889026595  1.0000
  N   N10       1.0  0.6115565804162274  0.9605291760699615  0.9398285766452545  1.0000
  N   N11       1.0  0.03947108317826327  0.6510276358875374  0.9398285486350773  1.0000
  N   N12       1.0  0.3489720050623646  0.38844168209552515  0.9398301244545307  1.0000
  O   O1        1.0  0.3567474977483515  0.8138140798166235  0.5571262275500644  1.0000
  O   O2        1.0  0.18528476273919392  0.7591078954997315  0.6186949977631784  1.0000
  O   O3        1.0  0.5245994638973954  0.9230508163557757  0.396994864570651  1.0000
  O   O4        1.0  0.4392620583271664  0.8217156330876771  0.2743669168863647  1.0000
  O   O5        1.0  0.4570657506363888  0.6432519483199143  0.557126698741591  1.0000
  O   O6        1.0  0.5738240264643935  0.8147156606551391  0.6186946685545536  1.0000
  O   O7        1.0  0.39845170946618697  0.47539877746235953  0.3969902945029631  1.0000
  O   O8        1.0  0.3824518318744554  0.5607345621905822  0.27436337855907306  1.0000
  O   O9        1.0  0.18617381872469002  0.5429297795152478  0.5571359533786263  1.0000
  O   O10       1.0  0.24089344369923546  0.42617748630148355  0.6186944156514044  1.0000
  O   O11       1.0  0.07694954334937187  0.6015499825496564  0.3969903252623936  1.0000
  O   O12       1.0  0.17828748972792155  0.6175510214079337  0.2743636905058224  1.0000
  O   O13       1.0  0.5429258223369544  0.18616502264234905  0.9428505899875148  1.0000
  O   O14       1.0  0.42617798079521674  0.24089682296268936  0.8813055605342514  1.0000
  O   O15       1.0  0.6015459644560438  0.07694677498938776  0.10301148440652952  1.0000
  O   O16       1.0  0.6175417277175584  0.17828202096723805  0.22563868205433832  1.0000
  O   O17       1.0  0.8138332764525132  0.3567601410681076  0.9428518910936531  1.0000
  O   O18       1.0  0.7591063870224415  0.18528270740855382  0.8813047280276578  1.0000
  O   O19       1.0  0.9230518009042044  0.5245991270035547  0.1030109324950743  1.0000
  O   O20       1.0  0.8217180622573963  0.43925973232170884  0.2256383798971555  1.0000
  O   O21       1.0  0.643246872423795  0.4570669943987794  0.9428608471026861  1.0000
  O   O22       1.0  0.8147187278043192  0.5738248323407547  0.8813039873580166  1.0000
  O   O23       1.0  0.47540199515981396  0.39845360312246914  0.10301133877536729  1.0000
  O   O24       1.0  0.5607448241603876  0.3824624865594756  0.22563886094486213  1.0000
  O   O25       1.0  0.6432519118737757  0.18618525299310545  0.4428743699266491  1.0000
  O   O26       1.0  0.814714217772142  0.24089186642227378  0.3813049308707476  1.0000
  O   O27       1.0  0.4754002598567411  0.0769496888090302  0.6030050640626001  1.0000
  O   O28       1.0  0.5607376654268209  0.17828487207875549  0.7256323429054845  1.0000
  O   O29       1.0  0.54293440222839  0.3567481277342423  0.44287322989305267  1.0000
  O   O30       1.0  0.42617612640037816  0.18528441539902474  0.3813052600800901  1.0000
  O   O31       1.0  0.6015471560668147  0.5246025859221106  0.6030103029689045  1.0000
  O   O32       1.0  0.6175478918799726  0.43926594297096216  0.7256378877569815  1.0000
  O   O33       1.0  0.8138266482723893  0.4570714688907243  0.4428646440953514  1.0000
  O   O34       1.0  0.7591059659227497  0.5738218465098796  0.3813055129839142  1.0000
  O   O35       1.0  0.923052525111494  0.39845115088109395  0.6030089345309051  1.0000
  O   O36       1.0  0.821714264600786  0.3824489396693663  0.7256355692895298  1.0000
  O   O37       1.0  0.45707433052753305  0.8138350534150761  0.057148000964325284  1.0000
  O   O38       1.0  0.5738217429589201  0.7591036822021167  0.1186943680989998  1.0000
  O   O39       1.0  0.398454617519228  0.9230528719557612  0.8969877753880979  1.0000
  O   O40       1.0  0.3824592833684974  0.8217171968656345  0.7743612465830908  1.0000
  O   O41       1.0  0.18616570405882987  0.6432396208539046  0.0571480375402729  1.0000
  O   O42       1.0  0.2408949381957726  0.8147176827777612  0.11869520060770361  1.0000
  O   O43       1.0  0.0769471796069895  0.4754006349200851  0.8969883272974427  1.0000
  O   O44       1.0  0.17828134736429752  0.5607396004929157  0.7743602110553524  1.0000
  O   O45       1.0  0.35675136484402264  0.5429320242885821  0.0571357373248986  1.0000
  O   O46       1.0  0.1852829115460467  0.42617673019901053  0.11869594127528418  1.0000
  O   O47       1.0  0.5245992458833515  0.6015424117805922  0.8969892587103772  1.0000
  O   O48       1.0  0.43926107549337695  0.6175407616162898  0.7743624053727346  1.0000
