data_image0
_chemical_formula_structural       CdH14C20N2O6F4
_chemical_formula_sum              "Cd1 H14 C20 N2 O6 F4"
_cell_length_a       7.023470844181142
_cell_length_b       7.833106353518076
_cell_length_c       9.910833036610857
_cell_angle_alpha    76.0552697069046
_cell_angle_beta     68.54610130532802
_cell_angle_gamma    79.49649966279715

_space_group_name_H-M_alt    "P 1"
_space_group_IT_number       1

loop_
  _space_group_symop_operation_xyz
  'x, y, z'

loop_
  _atom_site_type_symbol
  _atom_site_label
  _atom_site_symmetry_multiplicity
  _atom_site_fract_x
  _atom_site_fract_y
  _atom_site_fract_z
  _atom_site_occupancy
  Cd  Cd1       1.0  0.9999983010942584  3.7951982529931953e-07  0.9999993541975771  1.0000
  H   H1        1.0  0.4127356550498007  0.9161625810460094  0.9223707619313476  1.0000
  H   H2        1.0  0.5872504811036876  0.08382374362712851  0.0776450473321759  1.0000
  H   H3        1.0  0.3609227726921347  0.8519137126992223  0.09258075192633443  1.0000
  H   H4        1.0  0.6390689161267674  0.14808686313157438  0.9074281869809299  1.0000
  H   H5        1.0  0.8861730361246031  0.18225401245832978  0.5132773016799561  1.0000
  H   H6        1.0  0.11380741594631157  0.8177710716492755  0.4867167480274689  1.0000
  H   H7        1.0  0.0893800527454403  0.6419969376676065  0.3626901443810554  1.0000
  H   H8        1.0  0.9106276423583709  0.3580097035968919  0.6372968128872147  1.0000
  H   H9        1.0  0.1882859553899223  0.5617310901884738  0.1275279087047352  1.0000
  H   H10       1.0  0.8117312681427721  0.4382724823737973  0.872454346838346  1.0000
  H   H11       1.0  0.8805640408310751  0.00048595841132479306  0.3426802390938094  1.0000
  H   H12       1.0  0.1194182203339409  0.9995270760789199  0.6573216014743579  1.0000
  H   H13       1.0  0.1747568900572034  0.35956187362464925  0.9745289440983101  1.0000
  H   H14       1.0  0.8252575901694004  0.6404232105872014  0.025468363132638738  1.0000
  C   C1        1.0  0.9539633677713157  0.2279884256838969  0.3946282142847225  1.0000
  C   C2        1.0  0.0460131198852451  0.7720303684664316  0.6053628340994167  1.0000
  C   C3        1.0  0.033644946725644304  0.5151682956396471  0.42540003819948435  1.0000
  C   C4        1.0  0.966369007862028  0.4848380600484034  0.5745834916493564  1.0000
  C   C5        1.0  0.11953853254281908  0.4380156968013793  0.1808865069426561  1.0000
  C   C6        1.0  0.8804697349601085  0.5619857381759134  0.8190961980583324  1.0000
  C   C7        1.0  0.5301405130470299  0.6554815999858905  0.5279361091735169  1.0000
  C   C8        1.0  0.46986023381207803  0.34451578812204536  0.47207633772888613  1.0000
  C   C9        1.0  0.03596524723678838  0.3919821480177675  0.3356340196933445  1.0000
  C   C10       1.0  0.9640365843865267  0.6080195279032379  0.6643551913722023  1.0000
  C   C11       1.0  0.6160430662926616  0.8046951415726938  0.2594371594290052  1.0000
  C   C12       1.0  0.38395356614603326  0.19529993196187687  0.7405706008291235  1.0000
  C   C13       1.0  0.9502665558261681  0.12461846791504883  0.3003126624942  1.0000
  C   C14       1.0  0.04972995777991678  0.875391291129425  0.6996813926766806  1.0000
  C   C15       1.0  0.520829021628643  0.48993944044610077  0.35829240647350263  1.0000
  C   C16       1.0  0.479180783270678  0.5100547599389811  0.6417235484240466  1.0000
  C   C17       1.0  0.1127042187731604  0.325321164373122  0.09444291222151693  1.0000
  C   C18       1.0  0.8873067620978431  0.6746733335635398  0.9055525183752026  1.0000
  C   C19       1.0  0.5509445326064792  0.6482937695390234  0.384267265625546  1.0000
  C   C20       1.0  0.44906190612113756  0.35171522938902205  0.6157387503245533  1.0000
  N   N1        1.0  0.026611853687498407  0.17229694696782621  0.15191392444934593  1.0000
  N   N2        1.0  0.9733838684580148  0.8277010391457296  0.8480803993566184  1.0000
  O   O1        1.0  0.8064621616815941  0.8218390548084431  0.21505287739277898  1.0000
  O   O2        1.0  0.1935389061062764  0.1781401529332243  0.7849475958590731  1.0000
  O   O3        1.0  0.4795637473805457  0.900663559355536  0.21233434047242394  1.0000
  O   O4        1.0  0.520427032380617  0.0993252137891787  0.7876769195000008  1.0000
  O   O5        1.0  0.32278925550796334  0.8389431271278198  0.009184470962559007  1.0000
  O   O6        1.0  0.6771976133075059  0.16105495559865804  0.9908320958809185  1.0000
  F   F1        1.0  0.5436459803859891  0.47588100597695876  0.21909449700249442  1.0000
  F   F2        1.0  0.4563635569101053  0.5241171400368715  0.78092182500415  1.0000
  F   F3        1.0  0.5611907773979751  0.8063780037992175  0.55770807642071  1.0000
  F   F4        1.0  0.43883520061448417  0.1936089264335976  0.4422973297930284  1.0000
