data_image0
_chemical_formula_structural       Zn2H12C20N8O10
_chemical_formula_sum              "Zn2 H12 C20 N8 O10"
_cell_length_a       7.33710813414156
_cell_length_b       8.043630984960801
_cell_length_c       9.659704065292415
_cell_angle_alpha    112.56278256690099
_cell_angle_beta     104.9422031825878
_cell_angle_gamma    94.33489181806257

_space_group_name_H-M_alt    "P 1"
_space_group_IT_number       1

loop_
  _space_group_symop_operation_xyz
  'x, y, z'

loop_
  _atom_site_type_symbol
  _atom_site_label
  _atom_site_symmetry_multiplicity
  _atom_site_fract_x
  _atom_site_fract_y
  _atom_site_fract_z
  _atom_site_occupancy
  Zn  Zn1       1.0  0.44642651613690987  0.653102284890245  0.8954168056660026  1.0000
  Zn  Zn2       1.0  0.5535728161699325  0.34689769037390045  0.10458623668285578  1.0000
  H   H1        1.0  0.815473979986912  0.7199730754611835  0.4920314699715432  1.0000
  H   H2        1.0  0.184532899207916  0.28002260283740543  0.5079686575650513  1.0000
  H   H3        1.0  0.6632313137805356  0.08728387772799809  0.7849202267924085  1.0000
  H   H4        1.0  0.33676712884626175  0.9127119274095535  0.21507824291949626  1.0000
  H   H5        1.0  0.1455576250186326  0.4193196174778677  0.3333214281649646  1.0000
  H   H6        1.0  0.854434716356458  0.5806803582612473  0.6666739960863808  1.0000
  H   H7        1.0  0.7733646850348493  0.9240571278306929  0.9803665715058402  1.0000
  H   H8        1.0  0.22663980136793782  0.07594683137902793  0.019634596385905898  1.0000
  H   H9        1.0  0.19034847219587897  0.6544230964524542  0.047280657689498164  1.0000
  H   H10       1.0  0.8096469911091121  0.3455781919744823  0.9527147645234207  1.0000
  H   H11       1.0  0.11095465881947315  0.7330515753449162  0.9107754670568725  1.0000
  H   H12       1.0  0.8890425071402036  0.2669510819843878  0.08922175567249002  1.0000
  C   C1        1.0  0.8659005978735764  0.8708243922008378  0.35983326073052524  1.0000
  C   C2        1.0  0.1340998637387329  0.12917411926919437  0.640165415421663  1.0000
  C   C3        1.0  0.7176337072747502  0.7434927446394255  0.2142581085669449  1.0000
  C   C4        1.0  0.28236061354424186  0.2565100426563447  0.7857437587016279  1.0000
  C   C5        1.0  0.8972597128226171  0.8423596344503893  0.4972188119299475  1.0000
  C   C6        1.0  0.10274657325218327  0.15763326376380596  0.502778267182002  1.0000
  C   C7        1.0  0.9699952042619203  0.028554998737213597  0.3624042292427774  1.0000
  C   C8        1.0  0.03001195172211613  0.9714421222156558  0.637600540794601  1.0000
  C   C9        1.0  0.9388465384822667  0.05017619706349309  0.2149042844219976  1.0000
  C   C10       1.0  0.061156232085295324  0.9498264283185803  0.7850971618122884  1.0000
  C   C11       1.0  0.5935030737359385  0.04928292755899119  0.6602379999756353  1.0000
  C   C12       1.0  0.4064953688908588  0.9507128775785675  0.3397604697362625  1.0000
  C   C13       1.0  0.42509280736586424  0.7557813266352937  0.6394481769647129  1.0000
  C   C14       1.0  0.5749096600514108  0.24421992624194638  0.36055278448674244  1.0000
  C   C15       1.0  0.24454407849365375  0.6515421975825931  0.31373881086835104  1.0000
  C   C16       1.0  0.7554468436062224  0.34845783437107514  0.6862584159378642  1.0000
  C   C17       1.0  0.46672489487280433  0.8806754118861234  0.5697625915840447  1.0000
  C   C18       1.0  0.5332741474642902  0.11932315579846889  0.4302378871230061  1.0000
  C   C19       1.0  0.37300385921683  0.8307760715421395  0.4072811917603972  1.0000
  C   C20       1.0  0.6269906682762354  0.16922116951973717  0.5927169338219898  1.0000
  N   N1        1.0  0.22522829839830646  0.5511331974129303  0.3961529958205007  1.0000
  N   N2        1.0  0.7747696475846694  0.4488667463789612  0.6038466519357755  1.0000
  N   N3        1.0  0.306116172608519  0.5961455529767221  0.5530759179277283  1.0000
  N   N4        1.0  0.693882992565861  0.4038598632971499  0.4469246295303861  1.0000
  N   N5        1.0  0.689546475783196  0.7729014457657896  0.08446075909549214  1.0000
  N   N6        1.0  0.31045459212967325  0.22709981071391636  0.9155388866223575  1.0000
  N   N7        1.0  0.8041047083153076  0.9181337791634546  0.08800776608249092  1.0000
  N   N8        1.0  0.19589946175666034  0.08186884261615288  0.9119949958854008  1.0000
  O   O1        1.0  0.5055255188149488  0.8058370944478667  0.7911713422530868  1.0000
  O   O2        1.0  0.4944766322715069  0.19416282099926008  0.2088312132745145  1.0000
  O   O3        1.0  0.15375516127816263  0.5860876668711795  0.16773633473253818  1.0000
  O   O4        1.0  0.8462427978853525  0.4139122418459919  0.8322612341647614  1.0000
  O   O5        1.0  0.606647749947534  0.6126443069419026  0.21459146487464412  1.0000
  O   O6        1.0  0.39334328839936467  0.3873625911384125  0.7854068701121265  1.0000
  O   O7        1.0  0.030944528509166996  0.1801306427614904  0.20146732953569577  1.0000
  O   O8        1.0  0.9690564998620914  0.8198707189423828  0.7985385527590907  1.0000
  O   O9        1.0  0.22670071655601018  0.7106178192250354  0.9766485297921363  1.0000
  O   O10       1.0  0.773294133858137  0.2893807417295875  0.023346962284612947  1.0000
