data_image0
_chemical_formula_structural       La2P6H34C24O26
_chemical_formula_sum              "La2 P6 H34 C24 O26"
_cell_length_a       9.891594402576265
_cell_length_b       11.733552374841928
_cell_length_c       11.000751866929287
_cell_angle_alpha    102.21651836545338
_cell_angle_beta     87.04173378613811
_cell_angle_gamma    99.0676292443852

_space_group_name_H-M_alt    "P 1"
_space_group_IT_number       1

loop_
  _space_group_symop_operation_xyz
  'x, y, z'

loop_
  _atom_site_type_symbol
  _atom_site_label
  _atom_site_symmetry_multiplicity
  _atom_site_fract_x
  _atom_site_fract_y
  _atom_site_fract_z
  _atom_site_occupancy
  La  La1       1.0  0.9896385638111623  0.6537085281063995  0.7814675122579757  1.0000
  La  La2       1.0  0.010357019488544878  0.3462966466205443  0.21853058146798787  1.0000
  P   P1        1.0  0.2316133182655875  0.7290842458204025  0.6117638652767639  1.0000
  P   P2        1.0  0.7683881603166397  0.27091235303666394  0.3882375599582844  1.0000
  P   P3        1.0  0.12272465965475733  0.41478971047651936  0.8616987630094214  1.0000
  P   P4        1.0  0.8772782584757762  0.5852175273299025  0.13829966986313744  1.0000
  P   P5        1.0  0.8439700545861867  0.869596387194349  0.9223242593454088  1.0000
  P   P6        1.0  0.15602254608668886  0.1304095279380562  0.0776749760587307  1.0000
  H   H1        1.0  0.33857758639312147  0.8492704160380314  0.503693053665053  1.0000
  H   H2        1.0  0.6614366558136878  0.1507240428328629  0.4963121665635768  1.0000
  H   H3        1.0  0.5593509579492847  0.836246851532877  0.7053220735598629  1.0000
  H   H4        1.0  0.44068345351483623  0.1637083009915941  0.2946589872318413  1.0000
  H   H5        1.0  0.044089955198131685  0.26794499041768927  0.9623297032097113  1.0000
  H   H6        1.0  0.9559140925848196  0.7320640181209158  0.03767185089287745  1.0000
  H   H7        1.0  0.27108419495676367  0.7146551297869053  0.9443194123232601  1.0000
  H   H8        1.0  0.7289121402212543  0.2853553757815206  0.0556762777464215  1.0000
  H   H9        1.0  0.9274345406227411  0.0585414906358963  0.9400848212013672  1.0000
  H   H10       1.0  0.0725572421285534  0.9414652964514689  0.059911906094683304  1.0000
  H   H11       1.0  0.713654274202753  0.73878252724564  0.13405307719818185  1.0000
  H   H12       1.0  0.2863418643003754  0.2612174619821701  0.8659392429656592  1.0000
  H   H13       1.0  0.8408100739580746  0.4852598265898748  0.5498501907997451  1.0000
  H   H14       1.0  0.15919543749947707  0.5147360862696857  0.4501491753390354  1.0000
  H   H15       1.0  0.7413216723655865  0.5779286525718135  0.6052203045885278  1.0000
  H   H16       1.0  0.258675079786414  0.42205910156510384  0.3947682269784565  1.0000
  H   H17       1.0  0.3947693744952118  0.6983777882787977  0.748059675251028  1.0000
  H   H18       1.0  0.6052220395347092  0.30160428098326264  0.2519458193450745  1.0000
  H   H19       1.0  0.3017390199571821  0.4763508357369303  0.64466839564286  1.0000
  H   H20       1.0  0.6982531138468886  0.523636552999811  0.35533560277200144  1.0000
  H   H21       1.0  0.614816117019089  0.6992512025110714  0.4781285430561724  1.0000
  H   H22       1.0  0.3851779170591882  0.3007353800454524  0.5218761385736386  1.0000
  H   H23       1.0  0.17210670704983494  0.5656901446007295  0.045973941551828476  1.0000
  H   H24       1.0  0.8279043241311257  0.4343174261680929  0.9540253192513576  1.0000
  H   H25       1.0  0.332295617191761  0.5323937271666564  0.1756502624225718  1.0000
  H   H26       1.0  0.6677086985701023  0.46760661775715556  0.8243410707218147  1.0000
  H   H27       1.0  0.44033839206129216  0.5112096346669333  0.7876832105272626  1.0000
  H   H28       1.0  0.5596692898643737  0.4887934820674714  0.2123087059099049  1.0000
  H   H29       1.0  0.7745462680433804  0.931335780929544  0.1349960761540387  1.0000
  H   H30       1.0  0.2254475207273714  0.06866485534329311  0.8650082654453968  1.0000
  H   H31       1.0  0.4864955728071934  0.7827746455106066  0.9296829965492392  1.0000
  H   H32       1.0  0.5134963384827955  0.21722933732838356  0.07032944223252709  1.0000
  H   H33       1.0  0.6999710995003525  0.11133586964609068  0.123507478699139  1.0000
  H   H34       1.0  0.3000210441165336  0.8886690395558148  0.8765015345564536  1.0000
  C   C1        1.0  0.40499488338395645  0.7094568591531569  0.6509100150093445  1.0000
  C   C2        1.0  0.5950014345054981  0.29053242943921725  0.3490970748063802  1.0000
  C   C3        1.0  0.4537895934077553  0.6014644104125467  0.5718176353293245  1.0000
  C   C4        1.0  0.5462021644571633  0.3985203129034503  0.42818756491367793  1.0000
  C   C5        1.0  0.3895520558222642  0.48839171887680527  0.582196104384579  1.0000
  C   C6        1.0  0.6104368081304584  0.5115929321497391  0.4178045883123787  1.0000
  C   C7        1.0  0.5646203938601602  0.6121510571740741  0.4885214865370102  1.0000
  C   C8        1.0  0.4353744902438521  0.3878346647942906  0.511484795725849  1.0000
  C   C9        1.0  0.2279169739927696  0.5461112972879859  0.9566647399805815  1.0000
  C   C10       1.0  0.7720895426284713  0.45389963869193656  0.043330850658584594  1.0000
  C   C11       1.0  0.36989655545598044  0.5255801956488142  0.9786570068676923  1.0000
  C   C12       1.0  0.6301152124076522  0.4744310123708572  0.021333996681015287  1.0000
  C   C13       1.0  0.40505789557978733  0.5173374114066931  0.09782380952797348  1.0000
  C   C14       1.0  0.5949546183992922  0.4826720551291076  0.902168590279807  1.0000
  C   C15       1.0  0.4664978306433554  0.5081510485325751  0.881481738875962  1.0000
  C   C16       1.0  0.5335122314059646  0.49185480833806844  0.11850986332200358  1.0000
  C   C17       1.0  0.7168590256129048  0.8780109291429384  0.05346330510121791  1.0000
  C   C18       1.0  0.28313551503615036  0.12199503797136661  0.9465386328419355  1.0000
  C   C19       1.0  0.6039152368904439  0.9413222873230825  0.027745683911781862  1.0000
  C   C20       1.0  0.39607839712238047  0.058685364441110714  0.9722593951474964  1.0000
  C   C21       1.0  0.49054539336278674  0.8781466353738951  0.9598097495068744  1.0000
  C   C22       1.0  0.509450173028405  0.12186022157688108  0.04019510529231949  1.0000
  C   C23       1.0  0.612826821304516  0.06355021367311052  0.0676348674682501  1.0000
  C   C24       1.0  0.38716549043095944  0.9364555991581088  0.9323725352112435  1.0000
  O   O1        1.0  0.16697985367762408  0.8041651410332947  0.7236586804631457  1.0000
  O   O2        1.0  0.8330235893871247  0.19583067437715576  0.2763416130367773  1.0000
  O   O3        1.0  0.25693265279665667  0.7891738955934571  0.4936216295931644  1.0000
  O   O4        1.0  0.7430808035927257  0.21082144659919072  0.5063801750523425  1.0000
  O   O5        1.0  0.1370357785500005  0.6113196848491782  0.5762144147625962  1.0000
  O   O6        1.0  0.8629649463189679  0.38867780869644974  0.42378268741428127  1.0000
  O   O7        1.0  0.4902494290495127  0.8178096052407114  0.6409738963415706  1.0000
  O   O8        1.0  0.5097557480058227  0.18217827483018573  0.35903541766385433  1.0000
  O   O9        1.0  0.20376940451883738  0.33031186011139374  0.7793338089938828  1.0000
  O   O10       1.0  0.7962337138344395  0.6696962926911427  0.22066210582754311  1.0000
  O   O11       1.0  0.014780036680527086  0.4634788861720481  0.8008801540248386  1.0000
  O   O12       1.0  0.9852179419384584  0.5365307222817677  0.1991234790601197  1.0000
  O   O13       1.0  0.04831145493371029  0.35643643446126555  0.9736601897738807  1.0000
  O   O14       1.0  0.9516987811191129  0.6435745486484735  0.02634534331851057  1.0000
  O   O15       1.0  0.22491646973086438  0.6424521841313864  0.8919491180705066  1.0000
  O   O16       1.0  0.7750799372532811  0.35755919096594374  0.1080476838481985  1.0000
  O   O17       1.0  0.7979297328794104  0.7709141781532834  0.811363581108651  1.0000
  O   O18       1.0  0.20206093541509768  0.2290925317925385  0.1886358785555728  1.0000
  O   O19       1.0  0.9794126988102646  0.8435057102469514  0.9717836448360871  1.0000
  O   O20       1.0  0.020582202582303897  0.15650122869746502  0.028211237680729105  1.0000
  O   O21       1.0  0.8696068775393825  0.9916538811152762  0.8808458926989786  1.0000
  O   O22       1.0  0.13038371894899828  0.008351959301627696  0.1191524551162289  1.0000
  O   O23       1.0  0.663925474587586  0.7627936098679629  0.06893042767571703  1.0000
  O   O24       1.0  0.33606897905971067  0.23720979412680515  0.9310645448202237  1.0000
  O   O25       1.0  0.8207058553237232  0.5460897745279568  0.6259542887288134  1.0000
  O   O26       1.0  0.1792957195709803  0.4539068584295052  0.374044414081112  1.0000
