data_image0
_chemical_formula_structural       Zn12H128C184N24O52
_chemical_formula_sum              "Zn12 H128 C184 N24 O52"
_cell_length_a       11.280389682002488
_cell_length_b       18.170140276005366
_cell_length_c       25.164276741001853
_cell_angle_alpha    89.9999560247082
_cell_angle_beta     89.99999999070303
_cell_angle_gamma    89.9999237908057

_space_group_name_H-M_alt    "P 1"
_space_group_IT_number       1

loop_
  _space_group_symop_operation_xyz
  'x, y, z'

loop_
  _atom_site_type_symbol
  _atom_site_label
  _atom_site_symmetry_multiplicity
  _atom_site_fract_x
  _atom_site_fract_y
  _atom_site_fract_z
  _atom_site_occupancy
  Zn  Zn1       1.0  0.3772324554956441  0.0734577565148271  0.9763777334985732  1.0000
  Zn  Zn2       1.0  0.6227682999092253  0.07345789597569312  0.5236224202311774  1.0000
  Zn  Zn3       1.0  0.6227688078131308  0.4265421517367187  0.4763779683745426  1.0000
  Zn  Zn4       1.0  0.3772311914541859  0.4265424937336276  0.023622257640298003  1.0000
  Zn  Zn5       1.0  0.6227682721386429  0.9265423848707568  0.0236221191893904  1.0000
  Zn  Zn6       1.0  0.3772315412308558  0.9265422454098413  0.4763782272342425  1.0000
  Zn  Zn7       1.0  0.3772319198211563  0.5734579896486595  0.5236222817021456  1.0000
  Zn  Zn8       1.0  0.622768649686492  0.5734570972986363  0.9763779924365394  1.0000
  Zn  Zn9       1.0  5.856395474999999e-07  0.2802767346533129  0.24999955735748358  1.0000
  Zn  Zn10      1.0  0.9999997635061747  0.21972327640907707  0.74999963888407  1.0000
  Zn  Zn11      1.0  1.0002967983000004e-06  0.7197249198740038  0.7499998977823736  1.0000
  Zn  Zn12      1.0  0.9999991629487539  0.7802772774121535  0.2500002136448174  1.0000
  H   H1        1.0  0.4827667901311443  0.20510936576431496  0.0449525565134081  1.0000
  H   H2        1.0  0.5172336840622975  0.20510913350276636  0.4550477921664751  1.0000
  H   H3        1.0  0.5172335876773247  0.2948910012622079  0.5449525964056647  1.0000
  H   H4        1.0  0.4827666928014196  0.29489079743135693  0.955047832047768  1.0000
  H   H5        1.0  0.5172330510095335  0.7948902252679417  0.9550476935634364  1.0000
  H   H6        1.0  0.48276704357257944  0.7948904575291279  0.5449524579103624  1.0000
  H   H7        1.0  0.4827671399569553  0.7051091401231631  0.45504765367102346  1.0000
  H   H8        1.0  0.5172331483386685  0.7051093439543832  0.0449524180289202  1.0000
  H   H9        1.0  0.7068422557490451  0.32317544786536695  0.1533434793302604  1.0000
  H   H10       1.0  0.29315885171202183  0.3231755156990275  0.34665640655693153  1.0000
  H   H11       1.0  0.29315723531552623  0.17682480389934344  0.6533435845551879  1.0000
  H   H12       1.0  0.7068424118956002  0.17682453049733476  0.8466565119134728  1.0000
  H   H13       1.0  0.2931566988974339  0.6768241431672591  0.8466567707465842  1.0000
  H   H14       1.0  0.7068427624170538  0.6768240753327105  0.6533434461311742  1.0000
  H   H15       1.0  0.7068434923193507  0.823174787132757  0.34665626813291794  1.0000
  H   H16       1.0  0.2931565427502889  0.8231756108887748  0.1533437381632154  1.0000
  H   H17       1.0  0.729760156630981  0.08737098950263797  0.1444841602786653  1.0000
  H   H18       1.0  0.27024057008434  0.08737216752670919  0.3555158562344403  1.0000
  H   H19       1.0  0.2702411074429847  0.41262872132885775  0.6444841348702469  1.0000
  H   H20       1.0  0.7297598070074971  0.4126289699557688  0.8555162283610969  1.0000
  H   H21       1.0  0.27024057100448573  0.9126280511757656  0.8555160897983356  1.0000
  H   H22       1.0  0.7297592710557481  0.9126279738594574  0.6444835990647917  1.0000
  H   H23       1.0  0.7297587336971034  0.5873714200568826  0.35551611520644844  1.0000
  H   H24       1.0  0.27024003413200154  0.5873717217834551  0.1444840217154422  1.0000
  H   H25       1.0  0.2754363941405417  0.011610100858383997  0.0801846975753406  1.0000
  H   H26       1.0  0.7245636085729925  0.011609735042206599  0.419815360906675  1.0000
  H   H27       1.0  0.7245639835873591  0.48838967834910824  0.5801846303428491  1.0000
  H   H28       1.0  0.2754358818776979  0.4883902333580465  0.9198156909198758  1.0000
  H   H29       1.0  0.7245634469995539  0.9883900405273635  0.9198155525013476  1.0000
  H   H30       1.0  0.27543534607349335  0.9883898559904198  0.5801848891701624  1.0000
  H   H31       1.0  0.27543674404810764  0.5116093623293024  0.4198156197341447  1.0000
  H   H32       1.0  0.7245639592623905  0.5116099080276937  0.0801845591568124  1.0000
  H   H33       1.0  0.1273128183821157  0.9750523300298823  0.148311165180985  1.0000
  H   H34       1.0  0.8726868909443297  0.9750519144764453  0.3516887569814244  1.0000
  H   H35       1.0  0.872687373291022  0.5249473615425797  0.648311354724008  1.0000
  H   H36       1.0  0.12731241376607733  0.5249475608262913  0.8516885488985864  1.0000
  H   H37       1.0  0.8726870227579795  0.02494781135607129  0.8516886875069716  1.0000
  H   H38       1.0  0.12731206370156664  0.024948226909664598  0.6483114930952637  1.0000
  H   H39       1.0  0.1273133543438547  0.47505222948952036  0.3516884979640976  1.0000
  H   H40       1.0  0.8726865408809916  0.47505147985306434  0.1483113037896757  1.0000
  H   H41       1.0  0.9144409179091184  0.008515718845856697  0.1388261613977306  1.0000
  H   H42       1.0  0.0855590914405582  0.008515942484351098  0.3611735014095601  1.0000
  H   H43       1.0  0.08555945968309692  0.49148454835619043  0.6388260922477897  1.0000
  H   H44       1.0  0.9144403991452207  0.49148408827525  0.8611738299120475  1.0000
  H   H45       1.0  0.08555980972516859  0.9914844225397272  0.8611736912902259  1.0000
  H   H46       1.0  0.9144398632047411  0.9914847492556613  0.6388259538895156  1.0000
  H   H47       1.0  0.9144412679511902  0.5085155930291806  0.3611741578288985  1.0000
  H   H48       1.0  0.08555855550125811  0.5085155027575822  0.1388260227760583  1.0000
  H   H49       1.0  0.8409682082305068  0.07441621816779789  0.0595037759318231  1.0000
  H   H50       1.0  0.1590316597769856  0.0744162968500746  0.440495850369274  1.0000
  H   H51       1.0  0.15903216954502852  0.4255835830316244  0.5595037433116019  1.0000
  H   H52       1.0  0.8409678306260632  0.42558364955867484  0.9404962153545853  1.0000
  H   H53       1.0  0.1590325194037803  0.925583923217793  0.9404960767561334  1.0000
  H   H54       1.0  0.8409672948689108  0.9255838445362417  0.5595040023186826  1.0000
  H   H55       1.0  0.8409685580892514  0.5744165583539667  0.4404961093763546  1.0000
  H   H56       1.0  0.1590320105134353  0.5744170421803431  0.05950443211068549  1.0000
  H   H57       1.0  0.0345536322137434  0.12834196220588007  0.8575175566415751  1.0000
  H   H58       1.0  0.9654470054767968  0.12834169260652564  0.6424821692959028  1.0000
  H   H59       1.0  0.9654476313670839  0.3716597235011746  0.3575178220296422  1.0000
  H   H60       1.0  0.0345524856127923  0.3716585707079361  0.1424824343882776  1.0000
  H   H61       1.0  0.9654462089263447  0.8716581791800734  0.1424822960463814  1.0000
  H   H62       1.0  0.0345528356632911  0.8716584487794277  0.3575176833920537  1.0000
  H   H63       1.0  0.0345539827602153  0.6283415185908011  0.6424824280467404  1.0000
  H   H64       1.0  0.9654473555272959  0.6283415706780174  0.8575174182996791  1.0000
  H   H65       1.0  0.2752118546703102  0.24979381617505675  0.9582428499027743  1.0000
  H   H66       1.0  0.7247867495441015  0.24979330184537213  0.5417568087553164  1.0000
  H   H67       1.0  0.7247885221860458  0.25020611136152127  0.45824278510554706  1.0000
  H   H68       1.0  0.2752127417781267  0.2502065182262213  0.041757141203639506  1.0000
  H   H69       1.0  0.7247870999749891  0.7502068755647427  0.0417570027850331  1.0000
  H   H70       1.0  0.2752130915959867  0.7502068395405813  0.45824304393264004  1.0000
  H   H71       1.0  0.27521309194303006  0.7497934796704298  0.5417566701938341  1.0000
  H   H72       1.0  0.7247870993625514  0.7497930728060351  0.958243108873198  1.0000
  H   H73       1.0  0.3053561096354116  0.33727803344725515  0.8831292025248346  1.0000
  H   H74       1.0  0.6946405339564947  0.337276913754252  0.6168712024481451  1.0000
  H   H75       1.0  0.6946442673928105  0.1627230746718027  0.38312878879170853  1.0000
  H   H76       1.0  0.30535895719268785  0.162722826441609  0.11687078859102232  1.0000
  H   H77       1.0  0.6946401855267084  0.6627232086471295  0.1168706501628165  1.0000
  H   H78       1.0  0.30535842068998426  0.6627226772781611  0.3831294450174312  1.0000
  H   H79       1.0  0.3053591197246632  0.8372765163592105  0.6168710638963972  1.0000
  H   H80       1.0  0.6946408839479902  0.8372767645906476  0.8831294614858222  1.0000
  H   H81       1.0  0.1908166486227429  0.3170493332047926  0.7981861746975554  1.0000
  H   H82       1.0  0.8091835843311727  0.31704912940994484  0.7018130493148645  1.0000
  H   H83       1.0  0.8091846150953614  0.1829518652415132  0.2981861471836638  1.0000
  H   H84       1.0  0.19081679311652525  0.18295052045878893  0.2018130216046998  1.0000
  H   H85       1.0  0.8091823060231461  0.6829508081817364  0.20181328060167658  1.0000
  H   H86       1.0  0.19081714330311436  0.6829510119756462  0.2981868033730919  1.0000
  H   H87       1.0  0.19081611253833594  0.8170488264979809  0.7018129107266802  1.0000
  H   H88       1.0  0.809183048023563  0.8170496209271647  0.7981868310832567  1.0000
  H   H89       1.0  0.8272656083374628  0.1285209862655705  0.9783269100441245  1.0000
  H   H90       1.0  0.17273414247466687  0.12852094866529742  0.5216724184053874  1.0000
  H   H91       1.0  0.17273476847321234  0.37147836956031444  0.47832677789126876  1.0000
  H   H92       1.0  0.8272653488944216  0.3714783424104411  0.0216726838493386  1.0000
  H   H93       1.0  0.17273423280321507  0.8714786047668992  0.0216729426439883  1.0000
  H   H94       1.0  0.8272656986660111  0.8714786423671727  0.47832743428272556  1.0000
  H   H95       1.0  0.8272659591616645  0.6285212214720062  0.5216726774081124  1.0000
  H   H96       1.0  0.1727336057520574  0.6285212486223912  0.9783271688387672  1.0000
  H   H97       1.0  0.8941498026304019  0.14717081982014693  0.9169418702267507  1.0000
  H   H98       1.0  0.1058507946760656  0.14717077211365384  0.5830578452802371  1.0000
  H   H99       1.0  0.10585057432169262  0.3528286012821481  0.41694174838387  1.0000
  H   H100      1.0  0.8941486965510137  0.35282900403873174  0.0830581210765757  1.0000
  H   H101      1.0  0.10585092500447503  0.8528287712119605  0.0830579824613622  1.0000
  H   H102      1.0  0.8941490464640226  0.8528293692722995  0.4169420074077194  1.0000
  H   H103      1.0  0.8941492668189853  0.6471709897503217  0.5830581043042429  1.0000
  H   H104      1.0  0.10585114458907441  0.6471711373470084  0.9169421290001125  1.0000
  H   H105      1.0  0.967195021493282  0.26838997929993275  0.9501384990825059  1.0000
  H   H106      1.0  0.0328044293299641  0.2683900271478023  0.5498611492739016  1.0000
  H   H107      1.0  0.032804468887548004  0.23160995685511657  0.4501384443668144  1.0000
  H   H108      1.0  0.9671950619735908  0.23160978430568238  0.0498614922440552  1.0000
  H   H109      1.0  0.03280393315319691  0.7316096117326936  0.0498617509943315  1.0000
  H   H110      1.0  0.9671954118101239  0.7316101142381513  0.45013870341405493  1.0000
  H   H111      1.0  0.96719537225254  0.7683901845308369  0.5498614083211422  1.0000
  H   H112      1.0  0.0328047791670869  0.7683898067265744  0.9501387578327892  1.0000
  H   H113      1.0  0.8116711466967529  0.2611600489115559  0.9516744085055536  1.0000
  H   H114      1.0  0.18832831963327837  0.2611599701057442  0.5483252438559844  1.0000
  H   H115      1.0  0.1883292301753272  0.23883933525637244  0.45167434983436294  1.0000
  H   H116      1.0  0.8116702851802129  0.23883929262789397  0.048325582771688906  1.0000
  H   H117      1.0  0.188328694443932  0.7388395421211269  0.048325046793827695  1.0000
  H   H118      1.0  0.8116715215073996  0.7388396209267256  0.4516746088321284  1.0000
  H   H119      1.0  0.8116714974595498  0.7611602557757349  0.5483255028537499  1.0000
  H   H120      1.0  0.18832955596046472  0.7611602984045759  0.951674269916424  1.0000
  H   H121      1.0  0.9313343739614697  0.4409575552893087  0.2468907409577454  1.0000
  H   H122      1.0  0.06866648088328732  0.4409568070704211  0.2531090796831137  1.0000
  H   H123      1.0  0.06866600338179299  0.059042596997500085  0.7468909113578945  1.0000
  H   H124      1.0  0.9313338964456436  0.059043338604062995  0.7531088529683743  1.0000
  H   H125      1.0  0.06866635367222781  0.559043136449766  0.753109111730062  1.0000
  H   H126      1.0  0.9313342467515898  0.5590427839614732  0.7468911703937239  1.0000
  H   H127      1.0  0.9313338377577055  0.940958094741731  0.2531093387186445  1.0000
  H   H128      1.0  0.06866683118745702  0.9409579034884956  0.2468909997192767  1.0000
  C   C1        1.0  0.5635974762300934  0.06972731810863309  0.0647238755565454  1.0000
  C   C2        1.0  0.43640240183431434  0.06972717354697269  0.43527615073080733  1.0000
  C   C3        1.0  0.43640290153400946  0.4302719271862826  0.5647238404271988  1.0000
  C   C4        1.0  0.5635970885813465  0.43027222805909554  0.93527611564177  1.0000
  C   C5        1.0  0.43640236491117435  0.9302717225703528  0.9352759771317168  1.0000
  C   C6        1.0  0.5635983258005625  0.9302724174849216  0.5647240993460372  1.0000
  C   C7        1.0  0.5635969396072582  0.5697271134924903  0.435276409649795  1.0000
  C   C8        1.0  0.4364027525593314  0.5697273629731612  0.0647241344350746  1.0000
  C   C9        1.0  0.6007033899239501  0.13864255134383544  0.09234952627419801  1.0000
  C   C10       1.0  0.39929634033210687  0.13864246676672556  0.4076504618368588  1.0000
  C   C11       1.0  0.3992969877759264  0.36135721492740897  0.5923499266979135  1.0000
  C   C12       1.0  0.6007040366408063  0.3613575145694056  0.9076504649357632  1.0000
  C   C13       1.0  0.3992955647219461  0.8613575900422744  0.9076507238024902  1.0000
  C   C14       1.0  0.6007035008079811  0.8613576746192279  0.5923493908510977  1.0000
  C   C15       1.0  0.6007028533647514  0.6386423761046346  0.4076507207676556  1.0000
  C   C16       1.0  0.3992966909934808  0.6386426268161854  0.0923493877521935  1.0000
  C   C17       1.0  0.5495463980699355  0.20504603099129776  0.0761360476498751  1.0000
  C   C18       1.0  0.45045318976504933  0.20504588697511386  0.4238639036763416  1.0000
  C   C19       1.0  0.45045309317308835  0.2949537525218063  0.5761360874859776  1.0000
  C   C20       1.0  0.5495471871705035  0.29495407711974053  0.9238639435438216  1.0000
  C   C21       1.0  0.4504525565765434  0.7949535600413282  0.9238642024269694  1.0000
  C   C22       1.0  0.5495475378692377  0.7949542544104771  0.576135949011622  1.0000
  C   C23       1.0  0.5495458614733906  0.7050458385110331  0.4238637652021353  1.0000
  C   C24       1.0  0.45045265396958456  0.7050460642659999  0.0761363065328666  1.0000
  C   C25       1.0  0.5883534967409219  0.27153200637686575  0.09787676932364768  1.0000
  C   C26       1.0  0.4116459484959449  0.27153191749049194  0.4021231451719842  1.0000
  C   C27       1.0  0.41164599445201583  0.22846775401749397  0.5978764485892611  1.0000
  C   C28       1.0  0.5883535419954953  0.22846806972367523  0.9021232218823911  1.0000
  C   C29       1.0  0.4116454579049673  0.728468135009237  0.9021234807530405  1.0000
  C   C30       1.0  0.5883538926441433  0.7284682238954616  0.5978767075159723  1.0000
  C   C31       1.0  0.5883529601944631  0.7715318370155515  0.4021230067101201  1.0000
  C   C32       1.0  0.41164541265039384  0.7715320716626479  0.09787663080557249  1.0000
  C   C33       1.0  0.6765011610270548  0.27126667902992807  0.136644424450111  1.0000
  C   C34       1.0  0.3235000577671556  0.2712667040786344  0.3633550928037437  1.0000
  C   C35       1.0  0.32349921657077374  0.22873304013860005  0.6366445009294566  1.0000
  C   C36       1.0  0.6765003193077915  0.22873332436063265  0.8633555667839728  1.0000
  C   C37       1.0  0.32349868011362304  0.7287329120025419  0.8633554282380018  1.0000
  C   C38       1.0  0.6765015563619131  0.7287328869531036  0.6366447598843691  1.0000
  C   C39       1.0  0.6765015110641032  0.7712665508937134  0.3633549543699246  1.0000
  C   C40       1.0  0.3234977488438986  0.7712668170258395  0.1366446832927224  1.0000
  C   C41       1.0  0.7270083523528825  0.20512461710327298  0.1537079174974849  1.0000
  C   C42       1.0  0.2729921218075049  0.20512470195932045  0.3462916363964013  1.0000
  C   C43       1.0  0.272992025205042  0.2948756342735663  0.6537079573205772  1.0000
  C   C44       1.0  0.7270082553067566  0.2948753446253392  0.8462916763639328  1.0000
  C   C45       1.0  0.27299148878720564  0.7948755242826805  0.8462919351904787  1.0000
  C   C46       1.0  0.7270086058261852  0.7948759897797543  0.6537082162914061  1.0000
  C   C47       1.0  0.727008702429835  0.7051239567585342  0.3462918953675356  1.0000
  C   C48       1.0  0.27299069933972225  0.7051242464074999  0.153708176324173  1.0000
  C   C49       1.0  0.6893669935176447  0.13867111241149385  0.1313671388311235  1.0000
  C   C50       1.0  0.31063362317122767  0.13867114246122011  0.3686324518753494  1.0000
  C   C51       1.0  0.3106333840917515  0.36132916272239146  0.6313671418536018  1.0000
  C   C52       1.0  0.689366753892159  0.36132833001269654  0.8686328524072023  1.0000
  C   C53       1.0  0.31063284762303317  0.861328478620976  0.8686327138569824  1.0000
  C   C54       1.0  0.6893671044630594  0.8613289989245843  0.6313670034238754  1.0000
  C   C55       1.0  0.6893673435425356  0.6386709786631997  0.3686327108343547  1.0000
  C   C56       1.0  0.3106330872485188  0.6386712610195601  0.1313673976696421  1.0000
  C   C57       1.0  0.8253037133833558  0.20703593285235658  0.19387994379793838  1.0000
  C   C58       1.0  0.1747003026531573  0.2070372422136515  0.3061192116480882  1.0000
  C   C59       1.0  0.1746966640820276  0.29296427580582934  0.6938799846485821  1.0000
  C   C60       1.0  0.8253018475408709  0.2929639477956841  0.8061204448722136  1.0000
  C   C61       1.0  0.1746987872399188  0.7929636581788058  0.8061203062789062  1.0000
  C   C62       1.0  0.8253013114747388  0.7929634495254803  0.6938798462622557  1.0000
  C   C63       1.0  0.8253040635522595  0.7070358655797617  0.3061198680393744  1.0000
  C   C64       1.0  0.17469710710501832  0.7070361935899994  0.193880599981938  1.0000
  C   C65       1.0  0.5393090148004518  0.3433091380757674  0.0788271258382949  1.0000
  C   C66       1.0  0.460690276490034  0.3433089884764868  0.42117354367316295  1.0000
  C   C67       1.0  0.46069047643637623  0.15669064257583185  0.5788268448811422  1.0000
  C   C68       1.0  0.5393092139581129  0.1566904281263248  0.9211732627410214  1.0000
  C   C69       1.0  0.46068905335241794  0.6566899026033113  0.9211739190161552  1.0000
  C   C70       1.0  0.5393104511460222  0.6566895018486459  0.5788263090152554  1.0000
  C   C71       1.0  0.5393102511973212  0.8433100491628167  0.42117380258412135  1.0000
  C   C72       1.0  0.46068885419298766  0.8433102636140503  0.0788261925580542  1.0000
  C   C73       1.0  0.141576596273346  0.06809626146890219  0.0326947416134118  1.0000
  C   C74       1.0  0.8584232852897387  0.06809573473561407  0.4673048881888561  1.0000
  C   C75       1.0  0.858423781563957  0.4319035682390576  0.5326947057145262  1.0000
  C   C76       1.0  0.1415762050515426  0.4319041831645976  0.9673052494504902  1.0000
  C   C77       1.0  0.8584232448667493  0.931903879917051  0.9673051110745448  1.0000
  C   C78       1.0  0.1415765558503495  0.9319044066503397  0.5326949644991004  1.0000
  C   C79       1.0  0.1415769460715097  0.5680954724393529  0.4673055443624676  1.0000
  C   C80       1.0  0.8584227495943466  0.5680959582215122  0.0326950006261981  1.0000
  C   C81       1.0  0.18231902736965114  0.026770178540076  0.0760184699059678  1.0000
  C   C82       1.0  0.8176809428282752  0.026770281837365  0.4239815801778519  1.0000
  C   C83       1.0  0.8176813503678417  0.47322960509774253  0.5760184111011455  1.0000
  C   C84       1.0  0.18231766111802022  0.47323023248662116  0.9239815211708944  1.0000
  C   C85       1.0  0.8176817002646359  0.9732299628453017  0.9239817801707203  1.0000
  C   C86       1.0  0.182317125323415  0.9732298595491073  0.5760186698988434  1.0000
  C   C87       1.0  0.18231849077283613  0.5267699859347273  0.4239814415869603  1.0000
  C   C88       1.0  0.817681293527869  0.5267699088997019  0.0760183315170622  1.0000
  C   C89       1.0  0.09805688944568662  0.0061644085206324995  0.113613833882539  1.0000
  C   C90       1.0  0.9019422384535931  0.0061639319383389  0.38638583022747497  1.0000
  C   C91       1.0  0.9019426017109993  0.49383533513891814  0.6136137636897487  1.0000
  C   C92       1.0  0.09805725207410632  0.4938360720106443  0.8863861571675145  1.0000
  C   C93       1.0  0.9019429516944016  0.9938357328653209  0.8863860188054176  1.0000
  C   C94       1.0  0.09805671619288599  0.9938356590944931  0.6136140224606379  1.0000
  C   C95       1.0  0.09805723942967862  0.5061642558935516  0.3863860889983571  1.0000
  C   C96       1.0  0.9019425890653919  0.5061646197285797  0.1136140929090246  1.0000
  C   C97       1.0  0.9771098353133213  0.0243158076094687  0.1078926234348572  1.0000
  C   C98       1.0  0.022890140149151306  0.024315499693898297  0.39210663323122924  1.0000
  C   C99       1.0  0.0228914288449431  0.4756839421332373  0.6078925630177494  1.0000
  C   C100      1.0  0.9771084638717654  0.4756839478185099  0.8921069705061272  1.0000
  C   C101      1.0  0.0228917788151648  0.9756843337757528  0.8921072292530994  1.0000
  C   C102      1.0  0.9771088144967381  0.9756846416924245  0.6078932194567273  1.0000
  C   C103      1.0  0.9771092987899337  0.5243156488988702  0.39210728967035646  1.0000
  C   C104      1.0  0.022890490774130995  0.5243161935678131  0.1078928821818295  1.0000
  C   C105      1.0  0.9351502507251369  0.06280647025194239  0.0638925403073429  1.0000
  C   C106      1.0  0.0648496421820823  0.0628071816425972  0.436107092424912  1.0000
  C   C107      1.0  0.06485101353449352  0.4371933262801305  0.5638925012258511  1.0000
  C   C108      1.0  0.9351489617362887  0.43719331978677184  0.9361078483977536  1.0000
  C   C109      1.0  0.06485047690974  0.9371931207799518  0.9361077097694945  1.0000
  C   C110      1.0  0.9351493124632171  0.9371935100972096  0.5638927602628954  1.0000
  C   C111      1.0  0.9351497140997936  0.5628068151052473  0.4361077488508442  1.0000
  C   C112      1.0  0.06484999290901071  0.5628073719526087  0.06389279906751  1.0000
  C   C113      1.0  0.0198626981544692  0.08467681429363687  0.026633764076756  1.0000
  C   C114      1.0  0.9801371478464348  0.08467673107011107  0.47336665131788885  1.0000
  C   C115      1.0  0.9801376796967959  0.4153230218597343  0.5266333400127934  1.0000
  C   C116      1.0  0.019862342480884403  0.4153231803842701  0.9733666243373021  1.0000
  C   C117      1.0  0.980138029479818  0.915323327091528  0.9733668833886638  1.0000
  C   C118      1.0  0.0198618067994545  0.9153234103157853  0.526633996147531  1.0000
  C   C119      1.0  0.019862161443882104  0.5846765691727356  0.47336651267531954  1.0000
  C   C120      1.0  0.9801374986586141  0.5846775113547408  0.026634023127961405  1.0000
  C   C121      1.0  0.12340516611926941  0.13432421332839078  0.9602071743586151  1.0000
  C   C122      1.0  0.8765945722468373  0.13432357586629  0.5397925482650408  1.0000
  C   C123      1.0  0.8765952107319706  0.36567626247264673  0.4602074430327008  1.0000
  C   C124      1.0  0.123404032585718  0.3656762462944768  0.039792816699503006  1.0000
  C   C125      1.0  0.8765955615144277  0.8656764784108971  0.039792280940460494  1.0000
  C   C126      1.0  0.12340438239905892  0.8656765655198126  0.46020770181164755  1.0000
  C   C127      1.0  0.12340463040870729  0.6343233285596098  0.5397928070441438  1.0000
  C   C128      1.0  0.8765949220607607  0.6343233447381493  0.9602074333773416  1.0000
  C   C129      1.0  0.1502056071623841  0.1824333762785173  0.9146417743665934  1.0000
  C   C130      1.0  0.8497949145141775  0.18243271246885223  0.5853583189952545  1.0000
  C   C131      1.0  0.8497956562880232  0.31756714797627683  0.4146416722939534  1.0000
  C   C132      1.0  0.15020546320180023  0.3175670612370638  0.08535821670005109  1.0000
  C   C133      1.0  0.8497951204713132  0.8175673154605504  0.0853580783212138  1.0000
  C   C134      1.0  0.1502058131201096  0.8175674289165258  0.4146419310814338  1.0000
  C   C135      1.0  0.1502059578410453  0.6824324430554611  0.5853581803941523  1.0000
  C   C136      1.0  0.8497943779382878  0.6824330801488898  0.9146416359879055  1.0000
  C   C137      1.0  0.0943493895610672  0.17427828766969358  0.865223706198698  1.0000
  C   C138      1.0  0.9056502631117168  0.17427807558914307  0.6347759942918856  1.0000
  C   C139      1.0  0.9056509875089916  0.3257222891362942  0.36522359962621215  1.0000
  C   C140      1.0  0.09435011449100018  0.32572109521245807  0.1347766822392131  1.0000
  C   C141      1.0  0.9056495650854118  0.8257213033631384  0.1347761464894148  1.0000
  C   C142      1.0  0.09435046452315281  0.8257215154429645  0.36522385839622723  1.0000
  C   C143      1.0  0.0943497401252955  0.6742778522492967  0.6347762530617443  1.0000
  C   C144      1.0  0.9056497266496776  0.6742784958197987  0.8652235678376314  1.0000
  C   C145      1.0  0.2289049524769524  0.24170861212063238  0.9208608916008032  1.0000
  C   C146      1.0  0.7710945555727521  0.24170801984148224  0.5791391689249252  1.0000
  C   C147      1.0  0.7710945379707328  0.25829190552150993  0.4208608223392503  1.0000
  C   C148      1.0  0.2289067086523389  0.2582912101239642  0.0791390994910302  1.0000
  C   C149      1.0  0.771094002168937  0.7582915292656834  0.0791389610871533  1.0000
  C   C150      1.0  0.2289061720621248  0.7582915711906252  0.4208606837631876  1.0000
  C   C151      1.0  0.22890618966414422  0.7417076855105974  0.5791390303488555  1.0000
  C   C152      1.0  0.7710931324883392  0.7417083809085057  0.9208607531970756  1.0000
  C   C153      1.0  0.2460062599024511  0.2903747348737794  0.878911728904839  1.0000
  C   C154      1.0  0.7539931437695628  0.2903735617393152  0.6210879072732354  1.0000
  C   C155      1.0  0.7539950036296829  0.20962637772933587  0.37891208398549736  1.0000
  C   C156      1.0  0.2460072338641055  0.20962617397176328  0.12108826219213141  1.0000
  C   C157      1.0  0.7539926947422656  0.7096265072195108  0.12108812378281192  1.0000
  C   C158      1.0  0.2460066973711221  0.7096260292931547  0.37891194541487755  1.0000
  C   C159      1.0  0.24600749699299487  0.7903737636553102  0.6210881660911909  1.0000
  C   C160      1.0  0.7539926072759826  0.7903739674139844  0.8789119878845568  1.0000
  C   C161      1.0  0.1841289770913406  0.2790650214079378  0.8316975795117401  1.0000
  C   C162      1.0  0.8158677913533053  0.27906539808689956  0.668302460319758  1.0000
  C   C163      1.0  0.8158687405745441  0.220934490343815  0.33169713356992503  1.0000
  C   C164      1.0  0.18413081318201563  0.2209353881242535  0.16830280895442942  1.0000
  C   C165      1.0  0.815868204566158  0.7209351199789039  0.1683026705649482  1.0000
  C   C166      1.0  0.18413116329199403  0.7209352936529071  0.3316973923680422  1.0000
  C   C167      1.0  0.1841311005661339  0.7790651006888678  0.6683023217294561  1.0000
  C   C168      1.0  0.8158690279574827  0.7790653036149705  0.8316974411221097  1.0000
  C   C169      1.0  0.9008871465583113  0.1582906864998819  0.9595967787531948  1.0000
  C   C170      1.0  0.09911254040419241  0.15829068971013524  0.5404029305938208  1.0000
  C   C171      1.0  0.0991123438007264  0.3417092395971152  0.4595970604567228  1.0000
  C   C172      1.0  0.900886950921148  0.34170913180140156  0.0404028151635458  1.0000
  C   C173      1.0  0.09911269458236661  0.841708904532588  0.0404030739349182  1.0000
  C   C174      1.0  0.9008873007358957  0.8417094516758183  0.45959692209413566  1.0000
  C   C175      1.0  0.9008874973393616  0.6582909017886251  0.5404031896199655  1.0000
  C   C176      1.0  0.09911200372533097  0.6582904592314377  0.959597037524567  1.0000
  C   C177      1.0  0.8932534566177708  0.2407160244026939  0.9704875914829003  1.0000
  C   C178      1.0  0.1067460535601796  0.24071603289723947  0.5295124695925111  1.0000
  C   C179      1.0  0.1067460337161847  0.25928389011349406  0.470487124071731  1.0000
  C   C180      1.0  0.89325343779025  0.25928380019489333  0.0295127972088665  1.0000
  C   C181      1.0  0.10674638452290708  0.7592835666297758  0.029512261205205403  1.0000
  C   C182      1.0  0.8932537875804984  0.7592835581350172  0.4704877804843335  1.0000
  C   C183      1.0  0.8932538074239034  0.7407162512724594  0.5295127286162256  1.0000
  C   C184      1.0  0.10674551685563931  0.7407163411912093  0.9704874528678218  1.0000
  N   N1        1.0  0.2036347009375916  0.09984011538674047  0.9908096927063994  1.0000
  N   N2        1.0  0.7963651113887596  0.09984012699950989  0.5091900490198853  1.0000
  N   N3        1.0  0.796366562337937  0.400159777517949  0.4908099422523264  1.0000
  N   N4        1.0  0.2036334935137063  0.40016027805723536  0.0091902983772485  1.0000
  N   N5        1.0  0.7963660266966885  0.9001600259988433  0.0091901599815642  1.0000
  N   N6        1.0  0.20363384325713701  0.9001600143868062  0.49080980366807136  1.0000
  N   N7        1.0  0.20363416529693978  0.5998398135139382  0.509190307824511  1.0000
  N   N8        1.0  0.7963663476257922  0.5998404136822018  0.9908095543105588  1.0000
  N   N9        1.0  0.0108053423206371  0.12525717561197777  0.9799792531617442  1.0000
  N   N10       1.0  0.9891935289969992  0.12525756700228638  0.520020871873129  1.0000
  N   N11       1.0  0.989194147991448  0.37474272881066634  0.4799791194602818  1.0000
  N   N12       1.0  0.0108050758811018  0.37474227618375977  0.0200207378608539  1.0000
  N   N13       1.0  0.9891944988200408  0.8747424154204922  0.0200205995263616  1.0000
  N   N14       1.0  0.0108054256488899  0.8747425743838163  0.4799793782035593  1.0000
  N   N15       1.0  0.010805693148640202  0.6252574125752873  0.5200207332276818  1.0000
  N   N16       1.0  0.9891938787653772  0.6252573148490796  0.979979114827259  1.0000
  N   N17       1.0  0.11059345872693174  0.22142323290379548  0.824861317126718  1.0000
  N   N18       1.0  0.8894060928289775  0.22142409200842653  0.6751383572471639  1.0000
  N   N19       1.0  0.8894069184372954  0.2785762861158716  0.32486203144323167  1.0000
  N   N20       1.0  0.11059339818537949  0.278576136580071  0.17513787915017076  1.0000
  N   N21       1.0  0.8894063824137464  0.7785763581288804  0.17513813817266308  1.0000
  N   N22       1.0  0.11059374831052081  0.7785765997307976  0.32486189282937517  1.0000
  N   N23       1.0  0.11059380919699179  0.7214238552695065  0.6751382186334567  1.0000
  N   N24       1.0  0.8894064429547085  0.7214240048058825  0.8248619735377858  1.0000
  O   O1        1.0  0.4590381496168732  0.06553808025371667  0.0464070379234514  1.0000
  O   O2        1.0  0.5409617374320704  0.06553838031991427  0.453592593295717  1.0000
  O   O3        1.0  0.5409631146830378  0.43446173487210865  0.5464073978952442  1.0000
  O   O4        1.0  0.4590377529408017  0.43446155216184923  0.9535929532416035  1.0000
  O   O5        1.0  0.5409625780185935  0.9344609604251202  0.9535924173760862  1.0000
  O   O6        1.0  0.45903810370801784  0.9344617610660391  0.5464072593922396  1.0000
  O   O7        1.0  0.45903761295124923  0.5655384065132695  0.4535928521814512  1.0000
  O   O8        1.0  0.5409629746934855  0.5655385892235216  0.04640729683508481  1.0000
  O   O9        1.0  0.6432029358819094  0.019662181232305904  0.06093717221877879  1.0000
  O   O10       1.0  0.3567970495607468  0.019662648661459097  0.439062881802478  1.0000
  O   O11       1.0  0.3567974418897393  0.48033816879613056  0.5609375067184743  1.0000
  O   O12       1.0  0.6432033273397906  0.4803372992707508  0.9390632163935919  1.0000
  O   O13       1.0  0.3567969052593584  0.9803368594466801  0.9390626804694832  1.0000
  O   O14       1.0  0.6432027915793412  0.9803374927242811  0.5609373682742103  1.0000
  O   O15       1.0  0.6432032857439581  0.519662522942724  0.4390627433580647  1.0000
  O   O16       1.0  0.3567974002944895  0.5196628421144139  0.060937431071827995  1.0000
  O   O17       1.0  0.8598458883039725  0.2736870213259833  0.20568276804108618  1.0000
  O   O18       1.0  0.1401570982866929  0.27368782137786235  0.2943167478717754  1.0000
  O   O19       1.0  0.14015448913421844  0.2263131747811471  0.7056828458027907  1.0000
  O   O20       1.0  0.8598441654415013  0.22631228047614366  0.7943168258627438  1.0000
  O   O21       1.0  0.14015572582510322  0.7263125697057544  0.7943170846470267  1.0000
  O   O22       1.0  0.8598445158417863  0.7263123200073591  0.7056831048161812  1.0000
  O   O23       1.0  0.8598453520058699  0.7736869666048137  0.2943170068851728  1.0000
  O   O24       1.0  0.14015390271077882  0.7736873105570581  0.2056830268253691  1.0000
  O   O25       1.0  0.8676906087382292  0.1493968345675256  0.21288110194110027  1.0000
  O   O26       1.0  0.1323108714378662  0.1493992998063902  0.287117688045619  1.0000
  O   O27       1.0  0.1323097686839674  0.35060280353150114  0.7128811108486773  1.0000
  O   O28       1.0  0.8676903923057324  0.3506019104098356  0.7871180945766483  1.0000
  O   O29       1.0  0.1323092324036281  0.8506016557581901  0.7871183533585864  1.0000
  O   O30       1.0  0.8676907426894402  0.8506019422860048  0.7128817672533002  1.0000
  O   O31       1.0  0.8676909589514992  0.6493962371469092  0.2871191392283166  1.0000
  O   O32       1.0  0.1323094488361249  0.6493965799160931  0.2128809633342996  1.0000
  O   O33       1.0  0.5889455342485306  0.40266528560211157  0.0893050580753325  1.0000
  O   O34       1.0  0.4110545162299816  0.40266518808857643  0.4106951811664601  1.0000
  O   O35       1.0  0.41105395696416014  0.0973344839073107  0.5893048099833251  1.0000
  O   O36       1.0  0.5889458607359117  0.09733479000995968  0.9106949331308911  1.0000
  O   O37       1.0  0.41105342039795534  0.5973343054305148  0.910695192001512  1.0000
  O   O38       1.0  0.5889479843932861  0.5973344029421666  0.5893058636878479  1.0000
  O   O39       1.0  0.5889476571649157  0.9026651071246403  0.41069464531605604  1.0000
  O   O40       1.0  0.4110522074151888  0.9026659017299961  0.08930531694564081  1.0000
  O   O41       1.0  0.4426962252776221  0.3362371506916375  0.050550137851779205  1.0000
  O   O42       1.0  0.5573039676750682  0.33623689132945594  0.4494505355773128  1.0000
  O   O43       1.0  0.5573032660243484  0.16376266002951212  0.5505498530077304  1.0000
  O   O44       1.0  0.4426964092015453  0.16376304555691945  0.9494502506966497  1.0000
  O   O45       1.0  0.5573027293688569  0.6637624403409886  0.9494501122250653  1.0000
  O   O46       1.0  0.4426976464540076  0.6637626997018556  0.5505501118882634  1.0000
  O   O47       1.0  0.4426974616093489  0.8362380317097687  0.44944960229133807  1.0000
  O   O48       1.0  0.5573025454437541  0.8362376461828801  0.0505496019911575  1.0000
  O   O49       1.0  4.477806924999999e-07  0.4088294020798243  0.2500003165284355  1.0000
  O   O50       1.0  0.9999999013644401  0.09117115933541697  0.7500000718791568  1.0000
  O   O51       1.0  2.5166263379999995e-07  0.5911711517404683  0.7499999333891906  1.0000
  O   O52       1.0  0.9999999115840981  0.908829944838722  0.2500001780383059  1.0000
