data_image0
_chemical_formula_structural       CoH22C28N10O6
_chemical_formula_sum              "Co1 H22 C28 N10 O6"
_cell_length_a       7.607831632568601
_cell_length_b       9.495953859720334
_cell_length_c       10.86597386225751
_cell_angle_alpha    107.6977682588873
_cell_angle_beta     105.04533216837329
_cell_angle_gamma    100.57282391135234

_space_group_name_H-M_alt    "P 1"
_space_group_IT_number       1

loop_
  _space_group_symop_operation_xyz
  'x, y, z'

loop_
  _atom_site_type_symbol
  _atom_site_label
  _atom_site_symmetry_multiplicity
  _atom_site_fract_x
  _atom_site_fract_y
  _atom_site_fract_z
  _atom_site_occupancy
  Co  Co1       1.0  3.019713659715504e-06  0.9999996201665485  0.500000750874513  1.0000
  H   H1        1.0  0.49548394094298936  0.255807259841518  0.35066173702520603  1.0000
  H   H2        1.0  0.5045133866589921  0.7441909295669973  0.649335414958884  1.0000
  H   H3        1.0  0.5357204650783911  0.9808787710308731  0.8455047042110095  1.0000
  H   H4        1.0  0.46428545286356376  0.019120643864312097  0.15449344762708966  1.0000
  H   H5        1.0  0.3058935164245256  0.5653027847000588  0.6373865429990249  1.0000
  H   H6        1.0  0.6941104457589374  0.43469891002460054  0.3626127752649354  1.0000
  H   H7        1.0  0.6753093471501476  0.3204619768085665  0.8786488191920585  1.0000
  H   H8        1.0  0.32468753633927605  0.6795350363786099  0.12135345829679528  1.0000
  H   H9        1.0  0.43459076116631223  0.2141026613132126  0.8232295890118595  1.0000
  H   H10       1.0  0.5654061398559946  0.7858943595364279  0.17677085312858765  1.0000
  H   H11       1.0  0.7556485562942967  0.1357463276611242  0.395062276858127  1.0000
  H   H12       1.0  0.24435225805606112  0.8642541795287286  0.6049389015587324  1.0000
  H   H13       1.0  0.07641602823090923  0.3382946432468331  0.624226499475782  1.0000
  H   H14       1.0  0.9235883079335778  0.6617081970492861  0.37577503467704093  1.0000
  H   H15       1.0  0.6083286590987171  0.1428239891221565  0.002699468967890159  1.0000
  H   H16       1.0  0.3916680496443305  0.8571684340265618  0.9972987895011587  1.0000
  H   H17       1.0  0.2694568532221169  0.041506788118915894  0.3569013905165265  1.0000
  H   H18       1.0  0.730543204399737  0.9584914240967704  0.6430962737968147  1.0000
  H   H19       1.0  0.6572368646262348  0.22312722056236106  0.6708535534683762  1.0000
  H   H20       1.0  0.34275886366539515  0.7768743865846234  0.3291488161788438  1.0000
  H   H21       1.0  0.6290100351538114  0.0039027729980957984  0.4195213384377824  1.0000
  H   H22       1.0  0.37099077043010437  0.9960977303605174  0.5804807576532838  1.0000
  C   C1        1.0  0.4276170240018188  0.43385582528730277  0.4963431257754537  1.0000
  C   C2        1.0  0.572384790143886  0.566143551565901  0.503655175242969  1.0000
  C   C3        1.0  0.9693292069175073  0.207941626666873  0.9991308517607893  1.0000
  C   C4        1.0  0.030665600476737557  0.7920611452978719  0.000866136217048657  1.0000
  C   C5        1.0  0.407762643065574  0.2818567211821588  0.4143740322369639  1.0000
  C   C6        1.0  0.592238779566216  0.7181415024371062  0.5856238882410096  1.0000
  C   C7        1.0  0.27812847837522986  0.1593727551016357  0.4154881966548275  1.0000
  C   C8        1.0  0.7218737272843826  0.8406277749855064  0.5845104849040582  1.0000
  C   C9        1.0  0.17369823966965467  0.3250613486534988  0.566443758286006  1.0000
  C   C10       1.0  0.8263057137473666  0.6749403422399285  0.4335564776521539  1.0000
  C   C11       1.0  0.11889174441390082  0.23052177471544874  0.9463744968322418  1.0000
  C   C12       1.0  0.8811057754673399  0.7694810123939959  0.0536248388232538  1.0000
  C   C13       1.0  0.30273627634881706  0.4523118062590754  0.5714937703297738  1.0000
  C   C14       1.0  0.6972676595353278  0.5476898769718801  0.42850830095679293  1.0000
  C   C15       1.0  0.5766956757371844  0.20359537853494197  0.8249265545453215  1.0000
  C   C16       1.0  0.4233025990615005  0.7964016575495236  0.17507322608554435  1.0000
  C   C17       1.0  0.08497729401761228  0.15899480307676575  0.805233542232287  1.0000
  C   C18       1.0  0.9150203812660751  0.8410045204095127  0.19476857866327194  1.0000
  C   C19       1.0  0.6258453515711722  0.0999985736630293  0.9021650246013878  1.0000
  C   C20       1.0  0.3741537062553348  0.9000007688892993  0.09783551711039716  1.0000
  C   C21       1.0  0.3074085175647454  0.31555384109510953  0.032223537663469436  1.0000
  C   C22       1.0  0.692593480093784  0.6844501296277842  0.9677778647005513  1.0000
  C   C23       1.0  0.09473501954358453  0.45094394223877293  0.20486321183339135  1.0000
  C   C24       1.0  0.9052611159837839  0.5490507798054621  0.7951346338777371  1.0000
  C   C25       1.0  0.8643099775762622  0.24353042935671715  0.20069615294178805  1.0000
  C   C26       1.0  0.13568145463985104  0.7564665420473489  0.799304182214357  1.0000
  C   C27       1.0  0.976162008719612  0.29908022049246347  0.13203191657982677  1.0000
  C   C28       1.0  0.02383473690024831  0.7009202639803432  0.8679657403205497  1.0000
  N   N1        1.0  0.16308071539459948  0.1790377302413191  0.49168709791970155  1.0000
  N   N2        1.0  0.8369259592758594  0.8209639796280401  0.5083145680219162  1.0000
  N   N3        1.0  0.058913399407146  0.1001767551520203  0.6879346309686412  1.0000
  N   N4        1.0  0.9410905277105569  0.8998249242476959  0.3120683579921322  1.0000
  N   N5        1.0  0.46535472521978244  0.38232890377538103  0.1016779894984766  1.0000
  N   N6        1.0  0.5346384635201814  0.6176692322662091  0.8983229823627498  1.0000
  N   N7        1.0  0.7737716968247736  0.2021114328359558  0.26210308489798007  1.0000
  N   N8        1.0  0.22622917889066232  0.7978891011725368  0.7378916697994671  1.0000
  N   N9        1.0  0.1845643683793199  0.579385214288024  0.26903882412896263  1.0000
  N   N10       1.0  0.8154303776498394  0.420617530858074  0.7309645875682877  1.0000
  O   O1        1.0  0.747178138524248  0.09173698009549011  0.4658575554306952  1.0000
  O   O2        1.0  0.2528240408360459  0.9082635384979483  0.5341438791507899  1.0000
  O   O3        1.0  0.8178317355936072  0.08657497855283221  0.9149752467432608  1.0000
  O   O4        1.0  0.18216597475583993  0.9134243602583894  0.08502320345549212  1.0000
  O   O5        1.0  0.5780691352751007  0.14105822725718298  0.6881878858711091  1.0000
  O   O6        1.0  0.42193167030880835  0.8589422761014305  0.3118142102199571  1.0000
