data_image0
_chemical_formula_structural       Ag6H26C34N12O12
_chemical_formula_sum              "Ag6 H26 C34 N12 O12"
_cell_length_a       7.294213144945339
_cell_length_b       9.768862271785462
_cell_length_c       13.407556861059447
_cell_angle_alpha    96.98429736169949
_cell_angle_beta     98.23703023283089
_cell_angle_gamma    94.13866167896663

_space_group_name_H-M_alt    "P 1"
_space_group_IT_number       1

loop_
  _space_group_symop_operation_xyz
  'x, y, z'

loop_
  _atom_site_type_symbol
  _atom_site_label
  _atom_site_symmetry_multiplicity
  _atom_site_fract_x
  _atom_site_fract_y
  _atom_site_fract_z
  _atom_site_occupancy
  Ag  Ag1       1.0  0.8470371108106249  0.9525348240180374  0.9261076288386432  1.0000
  Ag  Ag2       1.0  0.15296911812068004  0.0474685241946204  0.0738915525412907  1.0000
  Ag  Ag3       1.0  0.42036662329257973  0.06463574581881909  0.9207852967497627  1.0000
  Ag  Ag4       1.0  0.5796393136538427  0.9353655454205593  0.07921592389621418  1.0000
  Ag  Ag5       1.0  0.6440719530862397  0.5154973541540783  0.4216705839951586  1.0000
  Ag  Ag6       1.0  0.35591705730018924  0.484501761283738  0.5783312264601219  1.0000
  H   H1        1.0  0.6951150547440292  0.06751269131186889  0.7350270776175447  1.0000
  H   H2        1.0  0.3048834040690878  0.9324833678350544  0.2649723091165085  1.0000
  H   H3        1.0  0.9082206622963086  0.029767188299288698  0.581768914783069  1.0000
  H   H4        1.0  0.09178061810803229  0.9702299403935369  0.4182330440841184  1.0000
  H   H5        1.0  0.4681504521114804  0.0204621951442334  0.5705379060827978  1.0000
  H   H6        1.0  0.5318462793401224  0.9795307473858657  0.4294610685722374  1.0000
  H   H7        1.0  0.06955880382770371  0.7132516236870571  0.742915513705583  1.0000
  H   H8        1.0  0.9304377492456268  0.2867527096735144  0.2570858972016055  1.0000
  H   H9        1.0  0.8664774203520621  0.2916380652914158  0.7485854887771948  1.0000
  H   H10       1.0  0.133525986988019  0.7083642133753328  0.25141112046961206  1.0000
  H   H11       1.0  0.2612887328281701  0.5040358006251112  0.9977160671505841  1.0000
  H   H12       1.0  0.7387118375291166  0.49596647240662856  0.0022825339801145275  1.0000
  H   H13       1.0  0.05359295355301438  0.23475031895635812  0.509314584642155  1.0000
  H   H14       1.0  0.9464069836724748  0.7652467903876428  0.49068576446362744  1.0000
  H   H15       1.0  0.07043391013623077  0.9777094235905319  0.7518546849143204  1.0000
  H   H16       1.0  0.9295691898274044  0.0222918620138373  0.24814852761555528  1.0000
  H   H17       1.0  0.33548122864014834  0.7690429112287942  0.5142883555991417  1.0000
  H   H18       1.0  0.6645154597757214  0.23095004074777134  0.4857121080292401  1.0000
  H   H19       1.0  0.6703771273820182  0.6715743713192667  0.8722720533695636  1.0000
  H   H20       1.0  0.32962290204124395  0.3284237783194612  0.12772913731988209  1.0000
  H   H21       1.0  0.5186003021166954  0.5501998002781574  0.7847133290945434  1.0000
  H   H22       1.0  0.48140097828764544  0.4497973284146679  0.21528862977264396  1.0000
  H   H23       1.0  0.5722860873371545  0.2864148603127389  0.8311351030026373  1.0000
  H   H24       1.0  0.42771704953590733  0.7135853566575037  0.16886280102353615  1.0000
  H   H25       1.0  0.5921814108305624  0.3537909747473761  0.7156361757342535  1.0000
  H   H26       1.0  0.4078203183100371  0.6462092370437418  0.2843623519905377  1.0000
  C   C1        1.0  0.6213014710254186  0.9655090428964995  0.7080492848938673  1.0000
  C   C2        1.0  0.3786967603564193  0.034484945107443786  0.291949907646213  1.0000
  C   C3        1.0  0.034053121968590006  0.09069413935486638  0.6211186462642572  1.0000
  C   C4        1.0  0.9659469996524449  0.9093050505785741  0.37888338600884447  1.0000
  C   C5        1.0  0.5001488052853916  0.938882090295458  0.6166398375742829  1.0000
  C   C6        1.0  0.49984956132995967  0.06111292855673871  0.3833587075761144  1.0000
  C   C7        1.0  0.048025783905558214  0.2547862007858015  0.9280841187842693  1.0000
  C   C8        1.0  0.9519748786495085  0.7452171125406578  0.07191532393009936  1.0000
  C   C9        1.0  0.1765773661196803  0.6218394866212618  0.8756388224976772  1.0000
  C   C10       1.0  0.8234232964353866  0.3781638267051902  0.12436062021669154  1.0000
  C   C11       1.0  0.06795111269480707  0.620731991978644  0.7804591079363374  1.0000
  C   C12       1.0  0.9320467774310757  0.37927130154309907  0.21954009320190684  1.0000
  C   C13       1.0  0.9525574896448532  0.38497234866103713  0.7841235467939285  1.0000
  C   C14       1.0  0.04744308071243349  0.6150299243706953  0.21587505433677726  1.0000
  C   C15       1.0  0.1752646964747768  0.5027820321829141  0.9242013163467531  1.0000
  C   C16       1.0  0.824737330777019  0.4972212957691369  0.075798991642344  1.0000
  C   C17       1.0  0.11334453140449341  0.2018156518086727  0.5810588232517516  1.0000
  C   C18       1.0  0.8866526549096749  0.7981814330073718  0.41894053979123663  1.0000
  C   C19       1.0  0.061168156714735696  0.38379525753873617  0.8786372150897819  1.0000
  C   C20       1.0  0.9388340057705663  0.6162091012615675  0.1213624455096252  1.0000
  C   C21       1.0  0.2904417823234625  0.7527161864990716  0.9250536036624553  1.0000
  C   C22       1.0  0.709558631282455  0.24728506040764833  0.07494638934460339  1.0000
  C   C23       1.0  0.5652241806143294  0.7399266923428909  0.7387040864740226  1.0000
  C   C24       1.0  0.43477702911010846  0.26006939133197443  0.2612962863228318  1.0000
  C   C25       1.0  0.12252750711409992  0.06236238119114998  0.714412570493536  1.0000
  C   C26       1.0  0.8774741574728966  0.9376378447696683  0.2855881906912714  1.0000
  C   C27       1.0  0.8301882884359698  0.5004943750820985  0.6343728832814788  1.0000
  C   C28       1.0  0.16981130753355697  0.49951203977969527  0.3656274744224603  1.0000
  C   C29       1.0  0.34924584101791123  0.24068364651021304  0.7188313463524024  1.0000
  C   C30       1.0  0.6507571391037743  0.7593155443350027  0.28116794955013086  1.0000
  C   C31       1.0  0.4225053476869292  0.8030595801019017  0.5877126806210953  1.0000
  C   C32       1.0  0.5774929543748114  0.19693545291999473  0.4122880979893182  1.0000
  C   C33       1.0  0.9548084371792527  0.5022612899824422  0.734292996377448  1.0000
  C   C34       1.0  0.04519236060932031  0.4977430541922701  0.2657057989472306  1.0000
  N   N1        1.0  0.5882839013755401  0.6460037356745046  0.8028788705953358  1.0000
  N   N2        1.0  0.41171742206453393  0.3539933835718542  0.19712159929850506  1.0000
  N   N3        1.0  0.2686148674521718  0.2772243974634492  0.6289800754471102  1.0000
  N   N4        1.0  0.7313853187224595  0.7227747783002911  0.37101972336597555  1.0000
  N   N5        1.0  0.6556474107376289  0.8685809822866587  0.7686627529371604  1.0000
  N   N6        1.0  0.3443540264180882  0.13141717253118657  0.23133781405367415  1.0000
  N   N7        1.0  0.5093409821978696  0.31478922940068793  0.7647344265247965  1.0000
  N   N8        1.0  0.4906620194416861  0.6852099567213016  0.2352641248910672  1.0000
  N   N9        1.0  0.45429220004726295  0.7030993432371488  0.6466377886530379  1.0000
  N   N10       1.0  0.5457045590485166  0.29689465375737  0.3533642610456765  1.0000
  N   N11       1.0  0.2784260639569139  0.13585464604887676  0.7634232077932309  1.0000
  N   N12       1.0  0.7215768731290451  0.8641445542428129  0.23657757708264873  1.0000
  O   O1        1.0  0.26902311895126735  0.8580937357446318  0.8783648242466597  1.0000
  O   O2        1.0  0.7309802945151206  0.1419096021097701  0.12163560453049628  1.0000
  O   O3        1.0  0.9265583262078747  0.1585812421098183  0.8832751450207751  1.0000
  O   O4        1.0  0.07344222263154877  0.8414210356451478  0.11672420059660027  1.0000
  O   O5        1.0  0.1582911535164229  0.24962622951112923  0.010378542637930392  1.0000
  O   O6        1.0  0.8417094875207809  0.7503770885385633  0.9896216445631081  1.0000
  O   O7        1.0  0.6985984533887262  0.40194260110703073  0.6115423475475338  1.0000
  O   O8        1.0  0.301403752132309  0.5980617482468062  0.3884558240785338  1.0000
  O   O9        1.0  0.8591335338767152  0.5945531264904388  0.5801253035101224  1.0000
  O   O10       1.0  0.14086218004236173  0.40545637954844677  0.41987721658061616  1.0000
  O   O11       1.0  0.3975146664585835  0.7484484236483906  0.008298696264830591  1.0000
  O   O12       1.0  0.6024885626122511  0.25155283361657144  0.9917000493450059  1.0000
