data_image0
_chemical_formula_structural       Co2H28C28N8O16
_chemical_formula_sum              "Co2 H28 C28 N8 O16"
_cell_length_a       7.418018240626013
_cell_length_b       9.366298028241204
_cell_length_c       12.65867543904946
_cell_angle_alpha    105.78076869347845
_cell_angle_beta     89.99700559027839
_cell_angle_gamma    113.31625428985801

_space_group_name_H-M_alt    "P 1"
_space_group_IT_number       1

loop_
  _space_group_symop_operation_xyz
  'x, y, z'

loop_
  _atom_site_type_symbol
  _atom_site_label
  _atom_site_symmetry_multiplicity
  _atom_site_fract_x
  _atom_site_fract_y
  _atom_site_fract_z
  _atom_site_occupancy
  Co  Co1       1.0  0.8570582026465842  0.9999252102162046  0.24980653615657641  1.0000
  Co  Co2       1.0  0.14294130179526124  7.34585536861e-05  0.7501894009429436  1.0000
  H   H1        1.0  0.44028144064321845  0.4011825463609285  0.1943138715908361  1.0000
  H   H2        1.0  0.038937925269913055  0.5984671416634487  0.3053760521814368  1.0000
  H   H3        1.0  0.559721243878819  0.5988197875459634  0.8056851639338518  1.0000
  H   H4        1.0  0.9610581639002759  0.4015327859280832  0.694627244993015  1.0000
  H   H5        1.0  0.3299602974404223  0.2416356823983891  0.06966535624118113  1.0000
  H   H6        1.0  0.0880775552957687  0.7582120499611308  0.4298997702313799  1.0000
  H   H7        1.0  0.6700431288870518  0.7583654387548222  0.9303342281834546  1.0000
  H   H8        1.0  0.9119157000156404  0.24179029870746402  0.5701016383056583  1.0000
  H   H9        1.0  0.21381641068084895  0.8664812948898303  0.1522901707356823  1.0000
  H   H10       1.0  0.34781422575643006  0.13337560072771032  0.3475684389849434  1.0000
  H   H11       1.0  0.786186880031167  0.13352225162365985  0.8477083158390784  1.0000
  H   H12       1.0  0.6521892028235072  0.8666255250028884  0.65243193632719  1.0000
  H   H13       1.0  0.24331392384171846  0.8555636613347065  0.01054156198794237  1.0000
  H   H14       1.0  0.3880809422905927  0.14427228750102475  0.48932129008524333  1.0000
  H   H15       1.0  0.7566842416145575  0.1444350258917809  0.9894575387115269  1.0000
  H   H16       1.0  0.6119194463295444  0.8557227568870476  0.5106786664265855  1.0000
  H   H17       1.0  0.38419801463354025  0.6761867058797578  0.21965419196413905  1.0000
  H   H18       1.0  0.7080805809648538  0.32361253805111556  0.2802274501765396  1.0000
  H   H19       1.0  0.6158007615176544  0.3238132031080951  0.780345941560384  1.0000
  H   H20       1.0  0.291924946425823  0.6763873930882414  0.7197766375355316  1.0000
  H   H21       1.0  0.20448537072880413  0.3055314767195371  0.9099543548301412  1.0000
  H   H22       1.0  0.899067187449745  0.6944175227636009  0.5898758359070371  1.0000
  H   H23       1.0  0.7955146178023681  0.6944708574815123  0.09004468079451296  1.0000
  H   H24       1.0  0.10092485548168646  0.30558240069179027  0.4101266705298627  1.0000
  H   H25       1.0  0.1735284654730335  0.5860431233312366  0.8865580442009103  1.0000
  H   H26       1.0  0.5876821629572787  0.4139655743833758  0.6133643295850177  1.0000
  H   H27       1.0  0.8264730044165558  0.41395678078507814  0.11344129833615572  1.0000
  H   H28       1.0  0.41231331551799133  0.586033131446797  0.3866379347643801  1.0000
  C   C1        1.0  0.12414297939999133  0.2719911327064466  0.18793458290773662  1.0000
  C   C2        1.0  0.8516272154528223  0.7274301543277062  0.31167543914362744  1.0000
  C   C3        1.0  0.8758592322950419  0.7280075586561878  0.8120653085292774  1.0000
  C   C4        1.0  0.14836703938014753  0.27256610340236165  0.688323968668179  1.0000
  C   C5        1.0  0.3099510894609949  0.3399032002950477  0.13169494293963882  1.0000
  C   C6        1.0  0.969844034029002  0.659796517009305  0.36796337552062414  1.0000
  C   C7        1.0  0.6900496408756139  0.6600979211523282  0.8683046415849703  1.0000
  C   C8        1.0  0.030151308830817007  0.3402046141811468  0.6320377909788917  1.0000
  C   C9        1.0  0.515556471483194  0.9659868287620129  0.12127085256542368  1.0000
  C   C10       1.0  0.5502576494393592  0.03406484818230381  0.37866295443173936  1.0000
  C   C11       1.0  0.4844441232379636  0.03401671804564191  0.8787276341092963  1.0000
  C   C12       1.0  0.4497477310735363  0.9659374854304305  0.6213360809929895  1.0000
  C   C13       1.0  0.3003082584715458  0.8408501523539372  0.08483867840291039  1.0000
  C   C14       1.0  0.4598614751497933  0.15905707700684957  0.4150576900936471  1.0000
  C   C15       1.0  0.6996957762983839  0.1591521859832596  0.9151611479592958  1.0000
  C   C16       1.0  0.540140738797703  0.840941618933158  0.5849429922308573  1.0000
  C   C17       1.0  0.32501022084171893  0.6099234719644359  0.1335654671700937  1.0000
  C   C18       1.0  0.7152377286665015  0.3899069792327695  0.36631764912646503  1.0000
  C   C19       1.0  0.6749905117473602  0.3900776540603134  0.8664349082419989  1.0000
  C   C20       1.0  0.2847657089233024  0.6100941648073502  0.633685889735638  1.0000
  C   C21       1.0  0.23316308442735328  0.422150267933084  0.9691966163564912  1.0000
  C   C22       1.0  0.8111218633545717  0.5777749454938358  0.5306605675336941  1.0000
  C   C23       1.0  0.7668343414759421  0.5778496366244712  0.030802726330513574  1.0000
  C   C24       1.0  0.1888742280680873  0.42222498667508296  0.4693435205282483  1.0000
  C   C25       1.0  0.22105093075839471  0.5587536205619515  0.9568166245930457  1.0000
  C   C26       1.0  0.6624917645951741  0.44116378888404034  0.5430794007831068  1.0000
  C   C27       1.0  0.7789471035873561  0.441247501179582  0.04318296003152262  1.0000
  C   C28       1.0  0.3375064098709616  0.558834916651975  0.4569228634663318  1.0000
  N   N1        1.0  0.2989932150058294  0.45708970071015653  0.07947105776141682  1.0000
  N   N2        1.0  0.8419895045204128  0.5427440779530669  0.4203614010681918  1.0000
  N   N3        1.0  0.7010028629020371  0.542910203994474  0.9205282849755748  1.0000
  N   N4        1.0  0.1580112370785258  0.4572570663812101  0.5796421378938703  1.0000
  N   N5        1.0  0.27755196498011264  0.6730326451885276  0.060073528297799335  1.0000
  N   N6        1.0  0.6047431643180516  0.32685527813161036  0.4398352926138429  1.0000
  N   N7        1.0  0.7224507240468511  0.3269696978731247  0.9399270890018769  1.0000
  N   N8        1.0  0.3952569643335053  0.6731446398639278  0.5601664226356817  1.0000
  O   O1        1.0  0.10878401448906773  0.14552869232818474  0.21651797575859894  1.0000
  O   O2        1.0  0.9625178085001165  0.8538158217722439  0.2829686684760588  1.0000
  O   O3        1.0  0.89121758876351  0.8544687818504713  0.7834816737408588  1.0000
  O   O4        1.0  0.0374731351421431  0.1461792053358622  0.7170281248356787  1.0000
  O   O5        1.0  0.00873851719377687  0.34044635982249366  0.20474618233456715  1.0000
  O   O6        1.0  0.6678305059886539  0.6588266833296788  0.294921924716725  1.0000
  O   O7        1.0  0.9912617380633647  0.6595511145032376  0.7952534672148773  1.0000
  O   O8        1.0  0.33216388445976724  0.34116714904011064  0.7050785809449635  1.0000
  O   O9        1.0  0.6452716175597005  0.9069633721370566  0.1272785197152829  1.0000
  O   O10       1.0  0.7389816577705517  0.09326020415534941  0.3726347874114637  1.0000
  O   O11       1.0  0.3547328810273598  0.0930425904348766  0.8727172871846207  1.0000
  O   O12       1.0  0.2610223679895115  0.9067421158723266  0.627361875400773  1.0000
  O   O13       1.0  0.5452800049051163  0.11185462039752282  0.1442937554733064  1.0000
  O   O14       1.0  0.434392040451094  0.8881529697149732  0.3556452534790823  1.0000
  O   O15       1.0  0.45472059657343783  0.8881489401422658  0.8557071038638853  1.0000
  O   O16       1.0  0.5656161649107218  0.1118469245111768  0.6443525070330978  1.0000
