data_image0
_chemical_formula_structural       Zn9H102C156N36O24
_chemical_formula_sum              "Zn9 H102 C156 N36 O24"
_cell_length_a       20.72483417459276
_cell_length_b       20.965922797744874
_cell_length_c       20.962038808068833
_cell_angle_alpha    119.9942255627286
_cell_angle_beta     90.00000225333795
_cell_angle_gamma    89.9961534958395

_space_group_name_H-M_alt    "P 1"
_space_group_IT_number       1

loop_
  _space_group_symop_operation_xyz
  'x, y, z'

loop_
  _atom_site_type_symbol
  _atom_site_label
  _atom_site_symmetry_multiplicity
  _atom_site_fract_x
  _atom_site_fract_y
  _atom_site_fract_z
  _atom_site_occupancy
  Zn  Zn1       1.0  0.16671453154162924  0.24113592101407763  0.999978746971209  1.0000
  Zn  Zn2       1.0  0.8332870981217156  0.7588641074804345  0.7588429987309624  1.0000
  Zn  Zn3       1.0  0.5000001472012413  3.324964268664424e-07  0.24113703779367063  1.0000
  Zn  Zn4       1.0  0.39847754762770643  0.2261642540459476  0.16305132441667067  1.0000
  Zn  Zn5       1.0  0.0650872162428726  0.9368980424326807  0.7739233034582681  1.0000
  Zn  Zn6       1.0  0.7317825325810219  0.8369713962378285  0.06312715127248224  1.0000
  Zn  Zn7       1.0  0.9349148921207799  0.06310058866210276  0.8370279374803006  1.0000
  Zn  Zn8       1.0  0.2682171287355856  0.16302669594939095  0.2261550965305688  1.0000
  Zn  Zn9       1.0  0.6015230998549868  0.7738344594781456  0.9368876500628004  1.0000
  H   H1        1.0  0.3136350328085271  0.2645587816928767  0.05729180048114557  1.0000
  H   H2        1.0  0.9802323595499798  0.7927378085539233  0.7355032674720617  1.0000
  H   H3        1.0  0.6469029982615453  0.9427300567883562  0.20726329825617268  1.0000
  H   H4        1.0  0.0197697505412435  0.20726169803079872  0.9427662908282957  1.0000
  H   H5        1.0  0.3530971502922711  0.05726921601219465  0.2645334329542806  1.0000
  H   H6        1.0  0.6863660906859151  0.7354392641973676  0.7927309306554023  1.0000
  H   H7        1.0  0.4824040937714784  0.4632299813746031  0.9243099350116709  1.0000
  H   H8        1.0  0.1491156027619951  0.4610871630068446  0.5366670513025014  1.0000
  H   H9        1.0  0.8158109806399167  0.07540725970456942  0.5388434539714738  1.0000
  H   H10       1.0  0.8508850319677064  0.5389122076753594  0.07557945697386263  1.0000
  H   H11       1.0  0.1841891816161407  0.9245963014771448  0.46343648027902173  1.0000
  H   H12       1.0  0.5175951137223649  0.5367658288705216  0.4610799399625591  1.0000
  H   H13       1.0  0.1388016500581131  0.15491124609024354  0.1549802785155379  1.0000
  H   H14       1.0  0.8054303486155376  7.899456101538817e-05  0.8451332917297593  1.0000
  H   H15       1.0  0.47210445265887563  0.8450051989493803  0.9998995821748197  1.0000
  H   H16       1.0  0.19457031430403757  0.9999188612003211  0.8450528533227838  1.0000
  H   H17       1.0  0.5278961962143852  0.15499473572184297  0.1548966773032134  1.0000
  H   H18       1.0  0.8611989727433238  0.8450879376030828  7.085036752836085e-05  1.0000
  H   H19       1.0  0.10759459442375881  0.19904587369280344  0.1084460919540646  1.0000
  H   H20       1.0  0.7742219288475596  0.9094443140040839  0.80101571052829  1.0000
  H   H21       1.0  0.4409093552509162  0.8915593445747731  0.09056224121554374  1.0000
  H   H22       1.0  0.22577873412653557  0.09055378156047315  0.8915707373144244  1.0000
  H   H23       1.0  0.5590912710141254  0.10844124866642355  0.19900564599337403  1.0000
  H   H24       1.0  0.8924060508180957  0.8009557264168241  0.9094011670672091  1.0000
  H   H25       1.0  0.5215213256480312  0.7069817895094347  0.009909479796611675  1.0000
  H   H26       1.0  0.1882503461744989  0.3029134811127037  0.29292129550685075  1.0000
  H   H27       1.0  0.8549966754489233  0.9901197948230734  0.6972517454449799  1.0000
  H   H28       1.0  0.8117503060863314  0.6970851925069115  0.9900085305426246  1.0000
  H   H29       1.0  0.1450044623610438  0.009882835855350507  0.7071333764163725  1.0000
  H   H30       1.0  0.4784793013093989  0.29301629679270047  0.3029249980391668  1.0000
  H   H31       1.0  0.6892208517464554  0.44471752667058007  0.9164438925368971  1.0000
  H   H32       1.0  0.35593088963914704  0.4717382852444062  0.555161596171942  1.0000
  H   H33       1.0  0.022615936964456296  0.08355813124868679  0.5282978101222469  1.0000
  H   H34       1.0  0.644069745788613  0.5282607745884604  0.08342249659864352  1.0000
  H   H35       1.0  0.9773847071594162  0.9164419428578299  0.44473830110365487  1.0000
  H   H36       1.0  0.3107783557761223  0.5552795766936142  0.4717268758269241  1.0000
  H   H37       1.0  0.679673152292267  0.6359829212397018  0.8706530826981904  1.0000
  H   H38       1.0  0.3462491048968488  0.23458897378437635  0.3640676217811034  1.0000
  H   H39       1.0  0.013098268479716098  0.1294021663070738  0.7653684709245637  1.0000
  H   H40       1.0  0.6537515267833315  0.7654089529063698  0.12948036498225682  1.0000
  H   H41       1.0  0.9869038342870553  0.8706001509865758  0.6359657181503025  1.0000
  H   H42       1.0  0.3203279778172927  0.36401657321949443  0.23466629523375804  1.0000
  H   H43       1.0  0.5101521496700768  0.5850544462062857  0.0029136997477223754  1.0000
  H   H44       1.0  0.17677856904712996  0.41776753844558806  0.41491015167520107  1.0000
  H   H45       1.0  0.843523727353542  0.997067549117567  0.5822882530605967  1.0000
  H   H46       1.0  0.8232225690943977  0.5822312182742738  0.9971422632367678  1.0000
  H   H47       1.0  0.1564769217749387  0.0029346450206590023  0.5852211802651085  1.0000
  H   H48       1.0  0.48984848012083404  0.41494317303774875  0.4178597960515306  1.0000
  H   H49       1.0  0.8570584598128264  0.30731080173503533  0.9042772336240434  1.0000
  H   H50       1.0  0.5237441528203847  0.5969489333659654  0.6927795431447237  1.0000
  H   H51       1.0  0.1904108324373865  0.09572112690390373  0.4029892958486769  1.0000
  H   H52       1.0  0.4762560039658439  0.4030514496986584  0.09583046480082658  1.0000
  H   H53       1.0  0.8095898047656789  0.9042807536736603  0.3072695462780999  1.0000
  H   H54       1.0  0.1429426805226015  0.6926919166768998  0.5969681711226755  1.0000
  H   H55       1.0  0.6332444444829123  0.2196126288966129  0.8976850669281263  1.0000
  H   H56       1.0  0.2998539734274103  0.6778644744457696  0.7802723358868775  1.0000
  H   H57       1.0  0.9665630062758409  0.10265028590332294  0.3221626185940281  1.0000
  H   H58       1.0  0.7001452208231385  0.322134890345616  0.10240733332923206  1.0000
  H   H59       1.0  0.0334352140076888  0.897350246145578  0.21951097127485017  1.0000
  H   H60       1.0  0.36675669798614763  0.7803845303515191  0.6780724086038319  1.0000
  H   H61       1.0  0.3021804405422088  0.37126446845356065  0.9647594425546799  1.0000
  H   H62       1.0  0.9688744940890215  0.5933406047623537  0.6284756188739067  1.0000
  H   H63       1.0  0.6355175347896918  0.03514315431298353  0.40651196392288824  1.0000
  H   H64       1.0  0.031124211886677196  0.4066600380264376  0.03513416993306604  1.0000
  H   H65       1.0  0.3644831042043394  0.9648579672338827  0.3713692838041993  1.0000
  H   H66       1.0  0.6978216664929563  0.6287327737913133  0.5934947879199512  1.0000
  H   H67       1.0  0.7647129660421897  0.3856133628038524  0.9123780049681542  1.0000
  H   H68       1.0  0.4314654604186429  0.5266151057024971  0.6144388130229927  1.0000
  H   H69       1.0  0.0980986678306763  0.08767063100133757  0.4732741016673713  1.0000
  H   H70       1.0  0.5685361416428307  0.4733855574097134  0.08782484464303757  1.0000
  H   H71       1.0  0.90190293832363  0.9123298958795445  0.3856022036386688  1.0000
  H   H72       1.0  0.23528624271385465  0.6143866048015951  0.5267670821032553  1.0000
  H   H73       1.0  0.6752199450583021  0.5107715448940553  0.8572502361694204  1.0000
  H   H74       1.0  0.3418795354081396  0.3464932382182085  0.4892292000489107  1.0000
  H   H75       1.0  0.008550612384191001  0.14271314792130618  0.6534789052012684  1.0000
  H   H76       1.0  0.6581201349142205  0.6535030729323309  0.14273420556290253  1.0000
  H   H77       1.0  0.9914500367154985  0.8572873807573061  0.5107634107237117  1.0000
  H   H78       1.0  0.3247811876507071  0.48922704777861287  0.34647798219383213  1.0000
  H   H79       1.0  0.4049083194551669  0.4306443145963715  0.963054434685219  1.0000
  H   H80       1.0  0.07165297626936959  0.5323586952253765  0.5691805501705717  1.0000
  H   H81       1.0  0.738238688220811  0.03679826031587659  0.46760319556547364  1.0000
  H   H82       1.0  0.9283466932399449  0.46764160587011366  0.0368213265721592  1.0000
  H   H83       1.0  0.2617614713915515  0.9632033043317635  0.4308066053028411  1.0000
  H   H84       1.0  0.5950933034474204  0.5693523561087589  0.5324103381935856  1.0000
  H   H85       1.0  0.3964990409101788  0.16159452987946582  0.8704791426079125  1.0000
  H   H86       1.0  0.06308238931652708  0.7089385260250511  0.8382315240505135  1.0000
  H   H87       1.0  0.7297968701001807  0.1295200662766193  0.2911673064403574  1.0000
  H   H88       1.0  0.9369192196717863  0.2910620632887628  0.12929217382940542  1.0000
  H   H89       1.0  0.27020183043674717  0.8704786943022215  0.16164599540626765  1.0000
  H   H90       1.0  0.6035001715646758  0.8384037118202201  0.7088847429982791  1.0000
  H   H91       1.0  0.5013885807885003  0.2208820381520909  0.8689589120034853  1.0000
  H   H92       1.0  0.1679793789561401  0.6481348475999271  0.7790427154588073  1.0000
  H   H93       1.0  0.8346661759015459  0.13103041072882615  0.3519843559824097  1.0000
  H   H94       1.0  0.8320212635508922  0.3518643422034273  0.1309056143494018  1.0000
  H   H95       1.0  0.165332045172832  0.868970867354797  0.22095469731186068  1.0000
  H   H96       1.0  0.4986096650431265  0.7791159213276302  0.6480779703324798  1.0000
  H   H97       1.0  0.7273217135143497  0.14023456941954776  0.8877099670343398  1.0000
  H   H98       1.0  0.39386057184476897  0.7473946008410908  0.8597213116738871  1.0000
  H   H99       1.0  0.0606152517149994  0.11251115224621348  0.2526147128004297  1.0000
  H   H100      1.0  0.6061395897927894  0.2526039275340751  0.1123250248043917  1.0000
  H   H101      1.0  0.9393815170621166  0.8874917197732373  0.14010362618220987  1.0000
  H   H102      1.0  0.2726813604248832  0.8597665035240996  0.7474751527137612  1.0000
  C   C1        1.0  0.28443131287718865  0.23933259709559712  0.08157134532039828  1.0000
  C   C2        1.0  0.9510478174132259  0.842252125024814  0.7607624215724157  1.0000
  C   C3        1.0  0.6177108243469007  0.9184580355441982  0.1577448308979682  1.0000
  C   C4        1.0  0.0489547752302997  0.15774699453845661  0.918513156606032  1.0000
  C   C5        1.0  0.38229076979838084  0.08154110827080535  0.2392879097819716  1.0000
  C   C6        1.0  0.7155693300575336  0.7606646512331281  0.84223833963987  1.0000
  C   C7        1.0  0.20495956404879218  0.1949979653074791  0.11329334924426598  1.0000
  C   C8        1.0  0.8715903203278684  0.9183153011907167  0.8051223251005197  1.0000
  C   C9        1.0  0.5382502245325966  0.8867549638318906  0.081670447946962  1.0000
  C   C10       1.0  0.1284122726171617  0.08168466801224414  0.8868077282972068  1.0000
  C   C11       1.0  0.46175088392258357  0.11324515601592824  0.1949172358543692  1.0000
  C   C12       1.0  0.7950405992158309  0.8049984165129235  0.918293554479881  1.0000
  C   C13       1.0  0.3430394525614773  0.26276967750123265  0.9170866179547233  1.0000
  C   C14       1.0  0.0096464174398108  0.6543176068258065  0.737012698270405  1.0000
  C   C15       1.0  0.6763456753092997  0.08283156077546047  0.3456936924126026  1.0000
  C   C16       1.0  0.9903547051410726  0.34568404236823375  0.08269528336531803  1.0000
  C   C17       1.0  0.3236525467509139  0.9171680621372645  0.2628601550432918  1.0000
  C   C18       1.0  0.6569631372624373  0.7372295535080228  0.6543189939791461  1.0000
  C   C19       1.0  0.28175282190505874  0.2275780676888247  0.9229030026175309  1.0000
  C   C20       1.0  0.9483222624085316  0.6952881345053756  0.7722333986122081  1.0000
  C   C21       1.0  0.6150175161197992  0.07700852572781977  0.3046999726145501  1.0000
  C   C22       1.0  0.0516793432770442  0.3047187517513521  0.07695041248523884  1.0000
  C   C23       1.0  0.3849807040206841  0.9229890779608426  0.22768827841208147  1.0000
  C   C24       1.0  0.7182502516242338  0.772422043102907  0.6953275772518239  1.0000
  C   C25       1.0  0.526267456389185  0.43347640320736536  0.9217349035634826  1.0000
  C   C26       1.0  0.1929615941603089  0.4882782688571011  0.5664338652425512  1.0000
  C   C27       1.0  0.8596606977806972  0.07806672549232738  0.5116976082098219  1.0000
  C   C28       1.0  0.8070385588273369  0.5117232686210542  0.07815864680992482  1.0000
  C   C29       1.0  0.14034042804292568  0.921935997062562  0.43362943107820223  1.0000
  C   C30       1.0  0.4737322343092528  0.5665179510249915  0.48826008220249406  1.0000
  C   C31       1.0  0.46050737926032775  0.329195973020035  0.9147145716100483  1.0000
  C   C32       1.0  0.12719516528524366  0.585556098586878  0.6706850252652572  1.0000
  C   C33       1.0  0.7938461760916835  0.08517133324188118  0.4144856559279901  1.0000
  C   C34       1.0  0.8728059556334956  0.4144453830143036  0.08513109671358167  1.0000
  C   C35       1.0  0.2061530144282457  0.9148311377833309  0.3293162677587274  1.0000
  C   C36       1.0  0.539493278747372  0.6708005093098778  0.5855209435979205  1.0000
  C   C37       1.0  0.5546507728786239  0.6617816612352669  0.9768772088391557  1.0000
  C   C38       1.0  0.2213199225313502  0.3150593617164787  0.3381651590109485  1.0000
  C   C39       1.0  0.8881047715562786  0.0231349451035713  0.6850339187738186  1.0000
  C   C40       1.0  0.7786807057167451  0.6849379496331524  0.02310552699939449  1.0000
  C   C41       1.0  0.1118978123130958  0.9768670845709482  0.6619000245632377  1.0000
  C   C42       1.0  0.4453503621351303  0.3382168929275978  0.3150919820575028  1.0000
  C   C43       1.0  0.6417322221584811  0.42191839821595084  0.9148790016529418  1.0000
  C   C44       1.0  0.3084325658945772  0.49292519439991633  0.5779745330704955  1.0000
  C   C45       1.0  0.9751200064991821  0.08513937530770496  0.5070829538728462  1.0000
  C   C46       1.0  0.6915671050987342  0.5070752405309163  0.08505059370903467  1.0000
  C   C47       1.0  0.024880636476460403  0.9148606787061555  0.4219400479094374  1.0000
  C   C48       1.0  0.35826698593846373  0.5780769103022936  0.4929625556219719  1.0000
  C   C49       1.0  0.6350455061284777  0.3523289609782269  0.9085627192135491  1.0000
  C   C50       1.0  0.30172735467215256  0.5561216836199422  0.6476302605571433  1.0000
  C   C51       1.0  0.9684022422820175  0.0915618524665903  0.44386128326985397  1.0000
  C   C52       1.0  0.698272318291238  0.44387924741661083  0.09151046435314208  1.0000
  C   C53       1.0  0.031599362278370804  0.9084373981044251  0.35229591952536765  1.0000
  C   C54       1.0  0.3649546684439571  0.6476674416832252  0.5562352937276386  1.0000
  C   C55       1.0  0.6434436564443685  0.6221977408654029  0.8995961023461021  1.0000
  C   C56       1.0  0.31006835496932444  0.2773324543231298  0.377819823247954  1.0000
  C   C57       1.0  0.9768739101689049  0.10043619952067237  0.7226627461885685  1.0000
  C   C58       1.0  0.6899332413037483  0.7226665063918033  0.10048711781045219  1.0000
  C   C59       1.0  0.023126743586885795  0.899566083772264  0.6222272383077578  1.0000
  C   C60       1.0  0.35655892307622133  0.3778017126490525  0.27739516293118527  1.0000
  C   C61       1.0  0.5483919964393776  0.5936486621812878  0.972318319256388  1.0000
  C   C62       1.0  0.21502049362551653  0.37858012376889855  0.40631527742591084  1.0000
  C   C63       1.0  0.8817827319873217  0.027668559300984556  0.6214462669468831  1.0000
  C   C64       1.0  0.7849811015179851  0.6214180799669721  0.02773599310352641  1.0000
  C   C65       1.0  0.118216953291757  0.9723356742456918  0.5937800220298683  1.0000
  C   C66       1.0  0.4516091401775028  0.4063480475861213  0.37866732980541684  1.0000
  C   C67       1.0  0.8077018907976451  0.2884013112507662  0.9020424654120093  1.0000
  C   C68       1.0  0.4743675610809177  0.6135706303549143  0.7116612440781793  1.0000
  C   C69       1.0  0.1410385857426917  0.09801952376863457  0.3863711696520795  1.0000
  C   C70       1.0  0.5256330788112606  0.3864285386577678  0.09808925642452235  1.0000
  C   C71       1.0  0.8589596379236466  0.9019836709844143  0.2883524107884909  1.0000
  C   C72       1.0  0.192297802422317  0.7116000424587342  0.6136438169414972  1.0000
  C   C73       1.0  0.6824823350513824  0.23793918117630142  0.8981778293101783  1.0000
  C   C74       1.0  0.3491157673091081  0.6600577524954616  0.7620227224223014  1.0000
  C   C75       1.0  0.015816695771817997  0.10211273444693357  0.3399346442850444  1.0000
  C   C76       1.0  0.650884874013812  0.3399409752629907  0.10196369176743758  1.0000
  C   C77       1.0  0.9841810429154164  0.8978885410805829  0.2378188545135131  1.0000
  C   C78       1.0  0.3175192894547294  0.7620586621410156  0.6602389528419793  1.0000
  C   C79       1.0  0.5230051554628332  0.3632674289583237  0.9146222599072829  1.0000
  C   C80       1.0  0.1896991166619273  0.5513536096007813  0.6366713929492676  1.0000
  C   C81       1.0  0.856371641839658  0.08532801851864502  0.4486698851457689  1.0000
  C   C82       1.0  0.8103010383259959  0.4486485222847705  0.08532085198422124  1.0000
  C   C83       1.0  0.14362899803256818  0.914673478311805  0.3633414374087848  1.0000
  C   C84       1.0  0.47699550169051  0.6367278794746484  0.5513589908724229  1.0000
  C   C85       1.0  0.5865892422608425  0.4633357542526756  0.9217833032702104  1.0000
  C   C86       1.0  0.2532800957972086  0.4584649468109065  0.5365669677864489  1.0000
  C   C87       1.0  0.9199868738572335  0.0780973248345591  0.5415400154424149  1.0000
  C   C88       1.0  0.7467195739496545  0.5415350221174223  0.07810333753754138  1.0000
  C   C89       1.0  0.08001328851420199  0.9219049154083053  0.4634432819200923  1.0000
  C   C90       1.0  0.4134099651058776  0.5366598353454607  0.4584498237532912  1.0000
  C   C91       1.0  0.34588419006663423  0.3385869068901855  0.9427747097485762  1.0000
  C   C92       1.0  0.012571180246482098  0.6041551121941497  0.6612013524088026  1.0000
  C   C93       1.0  0.6792334234858757  0.05712107722579427  0.3958225272020782  1.0000
  C   C94       1.0  0.9874299396821016  0.3958466485068115  0.057046379034005654  1.0000
  C   C95       1.0  0.3207681794196944  0.9428795272521739  0.3387006281618171  1.0000
  C   C96       1.0  0.6541164690862331  0.6614117752234778  0.6041890418600957  1.0000
  C   C97       1.0  0.8554519486753521  0.17170433734225576  0.884528494206073  1.0000
  C   C98       1.0  0.5220268184310443  0.7129399213193182  0.8283389710869002  1.0000
  C   C99       1.0  0.1887445261002156  0.11543582538190843  0.2870777717162484  1.0000
  C   C100      1.0  0.4779723773001621  0.28706277892639787  0.11539663389238793  1.0000
  C   C101      1.0  0.8112565870098223  0.8845672293877554  0.1716438585926384  1.0000
  C   C102      1.0  0.14455208914434078  0.828301387020723  0.7128243428743202  1.0000
  C   C103      1.0  0.5919465006264559  0.5368939811220843  0.9290507170078329  1.0000
  C   C104      1.0  0.25860542680577936  0.3921198916828885  0.46304835047872217  1.0000
  C   C105      1.0  0.9253290215537078  0.0708582767506203  0.6078637462025114  1.0000
  C   C106      1.0  0.7413937583682043  0.6078787079890233  0.07092845266433292  1.0000
  C   C107      1.0  0.0746721094655385  0.9291448364322009  0.5370065816083596  1.0000
  C   C108      1.0  0.40805367017252087  0.46310316296083454  0.39215574658613406  1.0000
  C   C109      1.0  0.798044826708299  0.21876957061163455  0.8944978237874821  1.0000
  C   C110      1.0  0.46466356856227264  0.6756931998748359  0.78126468357096  1.0000
  C   C111      1.0  0.1313600834066193  0.10559007193954535  0.3242805698564695  1.0000
  C   C112      1.0  0.5353390033739628  0.32430655107836504  0.10556879738241066  1.0000
  C   C113      1.0  0.8686395843885323  0.8944122592713412  0.21869262716969476  1.0000
  C   C114      1.0  0.20195776297183704  0.7812329917353937  0.6757289911128979  1.0000
  C   C115      1.0  0.691783320563644  0.3070993891254975  0.903959674596763  1.0000
  C   C116      1.0  0.3584694977896348  0.5966875642763868  0.6928802458322494  1.0000
  C   C117      1.0  0.0251404935964956  0.09623893029360898  0.40325892313722284  1.0000
  C   C118      1.0  0.6415296939985565  0.4033123558337479  0.09619201491320686  1.0000
  C   C119      1.0  0.9748596610813534  0.9037633284617359  0.30701957702972743  1.0000
  C   C120      1.0  0.3082187849909914  0.6928973009555578  0.5968605025852725  1.0000
  C   C121      1.0  0.7553550087149716  0.331717743565136  0.9063445757997075  1.0000
  C   C122      1.0  0.4220543532494573  0.5745007614132052  0.6683091246733142  1.0000
  C   C123      1.0  0.08870538150375039  0.09375219878745616  0.4254332924328637  1.0000
  C   C124      1.0  0.5779458028887419  0.42549833806210563  0.09380746553143374  1.0000
  C   C125      1.0  0.9112947744199004  0.9062493759117843  0.3316812812273256  1.0000
  C   C126      1.0  0.2446446836516785  0.6682820534141956  0.5746298519338993  1.0000
  C   C127      1.0  0.6406816918085099  0.5528613453320619  0.8926361924704125  1.0000
  C   C128      1.0  0.3073453493003626  0.3397467813841076  0.44712139233671166  1.0000
  C   C129      1.0  0.9740509739075378  0.10733800093333926  0.6602455481261346  1.0000
  C   C130      1.0  0.6926548014093612  0.6602525754903541  0.10737375934988333  1.0000
  C   C131      1.0  0.0259501588863671  0.892665341120285  0.5529064416661597  1.0000
  C   C132      1.0  0.35931992415014946  0.4471376004174631  0.33977415044072495  1.0000
  C   C133      1.0  0.40382033527821193  0.37130000553315795  0.9413309329772802  1.0000
  C   C134      1.0  0.0705438499943583  0.570039405877161  0.6285276018015793  1.0000
  C   C135      1.0  0.7371701490150926  0.05852953334108699  0.4299789505918384  1.0000
  C   C136      1.0  0.9294563040802899  0.42996273403749535  0.058488842712797834  1.0000
  C   C137      1.0  0.2628309730270075  0.9414739327637348  0.37145026766447137  1.0000
  C   C138      1.0  0.5961788754577596  0.628697169829508  0.5700335910994242  1.0000
  C   C139      1.0  0.3992647408119297  0.2203962821112172  0.8898648303771141  1.0000
  C   C140      1.0  0.06586637651551541  0.669530122978209  0.7794200553428396  1.0000
  C   C141      1.0  0.7325642596601368  0.11007764195894518  0.3305557583513519  1.0000
  C   C142      1.0  0.9341333004566366  0.3304681895262789  0.10988696577409476  1.0000
  C   C143      1.0  0.26743492588850154  0.8899230385951074  0.22047750948818387  1.0000
  C   C144      1.0  0.6007349536897237  0.7796008763890827  0.669469537418216  1.0000
  C   C145      1.0  0.45729159585717133  0.25318628444089364  0.8890196258178875  1.0000
  C   C146      1.0  0.1239032046399302  0.6358813427354307  0.7466932854464119  1.0000
  C   C147      1.0  0.7905854440307748  0.11092315922957856  0.3642048113035372  1.0000
  C   C148      1.0  0.8760979189977717  0.36411823724663617  0.11081100175195494  1.0000
  C   C149      1.0  0.20941326083050876  0.8890748420934214  0.25328113506206046  1.0000
  C   C150      1.0  0.542707132718874  0.7468108658226813  0.6358341413807977  1.0000
  C   C151      1.0  0.7348504631764996  0.1941659861795134  0.89312474522594  1.0000
  C   C152      1.0  0.40144587292272144  0.698838176161708  0.8058323167325341  1.0000
  C   C153      1.0  0.0681682115994207  0.10708487936356197  0.3011301369333594  1.0000
  C   C154      1.0  0.5985542871262055  0.3011616112968767  0.10699205918451328  1.0000
  C   C155      1.0  0.9318309724366642  0.8929174057536003  0.194045019291117  1.0000
  C   C156      1.0  0.2651530921109213  0.8058362552317748  0.6989601141576856  1.0000
  N   N1        1.0  0.5765620357388527  0.3241994666273556  0.9078074605499751  1.0000
  N   N2        1.0  0.24325792430104085  0.5835221742473492  0.6757737364596038  1.0000
  N   N3        1.0  0.9099139319689158  0.092296784516492  0.4164883285068229  1.0000
  N   N4        1.0  0.7567431968791212  0.4164809981471507  0.09225426598946025  1.0000
  N   N5        1.0  0.09008718863974959  0.9077021885509282  0.32418951922129224  1.0000
  N   N6        1.0  0.42343765699413183  0.675797567689223  0.5836105649606651  1.0000
  N   N7        1.0  0.2203265525028826  0.22585058550569673  0.0711153842830541  1.0000
  N   N8        1.0  0.8869458747187907  0.8452945996290283  0.7742606787295115  1.0000
  N   N9        1.0  0.5536163491229972  0.9289383864741513  0.15469833012159007  1.0000
  N   N10       1.0  0.1130572010357582  0.15470532104809132  0.9289689569581442  1.0000
  N   N11       1.0  0.4463857270696537  0.07106172857997714  0.2257624431779703  1.0000
  N   N12       1.0  0.7796740901735504  0.7741485595997873  0.8452646508997788  1.0000
  N   N13       1.0  0.3087477821948497  0.21832366836883924  0.1264621119636757  1.0000
  N   N14       1.0  0.9753758140990668  0.9081318487497826  0.7817723436803518  1.0000
  N   N15       1.0  0.6420396814437979  0.873559817702656  0.09185909575781155  1.0000
  N   N16       1.0  0.024626777944369797  0.09186660026726684  0.8736435033064682  1.0000
  N   N17       1.0  0.35796191036986613  0.1264412113950898  0.21830283621007854  1.0000
  N   N18       1.0  0.6912504510700971  0.7816734997994177  0.9081370870421425  1.0000
  N   N19       1.0  0.25796426889935015  0.1897362538689435  0.14766818014559388  1.0000
  N   N20       1.0  0.92459398457256  0.9579324220927034  0.8103712360042862  1.0000
  N   N21       1.0  0.591257845946032  0.8523541562265464  0.04205770732364289  1.0000
  N   N22       1.0  0.07540812514212547  0.04206628950381506  0.8524406149803953  1.0000
  N   N23       1.0  0.4087432612680999  0.14764805678548504  0.1897075752877626  1.0000
  N   N24       1.0  0.7420354137651017  0.8102606970173768  0.9579323427409959  1.0000
  N   N25       1.0  0.1452363248048911  0.17256810345941181  0.11816458544517872  1.0000
  N   N26       1.0  0.811856226457209  0.945627881714728  0.8275404307898455  1.0000
  N   N27       1.0  0.4785312139913458  0.8818828683656861  0.054354709657772435  1.0000
  N   N28       1.0  0.1881454019417461  0.05437142877278251  0.881911571701764  1.0000
  N   N29       1.0  0.5214703756320204  0.11811860261143894  0.1724747461384837  1.0000
  N   N30       1.0  0.8547638392264927  0.8274304343130866  0.9455975470441372  1.0000
  N   N31       1.0  0.6013059122694671  0.6759407218311183  0.9410448097099219  1.0000
  N   N32       1.0  0.2679584207181094  0.2650635030573626  0.3240373047983169  1.0000
  N   N33       1.0  0.9347693106311395  0.05897128961738237  0.7349929634261798  1.0000
  N   N34       1.0  0.7320426905545147  0.7349354568550837  0.05897496220726586  1.0000
  N   N35       1.0  0.06523182737895179  0.941030544397343  0.6760230710931765  1.0000
  N   N36       1.0  0.39869425545087733  0.32405863640105553  0.2651013136609919  1.0000
  O   O1        1.0  0.2342836004743418  0.2727540102503667  0.9556061208457081  1.0000
  O   O2        1.0  0.9008656078303048  0.6828722873498451  0.7270601939538325  1.0000
  O   O3        1.0  0.5676305555611022  0.04415812889421036  0.3170876104561628  1.0000
  O   O4        1.0  0.09913261844249628  0.317128347712007  0.04418665434585727  1.0000
  O   O5        1.0  0.4323695961636885  0.9558386359023957  0.2729249992375031  1.0000
  O   O6        1.0  0.7657180259751896  0.7272481379883974  0.6828543396685589  1.0000
  O   O7        1.0  0.8455617533778296  0.10435144615604502  0.8704135380489931  1.0000
  O   O8        1.0  0.5120973166229704  0.7660178366994047  0.8957624558397583  1.0000
  O   O9        1.0  0.1788510830592642  0.129571287420582  0.2338411318927882  1.0000
  O   O10       1.0  0.4879033288971044  0.2339814533115927  0.12974099068505038  1.0000
  O   O11       1.0  0.8211514744650685  0.8704310605693379  0.10427015546174795  1.0000
  O   O12       1.0  0.15444180291304116  0.8956553745400487  0.7660624683130097  1.0000
  O   O13       1.0  0.9114602725117747  0.19556980919276176  0.8861729218513902  1.0000
  O   O14       1.0  0.5780670954041723  0.6909498223910407  0.80441500808886  1.0000
  O   O15       1.0  0.2447614392271902  0.11369664959874379  0.30922897963947804  1.0000
  O   O16       1.0  0.42193306485918214  0.309047528126932  0.11345714339190482  1.0000
  O   O17       1.0  0.7552406400647412  0.8863077553040455  0.19553477722140403  1.0000
  O   O18       1.0  0.0885432821290308  0.8044397124616439  0.6906016720474143  1.0000
  O   O19       1.0  0.2809937230116901  0.15956569764515677  0.8996207764979546  1.0000
  O   O20       1.0  0.9475926371942477  0.7399503880735169  0.8402627937661008  1.0000
  O   O21       1.0  0.6141747361600736  0.10040870935262804  0.260065071554159  1.0000
  O   O22       1.0  0.05240848822319322  0.2600606598575936  0.10032257356039762  1.0000
  O   O23       1.0  0.3858234810840814  0.899587572300476  0.1596516536546274  1.0000
  O   O24       1.0  0.7190079035297217  0.8404346818866343  0.7400608069350978  1.0000
