data_image0
_chemical_formula_structural       Zn2H40C56N4O8
_chemical_formula_sum              "Zn2 H40 C56 N4 O8"
_cell_length_a       5.794682014771085
_cell_length_b       14.023149024908191
_cell_length_c       20.741381819013544
_cell_angle_alpha    93.70354578912
_cell_angle_beta     89.97626657881753
_cell_angle_gamma    102.01984888019648

_space_group_name_H-M_alt    "P 1"
_space_group_IT_number       1

loop_
  _space_group_symop_operation_xyz
  'x, y, z'

loop_
  _atom_site_type_symbol
  _atom_site_label
  _atom_site_symmetry_multiplicity
  _atom_site_fract_x
  _atom_site_fract_y
  _atom_site_fract_z
  _atom_site_occupancy
  Zn  Zn1       1.0  0.22393524726384587  0.0005679917594604579  0.7500205301031075  1.0000
  Zn  Zn2       1.0  0.776080797791046  0.9994526405993723  0.24996901741775462  1.0000
  H   H1        1.0  0.29044968209160527  0.1342965366853192  0.8688338843479291  1.0000
  H   H2        1.0  0.09211942461163856  0.25478194957555894  0.9248093276889978  1.0000
  H   H3        1.0  0.6088236264564985  0.2142905006598638  0.7607550029004815  1.0000
  H   H4        1.0  0.8331803709768479  0.09650077757014937  0.7109763477489397  1.0000
  H   H5        1.0  0.5577088645838161  0.33067233591602724  0.8466890100201571  1.0000
  H   H6        1.0  0.8784280421679753  0.34329903578507265  0.9668697982017566  1.0000
  H   H7        1.0  0.3587735124525864  0.4288472658698481  0.890508350488709  1.0000
  H   H8        1.0  0.8353248680981197  0.4503353559488587  0.053354707827509215  1.0000
  H   H9        1.0  0.7101518476785956  0.9672947329492061  0.5980009172516676  1.0000
  H   H10       1.0  0.1548047248697983  0.07890716441863074  0.5128508088945127  1.0000
  H   H11       1.0  0.15592798397794638  0.8664046056449378  0.6314340762665582  1.0000
  H   H12       1.0  0.8365023869068298  0.7455279422857756  0.5756264742434284  1.0000
  H   H13       1.0  0.39275865989629477  0.7869715715235728  0.7393072561538789  1.0000
  H   H14       1.0  0.7354398627297911  0.9051196757395201  0.7889293204819058  1.0000
  H   H15       1.0  0.22512686010219327  0.6698007705807781  0.6534775930444641  1.0000
  H   H16       1.0  0.5347268164119257  0.6575310693255786  0.5335058345201491  1.0000
  H   H17       1.0  0.9271214914145177  0.571936822562229  0.6090784759830472  1.0000
  H   H18       1.0  0.3866907086726243  0.5496897672209186  0.44730002421486165  1.0000
  H   H19       1.0  0.7424391108161573  0.03380255286759846  0.9019326805066971  1.0000
  H   H20       1.0  0.07556631422458053  0.9205327347662473  0.9872297849702537  1.0000
  H   H21       1.0  0.7095485840732324  0.8657161906263083  0.13115971372875634  1.0000
  H   H22       1.0  0.9078761321359109  0.7452288248916474  0.07518794655431554  1.0000
  H   H23       1.0  0.39116932553850603  0.7857322757019887  0.23924637332493867  1.0000
  H   H24       1.0  0.16680594227462098  0.9035225091137136  0.2890154024106196  1.0000
  H   H25       1.0  0.4423288873131668  0.6693674480292626  0.15328938392535466  1.0000
  H   H26       1.0  0.12155989241148286  0.6567102967012629  0.03312152607624343  1.0000
  H   H27       1.0  0.6412289181841047  0.5711668728628467  0.10948006562790626  1.0000
  H   H28       1.0  0.1646816080218513  0.5496833997010098  0.9466322335717553  1.0000
  H   H29       1.0  0.28981343255762243  0.032727897492961185  0.40198447846849933  1.0000
  H   H30       1.0  0.8451650294836668  0.9211209350388502  0.48713222942306106  1.0000
  H   H31       1.0  0.84411121566243  0.13356938136593746  0.36857403744305384  1.0000
  H   H32       1.0  0.16355602795780302  0.2544121613250212  0.4243927706428823  1.0000
  H   H33       1.0  0.6072854468441378  0.21304654322373298  0.260696070356886  1.0000
  H   H34       1.0  0.2645661346044151  0.09492218747445236  0.21106138018107867  1.0000
  H   H35       1.0  0.7749032694482098  0.3301792362797328  0.34654660644611124  1.0000
  H   H36       1.0  0.46529679474539887  0.342408465214575  0.46651771083040955  1.0000
  H   H37       1.0  0.07290112341636491  0.42802481084066085  0.39096227642155423  1.0000
  H   H38       1.0  0.6133347216499062  0.45027059725532576  0.552739149650428  1.0000
  H   H39       1.0  0.2574937940968738  0.9661865500882102  0.09806098227742417  1.0000
  H   H40       1.0  0.9243534436114161  0.07945424229091459  0.012763182554500905  1.0000
  C   C1        1.0  0.13942507318549963  0.15499575555882927  0.8465188996999162  1.0000
  C   C2        1.0  0.02695400794540597  0.22247384720704128  0.8774087451015692  1.0000
  C   C3        1.0  0.8297994127556975  0.24670103610387165  0.8476246134342421  1.0000
  C   C4        1.0  0.7611833673421914  0.20010418567396462  0.7864488657580753  1.0000
  C   C5        1.0  0.8840263828127775  0.1334318303832801  0.7582149101172677  1.0000
  C   C6        1.0  0.6987299866027784  0.31566742420304184  0.8769345289342286  1.0000
  C   C7        1.0  0.73826172347092  0.36004464359662336  0.9370767638581088  1.0000
  C   C8        1.0  0.6134196346807174  0.43006996669700465  0.9676731327280951  1.0000
  C   C9        1.0  0.4223663821400906  0.4597498675222056  0.9384112694357116  1.0000
  C   C10       1.0  0.6873371397154528  0.4720836391407202  0.029992169936157605  1.0000
  C   C11       1.0  0.3299401849517736  0.04758946168001185  0.6271552061687518  1.0000
  C   C12       1.0  0.4243587592256334  0.025835455529858085  0.5616631502564007  1.0000
  C   C13       1.0  0.6181050164986743  0.9805502866192979  0.5548625203861024  1.0000
  C   C14       1.0  0.30728326131749384  0.04522134422794007  0.5063745674172254  1.0000
  C   C15       1.0  0.9838955604173166  0.8457871554947614  0.6537183254664642  1.0000
  C   C16       1.0  0.803601130986742  0.7780884721284166  0.6229395753133888  1.0000
  C   C17       1.0  0.5817125531834505  0.7540395133301555  0.6526304152833762  1.0000
  C   C18       1.0  0.559634375209434  0.800985277840837  0.713674577501543  1.0000
  C   C19       1.0  0.7494742429916884  0.8678833577381225  0.7418052736268239  1.0000
  C   C20       1.0  0.3815063399644104  0.6849368233286198  0.6232757567884735  1.0000
  C   C21       1.0  0.37730150145863217  0.6405417994668738  0.5631558975754063  1.0000
  C   C22       1.0  0.18275742317819504  0.57022395240385  0.5324514212534625  1.0000
  C   C23       1.0  0.9611166262255751  0.5406673235461952  0.5613938996036938  1.0000
  C   C24       1.0  0.21618636213127468  0.5278448364032753  0.4703484678123077  1.0000
  C   C25       1.0  0.281728201738531  0.9530483863816385  0.8728858927292226  1.0000
  C   C26       1.0  0.3981042810872708  0.9745163038142549  0.9383453490182848  1.0000
  C   C27       1.0  0.6373673514538822  0.019987176721613768  0.9450976045071474  1.0000
  C   C28       1.0  0.26183077611720756  0.9545749739941768  0.9936633595247886  1.0000
  C   C29       1.0  0.8605675505391518  0.8450229174571076  0.15347432478052536  1.0000
  C   C30       1.0  0.9730390558701033  0.7775422700560171  0.12258712736850444  1.0000
  C   C31       1.0  0.17021124071493424  0.753322614046489  0.15237007457512425  1.0000
  C   C32       1.0  0.23883985978993386  0.7999204444186104  0.2135439837384682  1.0000
  C   C33       1.0  0.11596766442728058  0.8665862391826521  0.24177728625225828  1.0000
  C   C34       1.0  0.3012700528873892  0.6843556970081576  0.12305284887423083  1.0000
  C   C35       1.0  0.26172801163648524  0.6399614056335279  0.0629171356636462  1.0000
  C   C36       1.0  0.38658745068277517  0.5699431354822195  0.032317598923079116  1.0000
  C   C37       1.0  0.5776745737179708  0.5402825598392409  0.06157268000001893  1.0000
  C   C38       1.0  0.312649308270295  0.5279261727423118  0.9700011378177965  1.0000
  C   C39       1.0  0.6699990577324612  0.9524225517243535  0.37282671173476006  1.0000
  C   C40       1.0  0.5756352565229648  0.9742031526455432  0.4383185164389119  1.0000
  C   C41       1.0  0.3818778290215692  0.019483268286222665  0.44512396506851115  1.0000
  C   C42       1.0  0.6927050919086496  0.954819739774109  0.493610734039244  1.0000
  C   C43       1.0  0.016137879251623098  0.15419940684250827  0.3462837863447278  1.0000
  C   C44       1.0  0.1964356430887406  0.22188412027789178  0.37706791542018453  1.0000
  C   C45       1.0  0.4183369293001178  0.2459446516581066  0.34738452061522923  1.0000
  C   C46       1.0  0.4404001625960775  0.1990309601975042  0.2863261428876244  1.0000
  C   C47       1.0  0.25055051660941535  0.13214776218980964  0.2581887077365225  1.0000
  C   C48       1.0  0.6185556960506914  0.3150242510880758  0.3767523563114211  1.0000
  C   C49       1.0  0.6227638030054763  0.3593948659091381  0.4368784874615131  1.0000
  C   C50       1.0  0.8172921638270269  0.4297123654151277  0.46759696253080574  1.0000
  C   C51       1.0  0.03893707650929899  0.45927718884595226  0.43865385061082685  1.0000
  C   C52       1.0  0.7838488937282478  0.4721110395414172  0.5296912248766648  1.0000
  C   C53       1.0  0.7182121619360589  0.04694181894506501  0.12710497637526436  1.0000
  C   C54       1.0  0.6018446150543612  0.02546340308377639  0.06164689045295553  1.0000
  C   C55       1.0  0.3625833409268608  0.9799961083739603  0.05489547604561553  1.0000
  C   C56       1.0  0.7381115429018763  0.04540194315318049  0.006327634060454603  1.0000
  N   N1        1.0  0.07018747563140688  0.11064296481880118  0.7878671510511881  1.0000
  N   N2        1.0  0.9588578179547439  0.8905192725797162  0.7122229039397114  1.0000
  N   N3        1.0  0.9298039883479775  0.8893734000093116  0.21212681075488862  1.0000
  N   N4        1.0  0.04117400901156289  0.10948812168376774  0.2877720947207863  1.0000
  O   O1        1.0  0.4366387077335433  0.018762750833900558  0.6757479639404382  1.0000
  O   O2        1.0  0.15297633293052837  0.08513514190626381  0.6329618301634528  1.0000
  O   O3        1.0  0.4175569776567014  0.9819810040936828  0.8242984400658034  1.0000
  O   O4        1.0  0.06692971124247285  0.9155619764928813  0.8670824609631895  1.0000
  O   O5        1.0  0.5633392866568983  0.9812680148624934  0.3242372755620978  1.0000
  O   O6        1.0  0.8468902617599098  0.9148352946694654  0.36701642465633477  1.0000
  O   O7        1.0  0.5824032334948513  0.01800404993251449  0.17569239710357465  1.0000
  O   O8        1.0  0.9330041283529128  0.08443586191790327  0.13291207411069197  1.0000
