data_image0
_chemical_formula_structural       Zn4H108C132N12O16
_chemical_formula_sum              "Zn4 H108 C132 N12 O16"
_cell_length_a       14.238768216676709
_cell_length_b       14.238650863823928
_cell_length_c       20.8400373293688
_cell_angle_alpha    105.96115285911905
_cell_angle_beta     108.3153762863171
_cell_angle_gamma    97.90724000878281

_space_group_name_H-M_alt    "P 1"
_space_group_IT_number       1

loop_
  _space_group_symop_operation_xyz
  'x, y, z'

loop_
  _atom_site_type_symbol
  _atom_site_label
  _atom_site_symmetry_multiplicity
  _atom_site_fract_x
  _atom_site_fract_y
  _atom_site_fract_z
  _atom_site_occupancy
  Zn  Zn1       1.0  0.46612417148043767  0.18342041389573902  0.9841580380875143  1.0000
  Zn  Zn2       1.0  0.6992140398740787  0.4819544481122335  0.5158763971845345  1.0000
  Zn  Zn3       1.0  0.5338757004279204  0.8165797094047705  0.01584172767313422  1.0000
  Zn  Zn4       1.0  0.30078599098987985  0.5180450943437975  0.48412352752144017  1.0000
  H   H1        1.0  0.6420563841815863  0.3253895513754801  0.9959468315874886  1.0000
  H   H2        1.0  0.8293936670730915  0.6460862947402788  0.5040523474195168  1.0000
  H   H3        1.0  0.35794412653483937  0.6746104710542227  0.0040535729090719974  1.0000
  H   H4        1.0  0.17060636379087413  0.3539132477157523  0.4959475772864508  1.0000
  H   H5        1.0  0.6827172178334703  0.4759911856150436  0.9617180214023688  1.0000
  H   H6        1.0  0.01422405923436551  0.7209952511018471  0.5382849157687701  1.0000
  H   H7        1.0  0.31728265407488015  0.5240089376854655  0.03828174435827948  1.0000
  H   H8        1.0  0.9857757208407919  0.2790053467153017  0.4617155116101799  1.0000
  H   H9        1.0  0.35950421489306444  0.4505554721457087  0.870795782981183  1.0000
  H   H10       1.0  0.07971907534199842  0.4886762407000875  0.6291833516491394  1.0000
  H   H11       1.0  0.6404956570152863  0.5494446511548006  0.1292039827794652  1.0000
  H   H12       1.0  0.920280383836307  0.5113232962989188  0.37081675488455806  1.0000
  H   H13       1.0  0.33199713271935866  0.30174606765594825  0.9120429894431226  1.0000
  H   H14       1.0  0.8896675258070773  0.4199110867009992  0.5879429649492706  1.0000
  H   H15       1.0  0.6680023264589537  0.6982534693430582  0.08795711709056767  1.0000
  H   H16       1.0  0.11033225426807995  0.5800895111161567  0.4120574624296863  1.0000
  H   H17       1.0  0.4787027556354601  0.5964456554012186  0.8769742733097841  1.0000
  H   H18       1.0  0.21944854757642682  0.6017343317235628  0.623029251014998  1.0000
  H   H19       1.0  0.5212966364204377  0.40355398792561914  0.1230250126602854  1.0000
  H   H20       1.0  0.7805513243319242  0.3982657915769466  0.3769705147456575  1.0000
  H   H21       1.0  0.6079773087303478  0.6250601078488173  0.9350478289862777  1.0000
  H   H22       1.0  0.18997241125174472  0.6729332781703478  0.5649561672321823  1.0000
  H   H23       1.0  0.39202256317800993  0.374940015451692  0.06495193677437068  1.0000
  H   H24       1.0  0.810027940509066  0.32706732510383324  0.435044078319052  1.0000
  H   H25       1.0  0.6474185060303554  0.505576510230526  0.8404945422288606  1.0000
  H   H26       1.0  0.16508179447767207  0.806947030536627  0.659515868935202  1.0000
  H   H27       1.0  0.3525815248336103  0.49442303222550515  0.15950538247711418  1.0000
  H   H28       1.0  0.8349180774306788  0.1930530927638827  0.34048389682545377  1.0000
  H   H29       1.0  0.5193435713965043  0.4723477363060197  0.7816788964216881  1.0000
  H   H30       1.0  0.1906397156311214  0.7376802768075307  0.7183274674227106  1.0000
  H   H31       1.0  0.4806562086786528  0.527652861511129  0.21832153095726164  1.0000
  H   H32       1.0  0.8093603152328442  0.2623192656485003  0.281672457283264  1.0000
  H   H33       1.0  0.6636843584307428  0.6828244509492124  0.8414188991511651  1.0000
  H   H34       1.0  0.34142361022274764  0.8222569261945125  0.6586142679944017  1.0000
  H   H35       1.0  0.3363156724332228  0.3171750915068188  0.15858102555480968  1.0000
  H   H36       1.0  0.6585767415380629  0.17774367707966832  0.34138597755683253  1.0000
  H   H37       1.0  0.5328367767792415  0.6543642526018658  0.7875785601263913  1.0000
  H   H38       1.0  0.3667674852180554  0.7452487715678943  0.7124599585961703  1.0000
  H   H39       1.0  0.46716325408472403  0.3456352898541653  0.21242136457957625  1.0000
  H   H40       1.0  0.6332330254983631  0.25475125086180844  0.2875404459003903  1.0000
  H   H41       1.0  0.7509643984117318  0.5286747942855642  0.7792989586337526  1.0000
  H   H42       1.0  0.24938763016159274  0.9716960794897249  0.7207218328892607  1.0000
  H   H43       1.0  0.2490356324522338  0.4713247481704741  0.22070096607222203  1.0000
  H   H44       1.0  0.7506116700611046  0.02830403835375253  0.27927811469910313  1.0000
  H   H45       1.0  0.7816850309414888  0.4686677399075236  0.665070164327055  1.0000
  H   H46       1.0  0.3036344428457269  0.11666716976059624  0.8349433421017735  1.0000
  H   H47       1.0  0.21831532081932178  0.5313328633666572  0.3349300812241792  1.0000
  H   H48       1.0  0.6963659089150909  0.8833334335135845  0.16505690344946075  1.0000
  H   H49       1.0  0.5049190235953205  0.6396160527983242  0.6658276167763971  1.0000
  H   H50       1.0  0.47377235321226857  0.8391089841353362  0.8342119995495664  1.0000
  H   H51       1.0  0.49508148712109806  0.36038396963137853  0.3341727877201635  1.0000
  H   H52       1.0  0.5262276776516899  0.16089055832070195  0.16578792515640825  1.0000
  H   H53       1.0  0.5515554995525634  0.5831013390988106  0.5590696526930472  1.0000
  H   H54       1.0  0.524038991997891  0.9925130280770843  0.9409544300175837  1.0000
  H   H55       1.0  0.4484444394782016  0.41689867787386686  0.44093093363122887  1.0000
  H   H56       1.0  0.47596030822479923  0.00748708976639994  0.0590455175707874  1.0000
  H   H57       1.0  0.8998672436025646  0.029169290889967753  0.07676652460308724  1.0000
  H   H58       1.0  0.45236637234872035  0.8230747716551576  0.42321457984078137  1.0000
  H   H59       1.0  0.10013326711386128  0.9708307315397349  0.9232338798934734  1.0000
  H   H60       1.0  0.5476336585152454  0.17692477080088054  0.5767853448651933  1.0000
  H   H61       1.0  0.0019076650105986487  0.3135712409660059  0.24946109347870046  1.0000
  H   H62       1.0  0.5641352850422551  0.7524421188033799  0.25055421860048444  1.0000
  H   H63       1.0  0.9980921150645584  0.6864293568511499  0.7505393339002494  1.0000
  H   H64       1.0  0.4358647458217106  0.24755742365265135  0.7494457061054902  1.0000
  H   H65       1.0  0.7275721635589889  0.06262605190075739  0.03130733313311399  1.0000
  H   H66       1.0  0.5312346162865609  0.696214876327275  0.46867139925466  1.0000
  H   H67       1.0  0.272427295619316  0.9373734850982416  0.9686927734005834  1.0000
  H   H68       1.0  0.4687658944298576  0.3037851461024347  0.5313290052418935  1.0000
  H   H69       1.0  0.8287032832282792  0.34768618701532017  0.20137461964500855  1.0000
  H   H70       1.0  0.6462789721169743  0.6272708214650747  0.2986207865771106  1.0000
  H   H71       1.0  0.1712965886800787  0.6523139362851893  0.7986251461156398  1.0000
  H   H72       1.0  0.35372032810572324  0.3727292963784096  0.7013791610112605  1.0000
  H   H73       1.0  0.21964683267745502  0.06873091444900581  0.19480127949932316  1.0000
  H   H74       1.0  0.37394913016265013  0.024836718943731705  0.30518604492653617  1.0000
  H   H75       1.0  0.7803535190833558  0.9312696888251751  0.8051989660519113  1.0000
  H   H76       1.0  0.6260512215981606  0.9751638843304492  0.6948142006247052  1.0000
  H   H77       1.0  0.027134336774842914  0.2286651217582758  0.0840306703518365  1.0000
  H   H78       1.0  0.6446323574560039  0.9430979032961917  0.4159687435277845  1.0000
  H   H79       1.0  0.9728661739415826  0.7713349006714267  0.915969734144724  1.0000
  H   H80       1.0  0.3553675144523537  0.05690222000431783  0.5840310222328639  1.0000
  H   H81       1.0  0.13021673014745974  0.22997329123921875  0.007611905848918396  1.0000
  H   H82       1.0  0.7223392360767136  0.12261266245180019  0.4923918613125692  1.0000
  H   H83       1.0  0.8697833007165058  0.7700262512168193  0.9923880188570562  1.0000
  H   H84       1.0  0.27766136647290557  0.8773868854612632  0.5076078815656899  1.0000
  H   H85       1.0  0.32444445750522294  0.07622081165945363  0.12068063198978507  1.0000
  H   H86       1.0  0.4555080097987486  0.20375942363526187  0.3793025654409803  1.0000
  H   H87       1.0  0.675555894255595  0.9237797916147272  0.8793196135614493  1.0000
  H   H88       1.0  0.5444923419620622  0.796241179638919  0.6206976801102541  1.0000
  H   H89       1.0  0.2496391397258861  0.2441644929032023  0.28946364312204753  1.0000
  H   H90       1.0  0.45470888173985463  0.9601477369642666  0.21051725274653418  1.0000
  H   H91       1.0  0.7503612120349245  0.7558361103709785  0.7105366024291867  1.0000
  H   H92       1.0  0.5452916289765709  0.03985228546543603  0.7894831517500263  1.0000
  H   H93       1.0  0.956297500287711  0.06178972350551262  0.2500367274614632  1.0000
  H   H94       1.0  0.31175100559953967  0.7062519966218446  0.24996787728825606  1.0000
  H   H95       1.0  0.04370227978744613  0.9382108743116433  0.7499636999174867  1.0000
  H   H96       1.0  0.6882490252644262  0.29374754583418666  0.7500320474177116  1.0000
  H   H97       1.0  0.01914486903805813  0.06004621579796774  0.37517288991104886  1.0000
  H   H98       1.0  0.18486067011451723  0.6439367419181182  0.12482895567775636  1.0000
  H   H99       1.0  0.9808550028702996  0.9399539075025414  0.6248268758495995  1.0000
  H   H100      1.0  0.8151390428382258  0.3560639622268695  0.8751706511375729  1.0000
  H   H101      1.0  0.3116272432177923  0.2440110766393389  0.41497906894166187  1.0000
  H   H102      1.0  0.3290304877803152  0.8966060113775925  0.08500037587132421  1.0000
  H   H103      1.0  0.6883727876461664  0.7559884658166923  0.5850208557643128  1.0000
  H   H104      1.0  0.6709693841280356  0.10339411192291717  0.9149993898893314  1.0000
  H   H105      1.0  0.1985105627042287  0.15046705748999056  0.45804828214712495  1.0000
  H   H106      1.0  0.1924309839277002  0.7404197692033205  0.0419487114029593  1.0000
  H   H107      1.0  0.8014893092041221  0.849533065810519  0.5419514836135235  1.0000
  H   H108      1.0  0.8075696186219187  0.2595797787097424  0.9580510314752997  1.0000
  C   C1        1.0  0.5819028791833174  0.35557837440604345  0.9680722520121277  1.0000
  C   C2        1.0  0.8874554251838164  0.6138178292081164  0.5319368146571932  1.0000
  C   C3        1.0  0.41809699272504025  0.6444217488944659  0.03192751374852779  1.0000
  C   C4        1.0  0.1125444467245416  0.3861822940923929  0.46806295110345525  1.0000
  C   C5        1.0  0.6034253717724312  0.43910631776072523  0.9485651455537505  1.0000
  C   C6        1.0  0.9904944485613001  0.6548575412188741  0.5514362205359972  1.0000
  C   C7        1.0  0.3965745672583338  0.5608936992119523  0.0514354407705255  1.0000
  C   C8        1.0  0.009505423347050627  0.3451425820816354  0.44856354522465125  1.0000
  C   C9        1.0  0.5239570820958191  0.4763063608018996  0.9130043565080682  1.0000
  C   C10       1.0  0.06324422151766375  0.6109635581635687  0.5870056004283554  1.0000
  C   C11       1.0  0.47604294876814646  0.5236931816541386  0.0869955681979064  1.0000
  C   C12       1.0  0.9367556503906869  0.3890365651369407  0.4129941653323001  1.0000
  C   C13       1.0  0.42426211160466215  0.4246043655138649  0.8980753780668279  1.0000
  C   C14       1.0  0.026474715491978756  0.5261468301489245  0.6019016244783443  1.0000
  C   C15       1.0  0.5757379192593036  0.5753951769421661  0.1019245466391467  1.0000
  C   C16       1.0  0.9735251564163719  0.4738532931515849  0.3980981412823039  1.0000
  C   C17       1.0  0.40793948901467303  0.34187851846115075  0.9198960408955726  1.0000
  C   C18       1.0  0.9219346496200842  0.4880147566920385  0.5801039453864617  1.0000
  C   C19       1.0  0.5920602910604842  0.658122079355998  0.08010438648337731  1.0000
  C   C20       1.0  0.07806570214072647  0.5119858465821422  0.41989630016477253  1.0000
  C   C21       1.0  0.5459953526251836  0.5653018342907288  0.8902697661210935  1.0000
  C   C22       1.0  0.17499886357210673  0.6557325470863945  0.6097397464954283  1.0000
  C   C23       1.0  0.4540045192831741  0.43469828900978064  0.1097299996395549  1.0000
  C   C24       1.0  0.8250011672918588  0.3442669953696438  0.3902601782105463  1.0000
  C   C25       1.0  0.5788907098668757  0.5347985500184151  0.8256927779020272  1.0000
  C   C26       1.0  0.20909161537425544  0.7532142780475085  0.6743177397288419  1.0000
  C   C27       1.0  0.4211098008495426  0.4652014724112945  0.17430762659452625  1.0000
  C   C28       1.0  0.790908895342163  0.24678574438219406  0.3256826647677115  1.0000
  C   C29       1.0  0.5997779449552496  0.6224185641165151  0.7989118049628344  1.0000
  C   C30       1.0  0.3235066887655264  0.800867029580921  0.7011163970848954  1.0000
  C   C31       1.0  0.40022256576117604  0.37758145831319473  0.20108859953372618  1.0000
  C   C32       1.0  0.6764931831428241  0.19913309371958832  0.29888336867575294  1.0000
  C   C33       1.0  0.6247990405158461  0.5899839038151243  0.7327716109753267  1.0000
  C   C34       1.0  0.3571750685047449  0.8920340634735595  0.7672479538656772  1.0000
  C   C35       1.0  0.3752009903481124  0.41001563864090684  0.26722831373064787  1.0000
  C   C36       1.0  0.6428248034036059  0.10796605982694994  0.23275181189497834  1.0000
  C   C37       1.0  0.7041091867497898  0.5416061598683372  0.7314845510043568  1.0000
  C   C38       1.0  0.31012332938264114  0.972663017948193  0.7685477373088788  1.0000
  C   C39       1.0  0.295891323966636  0.4583938625613655  0.2685158534922039  1.0000
  C   C40       1.0  0.6898767014813245  0.027336524507845236  0.2314521873970961  1.0000
  C   C41       1.0  0.7227765871054713  0.5091025837930802  0.668628740966028  1.0000
  C   C42       1.0  0.3405028748870008  0.054198641115732554  0.8314077840331676  1.0000
  C   C43       1.0  0.27722287207283364  0.4908969532059189  0.3313713655676622  1.0000
  C   C44       1.0  0.6594969970213499  0.9458014821847769  0.1685919817274807  1.0000
  C   C45       1.0  0.5687120017952125  0.6043049412116304  0.6693424597102718  1.0000
  C   C46       1.0  0.43494520078864685  0.8993863053811068  0.8306686640030205  1.0000
  C   C47       1.0  0.4312883499655982  0.3956956620625505  0.33065778584096955  1.0000
  C   C48       1.0  0.5650553099277786  0.10061371704860284  0.16933174049353986  1.0000
  C   C49       1.0  0.5930241439963524  0.5714364018874605  0.6087402329618213  1.0000
  C   C50       1.0  0.4627214531921168  0.9843297915301291  0.8912750332562566  1.0000
  C   C51       1.0  0.40697588686760616  0.42856314056857053  0.39125969174415326  1.0000
  C   C52       1.0  0.5372784187162338  0.015670331770380116  0.10872473250439894  1.0000
  C   C53       1.0  0.9606207656005382  0.16989131376660552  0.16545496901370876  1.0000
  C   C54       1.0  0.5044535892902148  0.7951771114006547  0.33455219656968177  1.0000
  C   C55       1.0  0.03937668233473339  0.8301067778543467  0.8345438799759463  1.0000
  C   C56       1.0  0.49554571093248256  0.2048230064428297  0.6654477510186821  1.0000
  C   C57       1.0  0.8839091362619131  0.09869678214793254  0.10409635946772508  1.0000
  C   C58       1.0  0.4945869597264547  0.7797956133188109  0.3958997564834306  1.0000
  C   C59       1.0  0.11609016396078425  0.9013033356955445  0.895903588120639  1.0000
  C   C60       1.0  0.5054130711375108  0.22020392913722733  0.6041001682225441  1.0000
  C   C61       1.0  0.941272562974362  0.25934040094379895  0.20149594388124092  1.0000
  C   C62       1.0  0.557830570851131  0.7397536006023486  0.298501637128112  1.0000
  C   C63       1.0  0.05872746788960382  0.7406591415122393  0.7985039808247335  1.0000
  C   C64       1.0  0.44216872937156626  0.2602465172411356  0.7014983104602591  1.0000
  C   C65       1.0  0.7883561161330166  0.11770475909484192  0.07851695145117783  1.0000
  C   C66       1.0  0.5391430629309327  0.7097995467841117  0.42146933948078674  1.0000
  C   C67       1.0  0.21164423562779427  0.8822958441793389  0.9214832941000565  1.0000
  C   C68       1.0  0.4608574477854858  0.290200475645598  0.5785310650157668  1.0000
  C   C69       1.0  0.8456892597333123  0.2780839501541267  0.1752450760909524  1.0000
  C   C70       1.0  0.6027707505586477  0.6703718787800597  0.3247151833033967  1.0000
  C   C71       1.0  0.1543105203418448  0.721916647663022  0.8247553512879974  1.0000
  C   C72       1.0  0.3972291213497032  0.32962824452044975  0.6752845824572519  1.0000
  C   C73       1.0  0.7686232704611555  0.20768494193366396  0.113585631208032  1.0000
  C   C74       1.0  0.594050586092834  0.6549895427761073  0.3863900789143456  1.0000
  C   C75       1.0  0.23137724025526304  0.7923150804960458  0.8864147732885286  1.0000
  C   C76       1.0  0.4059497656679838  0.3450110604980807  0.6136101666368886  1.0000
  C   C77       1.0  0.6662517220933992  0.22954892962646062  0.08565563072792767  1.0000
  C   C78       1.0  0.6438240170405648  0.5805104470691517  0.4143171176057974  1.0000
  C   C79       1.0  0.3337483087705663  0.7704506128295705  0.9143442939780471  1.0000
  C   C80       1.0  0.3561760138233936  0.4194890953868865  0.5856828071001772  1.0000
  C   C81       1.0  0.11771865306214123  0.1513405417147169  0.1465547737963249  1.0000
  C   C82       1.0  0.5048011408228206  0.9711697609991531  0.35343133392391474  1.0000
  C   C83       1.0  0.8822811270130161  0.8486600561024388  0.8534456535826321  1.0000
  C   C84       1.0  0.4951992109379901  0.028830842275027517  0.6465689116273196  1.0000
  C   C85       1.0  0.2009096862543558  0.10605417347308331  0.15493383438013097  1.0000
  C   C86       1.0  0.4511509516667048  0.04598639154827582  0.3450506370111341  1.0000
  C   C87       1.0  0.7990903446096027  0.8939453689829548  0.8450660903258437  1.0000
  C   C88       1.0  0.5488489202416461  0.954013731752241  0.6549491287495216  1.0000
  C   C89       1.0  0.09198931497517998  0.19471046959453284  0.09197302213328838  1.0000
  C   C90       1.0  0.6027349429040855  8.75533924470793e-06  0.40802444089013784  1.0000
  C   C91       1.0  0.9080110367856306  0.8052901336796552  0.9080272234179458  1.0000
  C   C92       1.0  0.39726598054238604  0.9999918533919683  0.591975622833381  1.0000
  C   C93       1.0  0.14918955129911643  0.19524055763420728  0.04906514068044739  1.0000
  C   C94       1.0  0.6461549974852545  0.10013045150796523  0.45093179752885243  1.0000
  C   C95       1.0  0.8508103877316487  0.80475945933847  0.9509354456438286  1.0000
  C   C96       1.0  0.3538448744230963  0.8998696717925513  0.5490679682318031  1.0000
  C   C97       1.0  0.2588955364610399  0.10924394513821768  0.11274136903386987  1.0000
  C   C98       1.0  0.49647733990837384  0.14617495370767844  0.3872835492928814  1.0000
  C   C99       1.0  0.7411039227172723  0.8907555918607886  0.8872587374998204  1.0000
  C   C100      1.0  0.5035231708080518  0.8538250687220313  0.612716855203672  1.0000
  C   C101      1.0  0.23500070569559034  0.15483726052301713  0.05972716236993848  1.0000
  C   C102      1.0  0.5950873203956349  0.17528922392362034  0.44028614628240337  1.0000
  C   C103      1.0  0.764999325168368  0.845162281933014  0.9402727623360361  1.0000
  C   C104      1.0  0.4049127104683238  0.824710318532418  0.5597137784235713  1.0000
  C   C105      1.0  0.30263622350840796  0.16872422618524752  0.019584588152511597  1.0000
  C   C106      1.0  0.649099028249779  0.2830606148494468  0.48042897462740086  1.0000
  C   C107      1.0  0.697363648399943  0.8312758971152621  0.980415177608137  1.0000
  C   C108      1.0  0.3508997921204512  0.716939023020359  0.5195704931703914  1.0000
  C   C109      1.0  0.09932405262360083  0.15157106105838383  0.2612550166806429  1.0000
  C   C110      1.0  0.39032692565835697  0.8380641993768022  0.23873706119396584  1.0000
  C   C111      1.0  0.9006759782403649  0.8484284813976473  0.7387449080253318  1.0000
  C   C112      1.0  0.6096729462499938  0.16193592392370712  0.7612627045666825  1.0000
  C   C113      1.0  0.19975806344984187  0.2027135934347015  0.30810438164444776  1.0000
  C   C114      1.0  0.39461344889807753  0.8916421035425728  0.1918836113799429  1.0000
  C   C115      1.0  0.8002418084585089  0.797286529865808  0.6918953841162078  1.0000
  C   C116      1.0  0.6053864230102732  0.1083580197579365  0.8081161543807055  1.0000
  C   C117      1.0  0.03448328506807033  0.1008411494924317  0.2863448640558417  1.0000
  C   C118      1.0  0.31448700843557736  0.7481390015215581  0.21365858572451651  1.0000
  C   C119      1.0  0.9655161741102419  0.8991583875065745  0.7136552424778486  1.0000
  C   C120      1.0  0.6855130224283885  0.2518605409344803  0.7863413389814582  1.0000
  C   C121      1.0  0.0701530267125534  0.10052981419071466  0.35668942946026755  1.0000
  C   C122      1.0  0.2438344273827084  0.7134284467017266  0.14331373770602338  1.0000
  C   C123      1.0  0.9298474840038722  0.8994702082389952  0.643310975036293  1.0000
  C   C124      1.0  0.7561660833337099  0.286571575727983  0.8566866667905301  1.0000
  C   C125      1.0  0.2345894895571803  0.2018799146703003  0.37831972931857644  1.0000
  C   C126      1.0  0.323563922057552  0.8562436522077379  0.12166928600233004  1.0000
  C   C127      1.0  0.7654108622036306  0.7981206886038876  0.621680516232658  1.0000
  C   C128      1.0  0.6764364297032656  0.14375695106644326  0.8783309595489043  1.0000
  C   C129      1.0  0.1703738303115757  0.15056587340281183  0.402995617022917  1.0000
  C   C130      1.0  0.24757878524217602  0.767357007969295  0.09700766514407626  1.0000
  C   C131      1.0  0.8296254699111217  0.8494342444406655  0.5970043305654542  1.0000
  C   C132      1.0  0.7524215665186349  0.23264359530489293  0.9029925804071651  1.0000
  N   N1        1.0  0.4855746396400562  0.30766792725702913  0.9545234769992348  1.0000
  N   N2        1.0  0.8530987030382207  0.5310324598419669  0.5454803397224453  1.0000
  N   N3        1.0  0.5144248195382489  0.6923316097419703  0.04547662953445543  1.0000
  N   N4        1.0  0.14690116887012997  0.46896766345854246  0.4545194260382032  1.0000
  N   N5        1.0  0.6686716746543552  0.5243274855587927  0.6081586966317899  1.0000
  N   N6        1.0  0.41620281726024877  0.06056588369796138  0.8918732554497735  1.0000
  N   N7        1.0  0.33132835620960316  0.4756720568972383  0.3918412280741847  1.0000
  N   N8        1.0  0.5837970546481017  0.9394342396025479  0.10812651031087475  1.0000
  N   N9        1.0  0.0602690870558931  0.15305687423256836  0.19015663951155656  1.0000
  N   N10       1.0  0.4629109861551584  0.8701143604838252  0.3098378249088042  1.0000
  N   N11       1.0  0.9397314236605253  0.8469431481971413  0.809843764985004  1.0000
  N   N12       1.0  0.5370893656056596  0.12988624279035582  0.69016242064243  1.0000
  O   O1        1.0  0.6461112960780965  0.30610256230282573  0.11969310783749872  1.0000
  O   O2        1.0  0.6863699513612647  0.52636530753518  0.3802928146342168  1.0000
  O   O3        1.0  0.3538881631002156  0.6938969746961734  0.8803069986961914  1.0000
  O   O4        1.0  0.3136300795027012  0.4736342349208583  0.6197071100717508  1.0000
  O   O5        1.0  0.6043982846320048  0.16375192514991005  0.024238181579654797  1.0000
  O   O6        1.0  0.6394009016321291  0.5800419379805675  0.47572322346591983  1.0000
  O   O7        1.0  0.39560165439875994  0.8362480918227674  0.9757624047446212  1.0000
  O   O8        1.0  0.36059897027622884  0.41995818531994206  0.5242765422947288  1.0000
  O   O9        1.0  0.2757342566439149  0.19997667547428238  0.9672289046207112  1.0000
  O   O10       1.0  0.7326759500361747  0.308491327166955  0.53281073107501  1.0000
  O   O11       1.0  0.7242657742200509  0.800022866981756  0.03277102008526351  1.0000
  O   O12       1.0  0.26732449355783666  0.6915088015905865  0.4671888528579231  1.0000
  O   O13       1.0  0.3921491878956118  0.15095686979798734  0.044044630784164006  1.0000
  O   O14       1.0  0.606877144027422  0.34810863525245855  0.4559652907342553  1.0000
  O   O15       1.0  0.607850684012746  0.8490432535025222  0.9559551349764843  1.0000
  O   O16       1.0  0.3931232077333888  0.6518919680217293  0.544034954816979  1.0000
