data_image0
_chemical_formula_structural       Ag6H16C36N6O6
_chemical_formula_sum              "Ag6 H16 C36 N6 O6"
_cell_length_a       6.852793043777292
_cell_length_b       11.834097519805484
_cell_length_c       11.834029045113265
_cell_angle_alpha    69.9416927978416
_cell_angle_beta     80.00290037817956
_cell_angle_gamma    80.00193042458093

_space_group_name_H-M_alt    "P 1"
_space_group_IT_number       1

loop_
  _space_group_symop_operation_xyz
  'x, y, z'

loop_
  _atom_site_type_symbol
  _atom_site_label
  _atom_site_symmetry_multiplicity
  _atom_site_fract_x
  _atom_site_fract_y
  _atom_site_fract_z
  _atom_site_occupancy
  Ag  Ag1       1.0  0.5196973667609085  0.521867486202609  0.6670161724440434  1.0000
  Ag  Ag2       1.0  0.9803143795385482  0.3329923458314424  0.47812556516741717  1.0000
  Ag  Ag3       1.0  0.48030037969770223  0.47813073522782895  0.33298863769662296  1.0000
  Ag  Ag4       1.0  0.019686630862224812  0.667004106221661  0.5218727452111765  1.0000
  Ag  Ag5       1.0  0.250008151203069  0.41841237765194694  0.5815890635066268  1.0000
  Ag  Ag6       1.0  0.7499904830318511  0.5815885731964769  0.418413881772267  1.0000
  H   H1        1.0  0.313253255517445  0.7091027086689365  0.8448984694627697  1.0000
  H   H2        1.0  0.1867415275368458  0.15509658642702817  0.29089848021074965  1.0000
  H   H3        1.0  0.6867569858463938  0.2908992130027384  0.1550995550967968  1.0000
  H   H4        1.0  0.8132530108620986  0.8449025489359767  0.7091021288519456  1.0000
  H   H5        1.0  0.18166211895584183  0.8049869841738726  0.0045433216611101826  1.0000
  H   H6        1.0  0.3183291490516282  0.9954542677578857  0.1950154807904028  1.0000
  H   H7        1.0  0.8183443960490421  0.19501854729141138  0.995454710355922  1.0000
  H   H8        1.0  0.6816570780379932  0.004542115629376999  0.8049860850463516  1.0000
  H   H9        1.0  0.8366157795859267  0.7834829586199987  0.10898248849496633  1.0000
  H   H10       1.0  0.663378488687087  0.8910235606009702  0.2165149672160923  1.0000
  H   H11       1.0  0.1633873066436351  0.21651800654809242  0.8910208325821075  1.0000
  H   H12       1.0  0.33661672221847994  0.1089792185005791  0.7834817987409294  1.0000
  H   H13       1.0  0.6182144482379925  0.6694455482714685  0.052545000335293045  1.0000
  H   H14       1.0  0.8817838779336141  0.9474587007255549  0.33055061826747323  1.0000
  H   H15       1.0  0.38178605448931074  0.33055359571762466  0.9474583638509982  1.0000
  H   H16       1.0  0.1182102405517753  0.05254225935352249  0.6694468795796736  1.0000
  C   C1        1.0  0.17648818604582317  0.5295450138135677  0.687800125893297  1.0000
  C   C2        1.0  0.3235143738795188  0.3121941889877888  0.4704607398857306  1.0000
  C   C3        1.0  0.8235108629227881  0.4704605107941686  0.3121936169469706  1.0000
  C   C4        1.0  0.6764908198510469  0.6877904183050986  0.5295555237219177  1.0000
  C   C5        1.0  0.11449904250105192  0.5802345520125343  0.7658659541296942  1.0000
  C   C6        1.0  0.3854948589756474  0.23413186903210453  0.41976427378909154  1.0000
  C   C7        1.0  0.8854761197030926  0.41976538721015527  0.23414147325490836  1.0000
  C   C8        1.0  0.6145181730216294  0.7658573345778589  0.5802436954676367  1.0000
  C   C9        1.0  0.04151267976745743  0.6360511105610555  0.8557298116284783  1.0000
  C   C10       1.0  0.4584809290779361  0.14426792309493655  0.36395255445486907  1.0000
  C   C11       1.0  0.9584838388279592  0.36395257324242175  0.14426820068232615  1.0000
  C   C12       1.0  0.5415226967025433  0.8557303383620077  0.6360482486312906  1.0000
  C   C13       1.0  0.16072573923519684  0.7020660540176633  0.8891368150765829  1.0000
  C   C14       1.0  0.33926781383626553  0.11085789775464859  0.2979307687011641  1.0000
  C   C15       1.0  0.8392726372267986  0.2979358268515354  0.11086077086935836  1.0000
  C   C16       1.0  0.6607395835598452  0.8891359023889789  0.7020584808152324  1.0000
  C   C17       1.0  0.08626416182114838  0.755519121469291  0.9786797418383201  1.0000
  C   C18       1.0  0.41374829293452814  0.021326166740756495  0.24447671863913456  1.0000
  C   C19       1.0  0.913755618715207  0.2444800898050942  0.02132412377704906  1.0000
  C   C20       1.0  0.5862523029377799  0.9786865707680618  0.7555253981627815  1.0000
  C   C21       1.0  0.8918005160993304  0.7437099695702472  0.03735544781323327  1.0000
  C   C22       1.0  0.608199662756775  0.9626461068430954  0.2562843200883763  1.0000
  C   C23       1.0  0.10820679622939622  0.25629192816312235  0.9626454255458439  1.0000
  C   C24       1.0  0.39179032532266683  0.03734581915590949  0.7437048469063469  1.0000
  C   C25       1.0  0.7692820787593605  0.6793993079723818  0.006333065571318743  1.0000
  C   C26       1.0  0.7307263426415885  0.9936665843324731  0.32060636786441415  1.0000
  C   C27       1.0  0.23072722439165005  0.3206071342764004  0.9936660563081289  1.0000
  C   C28       1.0  0.2692798480820641  0.0063407365233984995  0.6793961603874336  1.0000
  C   C29       1.0  0.8428113367409864  0.6260264657193771  0.9158749981077107  1.0000
  C   C30       1.0  0.6571782767859345  0.08412812048819517  0.3739721659701303  1.0000
  C   C31       1.0  0.1571769236741716  0.37397444648308203  0.08412819733845821  1.0000
  C   C32       1.0  0.3428307446479837  0.915872029261642  0.6260164472124005  1.0000
  C   C33       1.0  0.7187639580934045  0.5631018411498442  0.8807495207340422  1.0000
  C   C34       1.0  0.7812338681685418  0.11924316708519457  0.43690686119496286  1.0000
  C   C35       1.0  0.2812312130014477  0.43690818402174586  0.11924732295336338  1.0000
  C   C36       1.0  0.21876303577044348  0.8807514734075568  0.5630882676951715  1.0000
  N   N1        1.0  0.6173682931701093  0.5132177358459487  0.8485214177255713  1.0000
  N   N2        1.0  0.8826347505300233  0.15148430222853188  0.48677604849540057  1.0000
  N   N3        1.0  0.38261983428933644  0.48677682890682655  0.15148310283536404  1.0000
  N   N4        1.0  0.117369579634513  0.8485175911918001  0.5132234473018755  1.0000
  N   N5        1.0  0.7499995116176592  0.25264854111529894  0.7473521189951171  1.0000
  N   N6        1.0  0.2499963238453163  0.7473515028746857  0.25264889114910016  1.0000
  O   O1        1.0  0.7499998241541376  0.3493264493268953  0.6506755889792544  1.0000
  O   O2        1.0  0.2499960113088378  0.6506735946630896  0.3493254211649628  1.0000
  O   O3        1.0  0.5963720822041838  0.2400543214974532  0.8228850303343265  1.0000
  O   O4        1.0  0.903636409504756  0.17710973385587883  0.7599478633443796  1.0000
  O   O5        1.0  0.4036342892191699  0.7599448664431986  0.1771134815252041  1.0000
  O   O6        1.0  0.09636866485455904  0.8228885454578002  0.2400502474336293  1.0000
