data_image0
_chemical_formula_structural       CuH16C14N2O6
_chemical_formula_sum              "Cu1 H16 C14 N2 O6"
_cell_length_a       7.247577924869899
_cell_length_b       7.67967214444022
_cell_length_c       8.404838873632633
_cell_angle_alpha    112.35147415140953
_cell_angle_beta     110.5058456970826
_cell_angle_gamma    100.23181203981437

_space_group_name_H-M_alt    "P 1"
_space_group_IT_number       1

loop_
  _space_group_symop_operation_xyz
  'x, y, z'

loop_
  _atom_site_type_symbol
  _atom_site_label
  _atom_site_symmetry_multiplicity
  _atom_site_fract_x
  _atom_site_fract_y
  _atom_site_fract_z
  _atom_site_occupancy
  Cu  Cu1       1.0  0.5412674631404002  0.0412915516158634  0.08284420718540278  1.0000
  H   H1        1.0  0.20352831439450364  0.726053663635227  0.9004127114282952  1.0000
  H   H2        1.0  0.6975002406161934  0.17490680530551125  0.9011735058079964  1.0000
  H   H3        1.0  0.6313041743785418  0.05626886206524522  0.4772736471599189  1.0000
  H   H4        1.0  0.8457148939108663  0.4203450489916209  0.47731110700955537  1.0000
  H   H5        1.0  0.9447192139810524  0.07383312691090542  0.7390462897028341  1.0000
  H   H6        1.0  0.7944386100953834  0.6650075617388681  0.7389886122477165  1.0000
  H   H7        1.0  0.23136766296759964  0.960921263456328  0.35586637601652876  1.0000
  H   H8        1.0  0.12434745250525478  0.3952616521296264  0.35564648888829  1.0000
  H   H9        1.0  0.9058013705387251  0.9457832878071315  0.10694603500537174  1.0000
  H   H10       1.0  0.2005408092394632  0.16082296172650964  0.10689627094686222  1.0000
  H   H11       1.0  0.45695016559087526  0.6670246064032174  0.17669022100155027  1.0000
  H   H12       1.0  0.7201901992459623  0.5100327054549254  0.17731710976005388  1.0000
  H   H13       1.0  0.2643074298204695  0.4819897526712822  0.9365815981496795  1.0000
  H   H14       1.0  0.6730516341676491  0.4550320242218931  0.9373317788050886  1.0000
  H   H15       1.0  0.1941199329534058  0.5488060273532085  0.12822379152457594  1.0000
  H   H16       1.0  0.9348605194271686  0.579952699700016  0.12922290672956643  1.0000
  C   C1        1.0  0.7676252565166378  0.037308596973296915  0.45544381590213584  1.0000
  C   C2        1.0  0.6875402965261229  0.4176147119743732  0.4554621278671647  1.0000
  C   C3        1.0  0.9427362608519232  0.04599896028666  0.6012711028096333  1.0000
  C   C4        1.0  0.6585322148443706  0.5550382562126971  0.6012059525100142  1.0000
  C   C5        1.0  0.11650228471929579  0.02467702304765141  0.5696523402761002  1.0000
  C   C6        1.0  0.4531414349534799  0.5450969487331535  0.5695030475134502  1.0000
  C   C7        1.0  0.10228814364535309  0.9836692281078001  0.38843896195342614  1.0000
  C   C8        1.0  0.2859386773265413  0.40481828530259634  0.3882587641681213  1.0000
  C   C9        1.0  0.9223779719962764  0.9760481021734578  0.24946769083003054  1.0000
  C   C10       1.0  0.32675068336857993  0.2731658782640096  0.24944416525648447  1.0000
  C   C11       1.0  0.32100302932752095  0.051448316497172186  0.7246428640201684  1.0000
  C   C12       1.0  0.4036614713801185  0.6735112753438912  0.7242890392626933  1.0000
  C   C13       1.0  0.2893540432897693  0.6081995945497313  0.07103736018714105  1.0000
  C   C14       1.0  0.7823265914128752  0.46327256508399023  0.07182501312720994  1.0000
  N   N1        1.0  0.7602215479497899  0.007868858702345003  0.2839042824222631  1.0000
  N   N2        1.0  0.5232232936995729  0.2755247729274615  0.283944942394335  1.0000
  O   O1        1.0  0.31778147213185537  0.0675148672689829  0.8815014413999477  1.0000
  O   O2        1.0  0.5637746733595959  0.8142444866638172  0.8813148187362572  1.0000
  O   O3        1.0  0.4769398460323941  0.05949204435703591  0.6901265434226289  1.0000
  O   O4        1.0  0.21309884644670518  0.6311233289841027  0.6895294390739296  1.0000
  O   O5        1.0  0.2287122915985478  0.763184910331212  0.03608141482947498  1.0000
  O   O6        1.0  0.807961791958256  0.2733507113100657  0.036894960831517776  1.0000
