data_image0
_chemical_formula_structural       Zn4H28C44N16F4
_chemical_formula_sum              "Zn4 H28 C44 N16 F4"
_cell_length_a       13.011363677232076
_cell_length_b       13.005751295490192
_cell_length_c       14.76928006457701
_cell_angle_alpha    96.43618288299052
_cell_angle_beta     122.5184236376783
_cell_angle_gamma    105.10257943674247

_space_group_name_H-M_alt    "P 1"
_space_group_IT_number       1

loop_
  _space_group_symop_operation_xyz
  'x, y, z'

loop_
  _atom_site_type_symbol
  _atom_site_label
  _atom_site_symmetry_multiplicity
  _atom_site_fract_x
  _atom_site_fract_y
  _atom_site_fract_z
  _atom_site_occupancy
  Zn  Zn1       1.0  0.6553450141876954  0.6553635853892815  0.9999038722466695  1.0000
  Zn  Zn2       1.0  0.372847097327778  0.37280994119193156  0.9997489115550877  1.0000
  Zn  Zn3       1.0  0.6944812206269122  0.49594294504250774  0.16435819852529218  1.0000
  Zn  Zn4       1.0  0.33141906836780805  0.5301914169856589  0.8354394104933578  1.0000
  H   H1        1.0  0.9413835938219107  0.7253194554666039  0.041017796668775426  1.0000
  H   H2        1.0  0.9027379487564178  0.940165878462679  0.7225065665441052  1.0000
  H   H3        1.0  0.21719207982481956  0.18106779493679437  0.2772028300412046  1.0000
  H   H4        1.0  0.2235280381433357  0.3552834308127045  0.4392213777588552  1.0000
  H   H5        1.0  0.9165229297010385  0.7846626687564042  0.5615679971919435  1.0000
  H   H6        1.0  0.20208569953648245  0.21355839896470033  0.44084447582449837  1.0000
  H   H7        1.0  0.7729088611577668  0.7614110801081823  0.5594296240976606  1.0000
  H   H8        1.0  0.6839499196127864  0.8999749471283635  0.9586675445758035  1.0000
  H   H9        1.0  0.3527966744660634  0.9723171240294093  0.8079443656984185  1.0000
  H   H10       1.0  0.16414489745469754  0.5445780070895694  0.19223161560252328  1.0000
  H   H11       1.0  0.6564110854414766  0.07925728719125429  0.9511023623503052  1.0000
  H   H12       1.0  0.12900722119611163  0.7058131425634002  0.049492879673245206  1.0000
  H   H13       1.0  0.10428830082533859  0.14819184280325723  0.821087791495721  1.0000
  H   H14       1.0  0.32692012974935386  0.2827924965259569  0.17847647653714924  1.0000
  H   H15       1.0  0.2988186412696765  0.3483119033151071  0.6429190428077833  1.0000
  H   H16       1.0  0.7057205752424167  0.6561435233826813  0.3574663148224531  1.0000
  H   H17       1.0  0.3300559616759246  0.15776419174807202  0.8349947399418414  1.0000
  H   H18       1.0  0.32240874637036404  0.4942946520397697  0.16487855188412237  1.0000
  H   H19       1.0  0.7259295356651879  0.5095153882559702  0.8650690369497912  1.0000
  H   H20       1.0  0.644710202722685  0.8612322376096984  0.1347918539253358  1.0000
  H   H21       1.0  0.03695248708804411  0.350429229146755  0.5964239350575866  1.0000
  H   H22       1.0  0.7531315015419935  0.44017919905514463  0.4031770509423537  1.0000
  H   H23       1.0  0.9913570289990407  0.5073240580904327  0.24950315693273953  1.0000
  H   H24       1.0  0.742720464123899  0.399001990381855  0.5570403135633769  1.0000
  H   H25       1.0  0.2581300711217341  0.7422309898702935  0.7507208788701621  1.0000
  H   H26       1.0  0.7324969483593622  0.41892319235287806  0.7164516264189587  1.0000
  H   H27       1.0  0.703192977551396  0.016389807941401192  0.2833273043688251  1.0000
  H   H28       1.0  0.8426443089700655  0.1859683571373483  0.4424995514903927  1.0000
  C   C1        1.0  0.9361964690352951  0.6728387400653731  0.09187946649358739  1.0000
  C   C2        1.0  0.2515130155533499  0.6140260663031327  0.0691947154033557  1.0000
  C   C3        1.0  0.5452135512210818  0.18233821937500505  0.9312072341666778  1.0000
  C   C4        1.0  0.5152258776080816  0.40518809496828834  0.7146223364592431  1.0000
  C   C5        1.0  0.6909728245159101  0.800885451463863  0.2855098883445563  1.0000
  C   C6        1.0  0.4083471824062813  0.32448941692783256  0.5082408374607043  1.0000
  C   C7        1.0  0.8166987185431298  0.900393402983113  0.4919433219874992  1.0000
  C   C8        1.0  0.5807394364456118  0.844117746447509  0.9078515419612005  1.0000
  C   C9        1.0  0.5201114876608415  0.36752349031982595  0.62068952846235  1.0000
  C   C10       1.0  0.7473177410474324  0.8997075911725078  0.37939230806591717  1.0000
  C   C11       1.0  0.6396916893774931  0.3884714498086411  0.6320202430513149  1.0000
  C   C12       1.0  0.7569910761994905  0.007965157810289725  0.36784014036783935  1.0000
  C   C13       1.0  0.6457725393863358  0.37736413495006377  0.5400176775330936  1.0000
  C   C14       1.0  0.8378700931254528  0.10602774223726659  0.45969291547637425  1.0000
  C   C15       1.0  0.5327754457707601  0.34355766613899874  0.42692847176790855  1.0000
  C   C16       1.0  0.9169210774081693  0.10611219729608491  0.5728824563659741  1.0000
  C   C17       1.0  0.41464585827760214  0.3126085364910623  0.4165718647805933  1.0000
  C   C18       1.0  0.8962950390193144  0.9983253116897401  0.5834677175044691  1.0000
  C   C19       1.0  0.2662232795548505  0.26828339728397305  0.33215839713511025  1.0000
  C   C20       1.0  0.9357235244015956  0.9341922946582529  0.6680474922447531  1.0000
  C   C21       1.0  0.10401192711911031  0.21349816335229832  0.7812962693728239  1.0000
  C   C22       1.0  0.43189305680023443  0.32230750028603694  0.21835436783559456  1.0000
  C   C23       1.0  0.2590261219892868  0.28811585378916504  0.43496526013053244  1.0000
  C   C24       1.0  0.01941995406181034  0.20674233397424768  0.6672544852815181  1.0000
  C   C25       1.0  0.8533655319683362  0.8243165246156111  0.5654569517176072  1.0000
  C   C26       1.0  0.4535484540992843  0.9755132215744735  0.8500076475839722  1.0000
  C   C27       1.0  0.12552456095224337  0.6034869507437506  0.1502235221602818  1.0000
  C   C28       1.0  0.5556260682622567  0.07616408717009923  0.9081856908430909  1.0000
  C   C29       1.0  0.16844764190558698  0.6476202076986439  0.09226417872885423  1.0000
  C   C30       1.0  0.5389215090222806  0.351726594083651  0.3324097227966761  1.0000
  C   C31       1.0  0.6492938755071975  0.283302992812594  0.012229905978713766  1.0000
  C   C32       1.0  0.27146701551105  0.6373625936625019  0.9881053811310994  1.0000
  C   C33       1.0  0.40229529917059653  0.39707845502625355  0.7102907131880158  1.0000
  C   C34       1.0  0.6870797811961256  0.692226693232378  0.2899319499350313  1.0000
  C   C35       1.0  0.4341995401178809  0.20964176630443643  0.8969156034385791  1.0000
  C   C36       1.0  0.31259165105705483  0.5368304098932271  0.10306275502796328  1.0000
  C   C37       1.0  0.6202877639021198  0.4783826156345655  0.8238945868169837  1.0000
  C   C38       1.0  0.6548019785901077  0.7967172296165758  0.17609200490655044  1.0000
  C   C39       1.0  0.06988420113614786  0.3162586689227282  0.6665644891198143  1.0000
  C   C40       1.0  0.6490103515122528  0.40290815448201306  0.3330513205394468  1.0000
  C   C41       1.0  0.9615293228825552  0.5624253971940476  0.1987074116553202  1.0000
  C   C42       1.0  0.36385589506769395  0.7630352243030317  0.8013063035489979  1.0000
  C   C43       1.0  0.019127308675393917  0.6171891049385394  0.1507539139882753  1.0000
  C   C44       1.0  0.46647108710167373  0.8684599574798426  0.8492641674422856  1.0000
  N   N1        1.0  0.8376097888928841  0.6519108114491203  0.1033572811654437  1.0000
  N   N2        1.0  0.3351238343720413  0.5800025371689516  0.972416262922245  1.0000
  N   N3        1.0  0.607469705916131  0.3626897505875348  0.02746801254360068  1.0000
  N   N4        1.0  0.43857091407373633  0.46242197060232126  0.8080666769663554  1.0000
  N   N5        1.0  0.6544459117892744  0.6306912632035876  0.19206916832354887  1.0000
  N   N6        1.0  0.47256699301194544  0.3161691391280429  0.9547680926671307  1.0000
  N   N7        1.0  0.36101503540982105  0.517370452000705  0.044923006314249496  1.0000
  N   N8        1.0  0.5482984349641814  0.7340124941327703  0.8961749367684251  1.0000
  N   N9        1.0  0.5723905918508553  0.5122902826695822  0.8777254850666766  1.0000
  N   N10       1.0  0.6346695540338773  0.6949266557253536  0.12226811193099969  1.0000
  N   N11       1.0  0.17545714312547056  0.38189119281691586  0.7711784981031757  1.0000
  N   N12       1.0  0.6102167987681426  0.4039141498316567  0.22838963782771052  1.0000
  N   N13       1.0  0.8533489396102497  0.5828768731192255  0.17014960903961196  1.0000
  N   N14       1.0  0.41268539400559956  0.6832088831307814  0.8295623882023407  1.0000
  N   N15       1.0  0.19641986496347402  0.3175529483308068  0.8425441399971023  1.0000
  N   N16       1.0  0.474763736944631  0.35349418195546894  0.157038738998601  1.0000
  F   F1        1.0  0.21504167736971896  0.3328297804194308  0.2595416170879617  1.0000
  F   F2        1.0  0.07257984358616211  0.9554633579655912  0.7413150670875696  1.0000
  F   F3        1.0  0.7794148973336731  0.3037932042750811  0.07432078201369309  1.0000
  F   F4        1.0  0.23039720446235654  0.706007223795318  0.9264499317886605  1.0000
