data_image0
_chemical_formula_structural       Tm2H38C60N10O14
_chemical_formula_sum              "Tm2 H38 C60 N10 O14"
_cell_length_a       10.3980854628493
_cell_length_b       11.194697696637938
_cell_length_c       13.336749775688487
_cell_angle_alpha    109.86749702579607
_cell_angle_beta     101.51238571518032
_cell_angle_gamma    107.8732676296982

_space_group_name_H-M_alt    "P 1"
_space_group_IT_number       1

loop_
  _space_group_symop_operation_xyz
  'x, y, z'

loop_
  _atom_site_type_symbol
  _atom_site_label
  _atom_site_symmetry_multiplicity
  _atom_site_fract_x
  _atom_site_fract_y
  _atom_site_fract_z
  _atom_site_occupancy
  Tm  Tm1       1.0  0.4994434248406563  0.9151936827852225  0.6242495595909149  1.0000
  Tm  Tm2       1.0  0.5005563138946769  0.0848067855911623  0.37575086863621726  1.0000
  H   H1        1.0  0.5883249800404472  0.4391064988559778  0.013525266376532855  1.0000
  H   H2        1.0  0.4116738876190098  0.560891890227829  0.9864744329471055  1.0000
  H   H3        1.0  0.7319043240990483  0.6800789155948125  0.04091593139189348  1.0000
  H   H4        1.0  0.2680941079108408  0.3199184336923793  0.9590841532276004  1.0000
  H   H5        1.0  0.037594450452083115  0.5465075695060834  0.6117543960452637  1.0000
  H   H6        1.0  0.962406270436233  0.4534929004040438  0.3882454356753089  1.0000
  H   H7        1.0  0.969727793146312  0.691932706854594  0.5220139338362274  1.0000
  H   H8        1.0  0.030271945700647535  0.3080677616721276  0.4779857446432916  1.0000
  H   H9        1.0  0.7601145021527033  0.7518738080383757  0.5504916508430002  1.0000
  H   H10       1.0  0.23988425465289961  0.24812665910494053  0.44950787439546513  1.0000
  H   H11       1.0  0.925373102037881  0.30880851483379973  0.709014727244565  1.0000
  H   H12       1.0  0.07462761885043534  0.6911919550763274  0.2909851044760076  1.0000
  H   H13       1.0  0.19322405838191514  0.4387613357742382  0.7898797605413537  1.0000
  H   H14       1.0  0.8067756803534109  0.5612391326021466  0.21012066768577853  1.0000
  H   H15       1.0  0.3434297784888756  0.32433695707916854  0.7054401490100661  1.0000
  H   H16       1.0  0.6565699602464506  0.6756635112972164  0.29456027921706623  1.0000
  H   H17       1.0  0.8493295778137337  0.05417976370509341  0.770613228642212  1.0000
  H   H18       1.0  0.15067114307458232  0.9458207062050262  0.22938660307836053  1.0000
  H   H19       1.0  0.03558210158871589  0.21376217275613393  0.9658226117975633  1.0000
  H   H20       1.0  0.9644186192996074  0.786238297153986  0.03417721992300951  1.0000
  H   H21       1.0  0.9548880846560691  0.3134368473497632  0.12639897363490604  1.0000
  H   H22       1.0  0.045112636120620754  0.6865636224100272  0.8736016078332799  1.0000
  H   H23       1.0  0.7471167557138116  0.3198277409415908  0.19702638439638062  1.0000
  H   H24       1.0  0.25288352952494353  0.6801716891719137  0.8029738326200546  1.0000
  H   H25       1.0  0.48665543771245723  0.251208109157453  0.15614496508777626  1.0000
  H   H26       1.0  0.5133448476379243  0.7487913211063885  0.8438545021810528  1.0000
  H   H27       1.0  0.23558145204803785  0.11771711957762682  0.01572938670691571  1.0000
  H   H28       1.0  0.7644192688402782  0.8822833503324928  0.9842704450136569  1.0000
  H   H29       1.0  0.07334263901216097  0.9608682868604324  0.812331580128664  1.0000
  H   H30       1.0  0.9266566642968639  0.039131142020004006  0.18766773389910446  1.0000
  H   H31       1.0  0.1856633265904152  0.8900989156479825  0.6648905581550368  1.0000
  H   H32       1.0  0.8143359767186097  0.1099005132324464  0.3351087558727387  1.0000
  H   H33       1.0  0.5099146641527099  0.2428614912458116  0.819336242239203  1.0000
  H   H34       1.0  0.49008420361837324  0.7571368979883317  0.1806627073368149  1.0000
  H   H35       1.0  0.3615117773754193  0.6482907779667926  0.6268055280794728  1.0000
  H   H36       1.0  0.6384885079749623  0.3517086522970488  0.3731939391893564  1.0000
  H   H37       1.0  0.2558867595654418  0.6585999418547174  0.5298360182414897  1.0000
  H   H38       1.0  0.7441134147078188  0.34140156616795286  0.470164774437386  1.0000
  C   C1        1.0  0.5727284816546501  0.2510698001124396  0.6405980731681995  1.0000
  C   C2        1.0  0.4272718035841052  0.7489296300010579  0.3594021438482359  1.0000
  C   C3        1.0  0.6196204398745309  0.37408317693623166  0.7523638594149277  1.0000
  C   C4        1.0  0.380379956329712  0.6259141752681006  0.24763578193906727  1.0000
  C   C5        1.0  0.6184131090615494  0.4573365439282355  0.9446751371347093  1.0000
  C   C6        1.0  0.38158532305997284  0.5426608055092856  0.05532419773717124  1.0000
  C   C7        1.0  0.698291851659782  0.5908805136189984  0.9594081444195556  1.0000
  C   C8        1.0  0.3017074515376094  0.409118915111101  0.04059191935582624  1.0000
  C   C9        1.0  0.7011102056144196  0.5125187124725628  0.7758868410680579  1.0000
  C   C10       1.0  0.2988900796243358  0.4874807176409349  0.22411337594837738  1.0000
  C   C11       1.0  0.7629281351534302  0.5543393354066382  0.6949325883928524  1.0000
  C   C12       1.0  0.23707258562325959  0.4456611343531521  0.3050679930753334  1.0000
  C   C13       1.0  0.9460081162619076  0.5725308359386859  0.620226147791975  1.0000
  C   C14       1.0  0.05399162236179223  0.42746963228736945  0.3797750301827706  1.0000
  C   C15       1.0  0.9087501791024906  0.654357152943618  0.5708096422906196  1.0000
  C   C16       1.0  0.09125054167419933  0.34564331681617233  0.4291909391775663  1.0000
  C   C17       1.0  0.7928165549168253  0.6867980905893276  0.5857375447106535  1.0000
  C   C18       1.0  0.20718274839219217  0.3132013382911012  0.4142617693171148  1.0000
  C   C19       1.0  0.7168585503806496  0.6350884243830278  0.6480586560479012  1.0000
  C   C20       1.0  0.2831421705076735  0.36491204552709894  0.3519411756726712  1.0000
  C   C21       1.0  0.5912606279325915  0.6697297497589931  0.662993549817074  1.0000
  C   C22       1.0  0.40873965730616396  0.3302696803545119  0.33700666719936123  1.0000
  C   C23       1.0  0.7714401851229056  0.05961517706619189  0.5430620089360476  1.0000
  C   C24       1.0  0.22855911807449306  0.9403842516639002  0.4569380548393342  1.0000
  C   C25       1.0  0.9334521864958487  0.12632664020281234  0.5888765609560809  1.0000
  C   C26       1.0  0.06654711681317589  0.8736727886776238  0.4111227530716946  1.0000
  C   C27       1.0  0.994640475506607  0.2603452648199678  0.6778007829381567  1.0000
  C   C28       1.0  0.005359263340352602  0.7396552037067466  0.32219889554136233  1.0000
  C   C29       1.0  0.14321031664648845  0.3333700998816057  0.7222254510492478  1.0000
  C   C30       1.0  0.856790404241835  0.6666303700285212  0.27777438067132476  1.0000
  C   C31       1.0  0.2268982793641712  0.26923620735738046  0.675834383510477  1.0000
  C   C32       1.0  0.7731034234538754  0.7307642637858153  0.32416635119876264  1.0000
  C   C33       1.0  0.026802084694814706  0.0697423530407733  0.5478021171914949  1.0000
  C   C34       1.0  0.9731982005439405  0.9302570770727313  0.45219809982494047  1.0000
  C   C35       1.0  0.8190668796346046  0.0990113444235448  0.8438106482041406  1.0000
  C   C36       1.0  0.18093340571577715  0.9009880858402969  0.15618881906468846  1.0000
  C   C37       1.0  0.9218736921651497  0.18774936379671203  0.9522334270204172  1.0000
  C   C38       1.0  0.07812702861154014  0.8122511059630854  0.04776715444776877  1.0000
  C   C39       1.0  0.8772728143973083  0.24250715207956833  0.041635158044861995  1.0000
  C   C40       1.0  0.12272747095307322  0.7574922781842731  0.9583643092239673  1.0000
  C   C41       1.0  0.7289606068936861  0.20523195711442105  0.022543878506766653  1.0000
  C   C42       1.0  0.2710401139946299  0.7947685127956987  0.9774559532138059  1.0000
  C   C43       1.0  0.6330279079424342  0.11464491370553279  0.9100978240009356  1.0000
  C   C44       1.0  0.36697281305750823  0.885355556354931  0.08990125797202371  1.0000
  C   C45       1.0  0.6725767892847186  0.2532888186782927  0.11058099900286321  1.0000
  C   C46       1.0  0.32742294956224083  0.746711649848429  0.8894186794766558  1.0000
  C   C47       1.0  0.5280664089693516  0.2142387575410397  0.08817835181072559  1.0000
  C   C48       1.0  0.4719343119189645  0.7857617123690801  0.911821479909847  1.0000
  C   C49       1.0  0.4285845947089797  0.12411526823687073  0.975561869616094  1.0000
  C   C50       1.0  0.5714171083323267  0.8758852032069984  0.02443736559791902  1.0000
  C   C51       1.0  0.48062486907026886  0.07396490145962532  0.8860998691323589  1.0000
  C   C52       1.0  0.5193748697766908  0.9260355670670962  0.11389980934716001  1.0000
  C   C53       1.0  0.27838472025353417  0.08175680578933249  0.9482314400606316  1.0000
  C   C54       1.0  0.721616000634782  0.9182436641207943  0.051768391659941085  1.0000
  C   C55       1.0  0.18980366712679608  0.9970023510155956  0.8369266107984574  1.0000
  C   C56       1.0  0.8101956361822217  0.002997077864833401  0.1630727032293109  1.0000
  C   C57       1.0  0.25142667603498137  0.9550796041905018  0.7536612354113432  1.0000
  C   C58       1.0  0.7485720807706143  0.04492086295281441  0.24633828982712205  1.0000
  C   C59       1.0  0.5771074345087398  0.34891370354317536  0.8387287792336625  1.0000
  C   C60       1.0  0.422891433150717  0.6510846855406314  0.1612709200899688  1.0000
  N   N1        1.0  0.7379476355232769  0.618966927972494  0.8773958584663436  1.0000
  N   N2        1.0  0.26205166767411464  0.38103250075760536  0.1226042053090382  1.0000
  N   N3        1.0  0.8756039427535852  0.523385513022987  0.6816517912945133  1.0000
  N   N4        1.0  0.1243967781347308  0.47661495688713973  0.31834804042605924  1.0000
  N   N5        1.0  0.17045476657774122  0.14100798728280492  0.5921704571394815  1.0000
  N   N6        1.0  0.8295459540873223  0.8589924823266488  0.4078308740763179  1.0000
  N   N7        1.0  0.6787436493938657  0.0649588720994174  0.8226017379533064  1.0000
  N   N8        1.0  0.32125707149445054  0.9350415978107095  0.1773980937672733  1.0000
  N   N9        1.0  0.3924024496353057  0.9915942247924935  0.7768702282501041  1.0000
  N   N10       1.0  0.6075978357150761  0.008405205471348204  0.22312923901872497  1.0000
  O   O1        1.0  0.5433806043587026  0.1335379215035886  0.6431485829601585  1.0000
  O   O2        1.0  0.45661869883868894  0.8664615072265109  0.35685148081522317  1.0000
  O   O3        1.0  0.5633418883549126  0.26950976396205567  0.5511933723053917  1.0000
  O   O4        1.0  0.43665839699546893  0.7304896663017787  0.44880609496343055  1.0000
  O   O5        1.0  0.47834868152326493  0.5793937846453974  0.6574183968984502  1.0000
  O   O6        1.0  0.521651603603857  0.4206056453177709  0.34258256986559144  1.0000
  O   O7        1.0  0.6099385473067258  0.7945284366621909  0.680120757055498  1.0000
  O   O8        1.0  0.3900607557790394  0.20547099191757212  0.3198800564674969  1.0000
  O   O9        1.0  0.714956181275788  0.10083989150083991  0.4753281352779909  1.0000
  O   O10       1.0  0.28504312203322973  0.8991595373795961  0.5246711787497775  1.0000
  O   O11       1.0  0.7075803041023364  0.9845384187498  0.5855761388382421  1.0000
  O   O12       1.0  0.292420963289409  0.015461012897439704  0.4144234816716407  1.0000
  O   O13       1.0  0.3100217024533692  0.7067685022713095  0.610915255710957  1.0000
  O   O14       1.0  0.6899795648267498  0.2932309292256008  0.38908511454653194  1.0000
