data_image0
_chemical_formula_structural       Th2H8C8O20
_chemical_formula_sum              "Th2 H8 C8 O20"
_cell_length_a       6.640736651037939
_cell_length_b       7.748697226327184
_cell_length_c       10.411028547014288
_cell_angle_alpha    71.43605264984998
_cell_angle_beta     71.41247031003437
_cell_angle_gamma    64.68399316498062

_space_group_name_H-M_alt    "P 1"
_space_group_IT_number       1

loop_
  _space_group_symop_operation_xyz
  'x, y, z'

loop_
  _atom_site_type_symbol
  _atom_site_label
  _atom_site_symmetry_multiplicity
  _atom_site_fract_x
  _atom_site_fract_y
  _atom_site_fract_z
  _atom_site_occupancy
  Th  Th1       1.0  0.7399137173311063  0.24992879123940528  0.7500586228270548  1.0000
  Th  Th2       1.0  0.2600948489722441  0.7500693561842696  0.249941213857312  1.0000
  H   H1        1.0  0.5253614172264778  0.9261764667893362  0.8479411681651141  1.0000
  H   H2        1.0  0.299905752842719  0.5737578121935698  0.6521243536850888  1.0000
  H   H3        1.0  0.4746355480575346  0.07380408035904652  0.15206528201360206  1.0000
  H   H4        1.0  0.7000990590183207  0.42624467005595085  0.34787805867231464  1.0000
  H   H5        1.0  0.3979552083476464  0.0828506741168553  0.7257681574865771  1.0000
  H   H6        1.0  0.20694116295224788  0.4169398994797504  0.7742715492601275  1.0000
  H   H7        1.0  0.6020401678039493  0.9171461258754691  0.27422372333621325  1.0000
  H   H8        1.0  0.7930701343015163  0.5830583295699795  0.22572281824982096  1.0000
  C   C1        1.0  0.4584320816064819  0.4188636815467603  0.0500565602578788  1.0000
  C   C2        1.0  0.927482114836572  0.0811360473322154  0.44992446758195836  1.0000
  C   C3        1.0  0.5415641742730345  0.5811241601752073  0.9499496038829773  1.0000
  C   C4        1.0  0.07252774000317436  0.9188490442335464  0.5500708217910243  1.0000
  C   C5        1.0  0.9495541888886125  0.9213082450418212  0.01220569917823862  1.0000
  C   C6        1.0  0.8833080679809204  0.5785044377493733  0.4877547010701519  1.0000
  C   C7        1.0  0.05045383496243976  0.07868831608419673  0.9878028436601198  1.0000
  C   C8        1.0  0.11669294938700182  0.4215025097334929  0.5122414090671938  1.0000
  O   O1        1.0  0.8313040561915628  0.9451380840200019  0.9305393385754  1.0000
  O   O2        1.0  0.7072253475344116  0.554882718456753  0.5694789252195915  1.0000
  O   O3        1.0  0.16869216300835183  0.054857105283936405  0.06946295276070907  1.0000
  O   O4        1.0  0.2927733121335409  0.44513740098269494  0.4305137955398236  1.0000
  O   O5        1.0  0.5251602564850089  0.04212100309410971  0.7704741285504254  1.0000
  O   O6        1.0  0.33820383844017254  0.45770913201247515  0.7295459467462563  1.0000
  O   O7        1.0  0.4748528028910217  0.9578976723220051  0.22951808985485658  1.0000
  O   O8        1.0  0.6618014256513762  0.5422963394164596  0.27045151796312433  1.0000
  O   O9        1.0  0.5091207080373509  0.26861395953751105  0.0035325566897483514  1.0000
  O   O10       1.0  0.7813662010372585  0.23120836098998146  0.4965524961246857  1.0000
  O   O11       1.0  0.4908667837295366  0.7313810429376062  0.9964821738249581  1.0000
  O   O12       1.0  0.21863561595694866  0.7687898890375352  0.5034401415445585  1.0000
  O   O13       1.0  0.9933035760292132  0.7799279336917451  0.11526496058559121  1.0000
  O   O14       1.0  0.8887026396482726  0.7196948068970315  0.3845001046988229  1.0000
  O   O15       1.0  0.006694707017082736  0.22007171499059547  0.8847316136378325  1.0000
  O   O16       1.0  0.11127687006491986  0.2803165123263156  0.615495503007935  1.0000
  O   O17       1.0  0.3501852316139067  0.4441759500448583  0.17015184579187087  1.0000
  O   O18       1.0  0.9648033387500875  0.055918531933130615  0.3297557534906159  1.0000
  O   O19       1.0  0.6498095006218848  0.5558118050101015  0.8298601691011881  1.0000
  O   O20       1.0  0.035191099632108154  0.9440868544568134  0.67024715491182  1.0000
