data_image0
_chemical_formula_structural       Cd6H36C30S6N12Cl12O6
_chemical_formula_sum              "Cd6 H36 C30 S6 N12 Cl12 O6"
_cell_length_a       9.460033449116352
_cell_length_b       13.82310877349131
_cell_length_c       13.8035
_cell_angle_alpha    114.8043799790895
_cell_angle_beta     103.47988863453357
_cell_angle_gamma    103.04966969457539

_space_group_name_H-M_alt    "P 1"
_space_group_IT_number       1

loop_
  _space_group_symop_operation_xyz
  'x, y, z'

loop_
  _atom_site_type_symbol
  _atom_site_label
  _atom_site_symmetry_multiplicity
  _atom_site_fract_x
  _atom_site_fract_y
  _atom_site_fract_z
  _atom_site_occupancy
  Cd  Cd1       1.0  0.6541373003267879  0.2416021401222679  0.6444646687579265  1.0000
  Cd  Cd2       1.0  0.4129714379360436  0.4032652676911042  0.7583254273348319  1.0000
  Cd  Cd3       1.0  0.009568769649789003  0.3551505890003241  0.5976333080177199  1.0000
  Cd  Cd4       1.0  0.9124656311233605  0.758316493982413  0.4027920466635636  1.0000
  Cd  Cd5       1.0  0.5096708061637969  0.5966970517425381  0.3550890928718431  1.0000
  Cd  Cd6       1.0  0.1544520491445667  0.6448417105610461  0.24245438434131472  1.0000
  H   H1        1.0  0.3184350064739689  0.1218512311064259  0.5509660838008017  1.0000
  H   H2        1.0  0.19757193131312786  0.430042661195806  0.8782400562954537  1.0000
  H   H3        1.0  0.767122896268404  0.4485378302740061  0.5700336600218421  1.0000
  H   H4        1.0  0.6965840410405518  0.8780879608001229  0.42915417203128203  1.0000
  H   H5        1.0  0.2675332100819077  0.5700764114770607  0.44831540776264234  1.0000
  H   H6        1.0  0.8186255370884296  0.5514716007889149  0.12142819645473671  1.0000
  H   H7        1.0  0.3760299781541789  0.0380807582303362  0.4530636839434124  1.0000
  H   H8        1.0  0.33977325840022127  0.41621582629120013  0.9627074240646041  1.0000
  H   H9        1.0  0.9230879759091831  0.546239640214182  0.5844525764784976  1.0000
  H   H10       1.0  0.8379119745198409  0.9618490113503526  0.4149860520706028  1.0000
  H   H11       1.0  0.423526486554806  0.5838552781773174  0.5465779431585887  1.0000
  H   H12       1.0  0.8769071438070597  0.453760368522886  0.03815182739023011  1.0000
  H   H13       1.0  0.29169551543807876  0.9739849670515357  0.5864039004407218  1.0000
  H   H14       1.0  0.31863973932685496  0.612916300839224  0.026597083000758793  1.0000
  H   H15       1.0  0.7047816755899632  0.4131021758836795  0.38656369235132365  1.0000
  H   H16       1.0  0.8177573506152668  0.025968786631331404  0.6124577802155714  1.0000
  H   H17       1.0  0.20561282996793298  0.3871967758080999  0.4137589012427156  1.0000
  H   H18       1.0  0.7918010219182461  0.5869021157287762  0.9733898084043346  1.0000
  H   H19       1.0  0.6456060857866817  0.791443678538279  0.8328783552450149  1.0000
  H   H20       1.0  0.8526312101180337  0.0400500243340218  0.20755549002380744  1.0000
  H   H21       1.0  0.8124075313578984  0.1675572206786526  0.9596426928794987  1.0000
  H   H22       1.0  0.35419905712028305  0.208341329854278  0.04140690216785707  1.0000
  H   H23       1.0  0.3127239335520641  0.9600621957382246  0.1675392545908423  1.0000
  H   H24       1.0  0.14465832583996982  0.8322980268702835  0.7918193564422326  1.0000
  H   H25       1.0  0.34071240549929627  0.7187461516919171  0.7258698008636131  1.0000
  H   H26       1.0  0.6220413738919602  0.006966525107124301  0.2811220149670746  1.0000
  H   H27       1.0  0.6140058288487535  0.2739832477854378  0.9919348171114067  1.0000
  H   H28       1.0  0.1221982210141732  0.2812341558183604  0.007124320449825884  1.0000
  H   H29       1.0  0.11515897703593231  0.9930112126779208  0.2741846443328058  1.0000
  H   H30       1.0  0.839856853704795  0.7261015618843274  0.71803729854075  1.0000
  H   H31       1.0  0.26949640838292777  0.8309737618001238  0.6193985871089112  1.0000
  H   H32       1.0  0.43954381242846097  0.7889707462888893  0.16965428058156815  1.0000
  H   H33       1.0  0.6496650323700521  0.3804932192498356  0.21030810606544043  1.0000
  H   H34       1.0  0.9389236759415737  0.1691847133263238  0.788404082204636  1.0000
  H   H35       1.0  0.15030845018893046  0.2109487443908691  0.38062860512032876  1.0000
  H   H36       1.0  0.7691938639466045  0.619716650381271  0.8300052900440493  1.0000
  C   C1        1.0  0.5847939998887527  0.8232508808993658  0.7831396478058679  1.0000
  C   C2        1.0  0.7605219499210847  0.9589349429359402  0.17615479454607194  1.0000
  C   C3        1.0  0.8012900744326289  0.2171486348034293  0.04080248703355237  1.0000
  C   C4        1.0  0.2616527125054091  0.1766429125280595  0.959872319310044  1.0000
  C   C5        1.0  0.30162504572788146  0.0411455838584303  0.21723418628471344  1.0000
  C   C6        1.0  0.08403673299392976  0.7827939834034296  0.823492519620288  1.0000
  C   C7        1.0  0.4256400323450861  0.7874691701776442  0.7271000006491875  1.0000
  C   C8        1.0  0.6380228070231624  0.9392919632535951  0.21241856050169622  1.0000
  C   C9        1.0  0.6979307740804047  0.2729073894878127  0.06002913660685747  1.0000
  C   C10       1.0  0.13840851969562354  0.21252655568403614  0.9396287483987751  1.0000
  C   C11       1.0  0.1986397736596786  0.060721750684713506  0.2730775401065415  1.0000
  C   C12       1.0  0.9249659615608152  0.7271722807314803  0.7871429179575032  1.0000
  C   C13       1.0  0.3880674784617  0.8485044273407993  0.6709254845268618  1.0000
  C   C14       1.0  0.5399348547582504  0.8224859593549638  0.15177311175127528  1.0000
  C   C15       1.0  0.7167297785232803  0.3290892922605977  0.17704431427613088  1.0000
  C   C16       1.0  0.03986373296860529  0.1515409798753851  0.8223976759723544  1.0000
  C   C17       1.0  0.2171655169618276  0.1774806429540732  0.3291986609627244  1.0000
  C   C18       1.0  0.8876748979695605  0.6710237843867263  0.8480322975280431  1.0000
  C   C19       1.0  0.5194760212411537  0.9309908941753805  0.6864834927523304  1.0000
  C   C20       1.0  0.5883941465473086  0.7552593775300167  0.06910263019016574  1.0000
  C   C21       1.0  0.8329913339969648  0.3137925745226156  0.24484158805764616  1.0000
  C   C22       1.0  0.0886760341146484  0.0689628595074865  0.7554509947045889  1.0000
  C   C23       1.0  0.33286043273863436  0.2447560495584469  0.31381874961952155  1.0000
  C   C24       1.0  0.019253378749269214  0.6862399840673987  0.931039600620764  1.0000
  C   C25       1.0  0.5326014858558282  0.0109872885219531  0.6431929706052629  1.0000
  C   C26       1.0  0.5217086391475831  0.632280037046236  0.9891670051451344  1.0000
  C   C27       1.0  0.8896094693477181  0.35703762389654514  0.36822005753180775  1.0000
  C   C28       1.0  0.0216938865804366  0.9889750309116893  0.6321769806384696  1.0000
  C   C29       1.0  0.3892883855530513  0.3677585175693281  0.35694736531723253  1.0000
  C   C30       1.0  0.03269754941283052  0.6430086398947168  0.011185520843952109  1.0000
  S   S1        1.0  0.6882988504735934  0.9308307146358461  0.7681283277766441  1.0000
  S   S2        1.0  0.7563236303592547  0.8362939496078567  0.06869115870119903  1.0000
  S   S3        1.0  0.9202464080646422  0.2324496354167991  0.164151715207268  1.0000
  S   S4        1.0  0.2575401547841735  0.0690330986638585  0.8372738478914387  1.0000
  S   S5        1.0  0.41991664609910356  0.1638328322407077  0.23243524709408803  1.0000
  S   S6        1.0  0.18781602133735478  0.7674929827900598  0.931538977829213  1.0000
  N   N1        1.0  0.40280104043226567  0.0866922504662  0.5397755515181188  1.0000
  N   N2        1.0  0.31722503757872283  0.4539094125864054  0.913608705032253  1.0000
  N   N3        1.0  0.8629314657359257  0.4597872307697415  0.5465454629645806  1.0000
  N   N4        1.0  0.8160994886961886  0.9132366625394113  0.45308887255330177  1.0000
  N   N5        1.0  0.3632779467412917  0.5461719707830426  0.45980087054671515  1.0000
  N   N6        1.0  0.9032039022331658  0.540217060842707  0.08670683892307804  1.0000
  N   N7        1.0  0.39867888725984807  0.0159134517939421  0.588920134332142  1.0000
  N   N8        1.0  0.3833687868562663  0.5735181301393482  0.9842849959269274  1.0000
  N   N9        1.0  0.8097566340686341  0.4109693039401492  0.42660202470518277  1.0000
  N   N10       1.0  0.8827960637767801  0.984032592713227  0.5730301527627546  1.0000
  N   N11       1.0  0.30977836597955377  0.4265761018562628  0.41086957742265184  1.0000
  N   N12       1.0  0.8988935639521003  0.5890435534230818  0.01558605335394957  1.0000
  Cl  Cl1       1.0  0.5696522307653709  0.2973309146789376  0.8230093947446451  1.0000
  Cl  Cl2       1.0  0.2713704504689288  0.5258779940416289  0.7024495860721062  1.0000
  Cl  Cl3       1.0  0.7453366292904917  0.1768330721953149  0.4741686197671556  1.0000
  Cl  Cl4       1.0  0.7723202301788561  0.7025808668251231  0.5256528654472988  1.0000
  Cl  Cl5       1.0  0.2454447858792363  0.4740808990917103  0.1766223236542572  1.0000
  Cl  Cl6       1.0  0.06850094182990323  0.82313781298911  0.29731426391580135  1.0000
  Cl  Cl7       1.0  0.5643358742288171  0.3997250428948789  0.6201463083400043  1.0000
  Cl  Cl8       1.0  0.16509025148002368  0.2207393975292433  0.6008889233595838  1.0000
  Cl  Cl9       1.0  0.9443446282086824  0.3800178200817044  0.7797450105228095  1.0000
  Cl  Cl10      1.0  0.6645582625629274  0.6002115792864373  0.22039532296216174  1.0000
  Cl  Cl11      1.0  0.4443554301352961  0.779234057380414  0.380148466811356  1.0000
  Cl  Cl12      1.0  0.06430274605131808  0.6199462125021  0.39969595512156536  1.0000
  O   O1        1.0  0.665139855644611  0.0727797580538194  0.6562208299100689  1.0000
  O   O2        1.0  0.592196680548021  0.5833833053094892  0.9272712293119838  1.0000
  O   O3        1.0  0.009498040977028735  0.34419756348147973  0.4177489626996618  1.0000
  O   O4        1.0  0.09235638860559447  0.9271611470028844  0.5833508592247085  1.0000
  O   O5        1.0  0.5087208078105759  0.4166072811017187  0.34395627308818183  1.0000
  O   O6        1.0  0.16542524204519538  0.6558743975621155  0.07356296793452086  1.0000
