data_image0
_chemical_formula_structural       Cd2H44C52N4O14
_chemical_formula_sum              "Cd2 H44 C52 N4 O14"
_cell_length_a       6.763616535
_cell_length_b       11.852501989812712
_cell_length_c       15.883
_cell_angle_alpha    111.56424455746179
_cell_angle_beta     90.0
_cell_angle_gamma    90.0

_space_group_name_H-M_alt    "P 1"
_space_group_IT_number       1

loop_
  _space_group_symop_operation_xyz
  'x, y, z'

loop_
  _atom_site_type_symbol
  _atom_site_label
  _atom_site_symmetry_multiplicity
  _atom_site_fract_x
  _atom_site_fract_y
  _atom_site_fract_z
  _atom_site_occupancy
  Cd  Cd1       1.0  0.6410180082747701  0.2499995836621309  0.7499998700685919  1.0000
  Cd  Cd2       1.0  0.3589825040251214  0.7499996581888126  0.2500004886332192  1.0000
  H   H1        1.0  0.6913180213283638  0.3182701941338451  0.9670091603499954  1.0000
  H   H2        1.0  0.6913180213283638  0.18172897319042391  0.5329899501832074  1.0000
  H   H3        1.0  0.3086810124725688  0.6817299549195113  0.032991447175284294  1.0000
  H   H4        1.0  0.3086824909715276  0.8182702686605197  0.46700977891462264  1.0000
  H   H5        1.0  0.7581121687585439  0.5015885859537903  0.10819114066445934  1.0000
  H   H6        1.0  0.7581136472575027  0.998409823221415  0.391808328570555  1.0000
  H   H7        1.0  0.24188242954551245  0.49841247030197877  0.8918097156842819  1.0000
  H   H8        1.0  0.24188834354134775  0.0015894186295284  0.608191400527275  1.0000
  H   H9        1.0  0.8224194809411998  0.7003983661971489  0.0929237996747219  1.0000
  H   H10       1.0  0.8224194809411998  0.7996000429780638  0.4070762991642738  1.0000
  H   H11       1.0  0.1775810313586916  0.2996017828562145  0.907076807850558  1.0000
  H   H12       1.0  0.1775810313586916  0.2003991988728799  0.5929234299335563  1.0000
  H   H13       1.0  0.7295889668588347  0.521847323063362  0.8048922375218837  1.0000
  H   H14       1.0  0.7295889668588347  0.9781519933142562  0.695107480536599  1.0000
  H   H15       1.0  0.27041154544104984  0.4781519187875816  0.19510812117992773  1.0000
  H   H16       1.0  0.27041154544104984  0.0218472485366874  0.3048922485612309  1.0000
  H   H17       1.0  0.7757669248172407  0.7329651184589991  0.8634212599559419  1.0000
  H   H18       1.0  0.7757669248172407  0.767035105121039  0.6365793365299837  1.0000
  H   H19       1.0  0.22423358748264385  0.2670341233919444  0.1365790987458695  1.0000
  H   H20       1.0  0.22423358748264385  0.2329650439323174  0.3634212709952891  1.0000
  H   H21       1.0  0.7734752514321814  0.8219154079604323  0.9826478441157676  1.0000
  H   H22       1.0  0.7734752514321814  0.678083908417193  0.5173525035466895  1.0000
  H   H23       1.0  0.22652526086770317  0.1780838338905113  0.0173525145860438  1.0000
  H   H24       1.0  0.22652673936666196  0.3219171478385761  0.4826483528020518  1.0000
  H   H25       1.0  0.0405936673936509  0.047688909302714  0.8133915571167094  1.0000
  H   H26       1.0  0.04059514589260971  0.4523111652239677  0.6866084318439434  1.0000
  H   H27       1.0  0.9594053664072748  0.9523103325482296  0.1866075423771463  1.0000
  H   H28       1.0  0.9594053664072748  0.5476889838293886  0.31339091647338085  1.0000
  H   H29       1.0  0.8634005150618764  0.904522538182377  0.8629049121080499  1.0000
  H   H30       1.0  0.863401993560828  0.5954767781952413  0.637094805950433  1.0000
  H   H31       1.0  0.1365985187390564  0.09547579646615391  0.1370939385623373  1.0000
  H   H32       1.0  0.136601475736974  0.4045224636557023  0.3629042935434228  1.0000
  H   H33       1.0  0.4143448975112562  0.7876331359334898  0.941651526480932  1.0000
  H   H34       1.0  0.4143448975112562  0.7123661804441355  0.5583475619735693  1.0000
  H   H35       1.0  0.5856556147886351  0.2123661059174538  0.05834757301292371  1.0000
  H   H36       1.0  0.5856570932875941  0.2876330614068081  0.4416515375202863  1.0000
  H   H37       1.0  0.5924581884948594  0.9410755378518445  0.8956755805565209  1.0000
  H   H38       1.0  0.5924581884948594  0.5589237785257737  0.6043241375019619  1.0000
  H   H39       1.0  0.4075408453060661  0.0589237039990991  0.1043235189373348  1.0000
  H   H40       1.0  0.4075423238050249  0.4410754633251699  0.3956755915958751  1.0000
  H   H41       1.0  0.10451213435032261  0.1887307614225548  0.7552006171296028  1.0000
  H   H42       1.0  0.10451213435032261  0.3112684059017141  0.7447991230075743  1.0000
  H   H43       1.0  0.8954883779495617  0.8112684804283887  0.2447991119682271  1.0000
  H   H44       1.0  0.8954883779495617  0.6887308359492295  0.25520060609025563  1.0000
  C   C1        1.0  0.7144964494945327  0.407936266340009  0.964472738641696  1.0000
  C   C2        1.0  0.7144979279934915  0.09206290098425281  0.5355270014954883  1.0000
  C   C3        1.0  0.2854996273084822  0.5920638827133473  0.03552786888358382  1.0000
  C   C4        1.0  0.2855025843063999  0.9079363408666837  0.46447272760234176  1.0000
  C   C5        1.0  0.7541616195424936  0.5092707759965052  0.041965998716762015  1.0000
  C   C6        1.0  0.7541630980414524  0.9907285403811129  0.45803308973773943  1.0000
  C   C7        1.0  0.24583593575948026  0.4907293730568512  0.9580327199965808  1.0000
  C   C8        1.0  0.2458388927573907  0.0092716086722433  0.5419681473915148  1.0000
  C   C9        1.0  0.7886476077402307  0.6203849276771507  0.03326353004807467  1.0000
  C   C10       1.0  0.7886476077402307  0.8796143887004746  0.4667368176143825  1.0000
  C   C11       1.0  0.21134994756174316  0.3796161285786255  0.9667373263006667  1.0000
  C   C12       1.0  0.21135290455966074  0.120384853150469  0.5332629114834475  1.0000
  C   C13       1.0  0.7828415423317594  0.6267997559473457  0.9470414711344689  1.0000
  C   C14       1.0  0.7828400638328006  0.8731995604302725  0.5529582469240069  1.0000
  C   C15       1.0  0.2171574914691732  0.3732003931060106  0.052959136390804  1.0000
  C   C16       1.0  0.21715896996812492  0.1268005886230839  0.4470411013933102  1.0000
  C   C17       1.0  0.737939528974195  0.5215080293604828  0.8735267479037745  1.0000
  C   C18       1.0  0.737939528974195  0.9784912870171354  0.6264729701547083  1.0000
  C   C19       1.0  0.2620595048267305  0.47849121249046084  0.1264736107980369  1.0000
  C   C20       1.0  0.2620595048267305  0.0215088620362209  0.3735270077665902  1.0000
  C   C21       1.0  0.8333426312436532  0.7396112833447931  0.929969948136332  1.0000
  C   C22       1.0  0.8333411527447012  0.760388940235238  0.5700306483495936  1.0000
  C   C23       1.0  0.1666578810562314  0.2603879585061506  0.07003041056547941  1.0000
  C   C24       1.0  0.1666578810562314  0.2396112088181184  0.4299693295716978  1.0000
  C   C25       1.0  0.1251918992772971  0.9905570791248479  0.8405170700985991  1.0000
  C   C26       1.0  0.1251918992772971  0.5094422372527703  0.6594826479598765  1.0000
  C   C27       1.0  0.8748071345236286  0.0094412555236829  0.15948178057178805  1.0000
  C   C28       1.0  0.874810091521546  0.4905579118005861  0.3405173299614148  1.0000
  C   C29       1.0  0.0235584023984003  0.9084579822548022  0.8686074903228799  1.0000
  C   C30       1.0  0.023559880897359206  0.5915431485276486  0.631393354986514  1.0000
  C   C31       1.0  0.9764406314025322  0.0915421667985541  0.1313924875984185  1.0000
  C   C32       1.0  0.9764421099014913  0.408456093323295  0.3686057445073345  1.0000
  C   C33       1.0  0.129220808938129  0.833491310764522  0.9033812273133748  1.0000
  C   C34       1.0  0.129220808938129  0.6665098200179287  0.5966196179960122  1.0000
  C   C35       1.0  0.8707797033617624  0.1665088382888342  0.09661875060791661  1.0000
  C   C36       1.0  0.8707797033617624  0.3334912362378404  0.40338186795671044  1.0000
  C   C37       1.0  0.3354433221131714  0.8445401289660097  0.9124281439323241  1.0000
  C   C38       1.0  0.3354433221131714  0.6554600946140283  0.5875718229496273  1.0000
  C   C39       1.0  0.6645571901867129  0.1554600200873466  0.0875718339889744  1.0000
  C   C40       1.0  0.6645571901867129  0.3445409616417479  0.4124290333991212  1.0000
  C   C41       1.0  0.4336230454259465  0.928767522699566  0.8862348174601209  1.0000
  C   C42       1.0  0.4336230454259465  0.5712327008804721  0.6137651494218302  1.0000
  C   C43       1.0  0.5663774668739379  0.0712326263537904  0.11376453085720327  1.0000
  C   C44       1.0  0.5663789453728967  0.4287674481728843  0.3862348284994681  1.0000
  C   C45       1.0  0.3311778526190494  0.0019033106648081  0.8484947068193662  1.0000
  C   C46       1.0  0.3311778526190494  0.4980967638618665  0.6515052821412793  1.0000
  C   C47       1.0  0.6688211811818833  0.9980959311861354  0.15150439267448232  1.0000
  C   C48       1.0  0.6688241381797937  0.5019042923939026  0.3484949446034804  1.0000
  C   C49       1.0  0.4402422852613697  0.0878580177948365  0.8165250615262847  1.0000
  C   C50       1.0  0.4402422852613697  0.4121429639342509  0.6834758058618107  1.0000
  C   C51       1.0  0.5597567485395559  0.9121421312585198  0.18347491639501365  1.0000
  C   C52       1.0  0.5597597055374735  0.5878580923215182  0.3165244208829563  1.0000
  N   N1        1.0  0.7041055588169911  0.4144980614012965  0.8818513996314081  1.0000
  N   N2        1.0  0.7041070373159499  0.0855011059229724  0.6181477109017948  1.0000
  N   N3        1.0  0.2958919964849827  0.5855020876520598  0.11814920789387172  1.0000
  N   N4        1.0  0.2958934749839415  0.9144981359279711  0.3818513885920539  1.0000
  O   O1        1.0  0.0461543019750721  0.7475692629214025  0.9303840700044361  1.0000
  O   O2        1.0  0.0461543019750721  0.7524309606586357  0.5696165264814894  1.0000
  O   O3        1.0  0.9538462103248122  0.252430886131954  0.0696165375208366  1.0000
  O   O4        1.0  0.9538462103248122  0.2475700955971334  0.4303843298672589  1.0000
  O   O5        1.0  0.6227762881297068  0.1099656334243733  0.8363221921698453  1.0000
  O   O6        1.0  0.6227777666286656  0.39003444110230123  0.6636777967908074  1.0000
  O   O7        1.0  0.3772212671722671  0.8900345156289831  0.16367778575145314  1.0000
  O   O8        1.0  0.3772227456712259  0.609965707951055  0.33632281073447245  1.0000
  O   O9        1.0  0.34693125901763017  0.1360014355070192  0.7679276986417278  1.0000
  O   O10       1.0  0.34693125901763017  0.3639986390196555  0.732072290318925  1.0000
  O   O11       1.0  0.6530692532822615  0.8639987135463372  0.23207227927957066  1.0000
  O   O12       1.0  0.6530692532822615  0.6360015100337009  0.26792768760237357  1.0000
  O   O13       1.0  0.0108004348889352  0.2499995836621309  0.7499998700685919  1.0000
  O   O14       1.0  0.9892000774109563  0.7499996581888126  0.24999985902923785  1.0000
