data_image0
_chemical_formula_structural       Cd4H28C12N2Cl10O2
_chemical_formula_sum              "Cd4 H28 C12 N2 Cl10 O2"
_cell_length_a       6.6949701147142555
_cell_length_b       9.607514808189723
_cell_length_c       11.383420374177307
_cell_angle_alpha    76.05373815218633
_cell_angle_beta     90.25431072629428
_cell_angle_gamma    89.36180982461285

_space_group_name_H-M_alt    "P 1"
_space_group_IT_number       1

loop_
  _space_group_symop_operation_xyz
  'x, y, z'

loop_
  _atom_site_type_symbol
  _atom_site_label
  _atom_site_symmetry_multiplicity
  _atom_site_fract_x
  _atom_site_fract_y
  _atom_site_fract_z
  _atom_site_occupancy
  Cd  Cd1       1.0  0.7432597070372822  0.23311305421005815  0.7593468465971327  1.0000
  Cd  Cd2       1.0  0.2567382198633794  0.7668844191142197  0.24065501236831474  1.0000
  Cd  Cd3       1.0  0.24559437504769477  0.0758005547841378  0.9177923287453283  1.0000
  Cd  Cd4       1.0  0.7544065030844462  0.9241969099683304  0.08220776166762532  1.0000
  H   H1        1.0  0.7049220152738371  0.48698682020675227  0.8861960668603359  1.0000
  H   H2        1.0  0.2950727770158466  0.5130138777371227  0.1137998781361347  1.0000
  H   H3        1.0  0.8160923681790209  0.6411759515283393  0.914850519841643  1.0000
  H   H4        1.0  0.18390252235061408  0.35882260212020606  0.08514937561780303  1.0000
  H   H5        1.0  0.6513371264144181  0.6157767658955535  0.6668142539049526  1.0000
  H   H6        1.0  0.34866359288509585  0.38422927860711537  0.33318145403173116  1.0000
  H   H7        1.0  0.5427712241313712  0.7136378853121457  0.7661624259075169  1.0000
  H   H8        1.0  0.4572295442881184  0.286367087042855  0.23383525726065102  1.0000
  H   H9        1.0  0.0827928621132727  0.8529042621729059  0.5961021228337415  1.0000
  H   H10       1.0  0.9172124690669179  0.14709104463609177  0.40389575155940355  1.0000
  H   H11       1.0  0.9682460624912324  0.6985664026748777  0.5661704891554394  1.0000
  H   H12       1.0  0.03174885423922551  0.30143000588791574  0.43382984311293177  1.0000
  H   H13       1.0  0.1648979922246951  0.7252777352048766  0.8057794145230588  1.0000
  H   H14       1.0  0.835107356965288  0.2747175718017302  0.19421933828358823  1.0000
  H   H15       1.0  0.2553972804035212  0.6243454822303747  0.7047824291542639  1.0000
  H   H16       1.0  0.744600608849872  0.3756476999343618  0.29521591136150965  1.0000
  H   H17       1.0  0.7821622625253825  0.9985839405166246  0.5512826596200497  1.0000
  H   H18       1.0  0.21785060879530957  0.0014231461938009995  0.44872332397235937  1.0000
  H   H19       1.0  0.5531351812640324  0.9308761310737664  0.6198492693973067  1.0000
  H   H20       1.0  0.4468761915217597  0.06912988698447009  0.3801560600488045  1.0000
  H   H21       1.0  0.6628898710676692  0.8493371563296461  0.5084596094127036  1.0000
  H   H22       1.0  0.33711542078503953  0.15067316766048583  0.4915422346259675  1.0000
  H   H23       1.0  0.10482901583900171  0.39422997394522236  0.7226450279874187  1.0000
  H   H24       1.0  0.8951689061522855  0.6057664266385814  0.2773561709689858  1.0000
  H   H25       1.0  0.8359289609564939  0.8568190383130414  0.7453778778928283  1.0000
  H   H26       1.0  0.16408243149304974  0.14317947115463167  0.2546254667305163  1.0000
  H   H27       1.0  0.0824118766843398  0.47773549348631394  0.8923635987513023  1.0000
  H   H28       1.0  0.9175830138452951  0.5222630601622315  0.10763629670813657  1.0000
  C   C1        1.0  0.00024599859318640433  0.5333279088303725  0.8103640147571483  1.0000
  C   C2        1.0  0.9997518562683466  0.4666695637034833  0.1896343305542629  1.0000
  C   C3        1.0  0.7958662250860653  0.5802994957041179  0.8452454047125996  1.0000
  C   C4        1.0  0.20413010994911926  0.4197001260037965  0.15475250965261722  1.0000
  C   C5        1.0  0.6830535159536877  0.672432734643145  0.7378539157590183  1.0000
  C   C6        1.0  0.31694576703131355  0.3275700965168014  0.2621433316673176  1.0000
  C   C7        1.0  0.0018649397608286025  0.7549703046241517  0.6368167497513967  1.0000
  C   C8        1.0  0.9981313903649819  0.24502824434327405  0.36318050460477747  1.0000
  C   C9        1.0  0.11937797046125097  0.6617069788759621  0.7417791136522709  1.0000
  C   C10       1.0  0.8806213420062432  0.33829048917438337  0.2582174689693844  1.0000
  C   C11       1.0  0.6930337251186032  0.9020617377226329  0.5817628251737404  1.0000
  C   C12       1.0  0.3069685696643062  0.09794644896312117  0.4182377105723276  1.0000
  N   N1        1.0  0.8054937887079845  0.8009312626242817  0.6800112277720701  1.0000
  N   N2        1.0  0.19451002918294338  0.19907155686358638  0.3199886373065794  1.0000
  Cl  Cl1       1.0  0.5881752074842338  0.9627181576797736  0.86037327798514  1.0000
  Cl  Cl2       1.0  0.4118241950321674  0.03727931135860269  0.1396276967040606  1.0000
  Cl  Cl3       1.0  0.4158185072074402  0.3226356624992945  0.8522905715011149  1.0000
  Cl  Cl4       1.0  0.5841779440774815  0.6773618151108919  0.1477121717405865  1.0000
  Cl  Cl5       1.0  0.9079302840844932  0.18380507205194618  0.9890438780611461  1.0000
  Cl  Cl6       1.0  0.0920691004221297  0.8161923967888212  0.01095621821454535  1.0000
  Cl  Cl7       1.0  0.6257811768212207  0.3038132057840244  0.5494585326350077  1.0000
  Cl  Cl8       1.0  0.37422118837311297  0.6961906909278354  0.45054375514243367  1.0000
  Cl  Cl9       1.0  0.068361239073802  0.08836753591644  0.7140274004961781  1.0000
  Cl  Cl10      1.0  0.9316381634426064  0.9116299331219365  0.2859735741930152  1.0000
  O   O1        1.0  0.9722994443301612  0.4338700158620624  0.7337991305323115  1.0000
  O   O2        1.0  0.027689510998605688  0.5661253365110499  0.2662014435914912  1.0000
