data_image0
_chemical_formula_structural       Zn2H40C44N4O16
_chemical_formula_sum              "Zn2 H40 C44 N4 O16"
_cell_length_a       9.249587233
_cell_length_b       9.768526020438324
_cell_length_c       11.2936
_cell_angle_alpha    90.0
_cell_angle_beta     90.0
_cell_angle_gamma    98.99867502420179

_space_group_name_H-M_alt    "P 1"
_space_group_IT_number       1

loop_
  _space_group_symop_operation_xyz
  'x, y, z'

loop_
  _atom_site_type_symbol
  _atom_site_label
  _atom_site_symmetry_multiplicity
  _atom_site_fract_x
  _atom_site_fract_y
  _atom_site_fract_z
  _atom_site_occupancy
  Zn  Zn1       1.0  0.9999992180191626  0.0  8.854572471000001e-07  1.0000
  Zn  Zn2       1.0  0.4999996090095777  0.0  0.5000008854572471  1.0000
  H   H1        1.0  0.3223502708833266  0.11895781054100502  0.9194384430119698  1.0000
  H   H2        1.0  0.8223482312595607  0.11896091989880381  0.5805624424452773  1.0000
  H   H3        1.0  0.6776507990834659  0.8810396407184058  0.0805624424452773  1.0000
  H   H4        1.0  0.17764919902366927  0.8810406771710078  0.4194384430119698  1.0000
  H   H5        1.0  0.45989455424049897  0.18930081194906023  0.7497237373379593  1.0000
  H   H6        1.0  0.9598948480838131  0.18930495775945394  0.7502762626620411  1.0000
  H   H7        1.0  0.5401041822592134  0.8106956028577559  0.250277148119288  1.0000
  H   H8        1.0  0.040104915666496786  0.8106976757629525  0.24972373733795913  1.0000
  H   H9        1.0  0.640700648313981  0.3670348128987797  0.6528768506056508  1.0000
  H   H10       1.0  0.1407026340590321  0.3670379222565786  0.847121378479848  1.0000
  H   H11       1.0  0.35929808818572434  0.6329616019080362  0.3471231493943492  1.0000
  H   H12       1.0  0.8593000306623892  0.632962638360631  0.1528759651484037  1.0000
  H   H13       1.0  0.7863381075502573  0.5554007446039861  0.7731972090387488  1.0000
  H   H14       1.0  0.286341741928652  0.5554007446039861  0.7267992491322488  1.0000
  H   H15       1.0  0.21365971902855554  0.4445967066554318  0.2268010200467501  1.0000
  H   H16       1.0  0.7136616615052205  0.44459774310802663  0.2731972090387488  1.0000
  H   H17       1.0  0.7511152054100875  0.5583411606259503  0.9912012113055155  1.0000
  H   H18       1.0  0.2511166775298364  0.5583411606259503  0.508796132322729  1.0000
  H   H19       1.0  0.24888387350648597  0.4416573270860624  0.0087970177799832  1.0000
  H   H20       1.0  0.7488836537244977  0.4416583635386644  0.4912003258482684  1.0000
  H   H21       1.0  0.5781297848339618  0.3743096736876979  0.0900430332223578  1.0000
  H   H22       1.0  0.0781280135657383  0.3743096736876979  0.4099551958631409  1.0000
  H   H23       1.0  0.42187162754969176  0.6256898504769098  0.9099569667776422  1.0000
  H   H24       1.0  0.9218692455090575  0.6256908869295118  0.5900430332223578  1.0000
  H   H25       1.0  0.08720574566095958  0.21522663724810093  0.127427923779841  1.0000
  H   H26       1.0  0.5872062645914298  0.215225600795506  0.3725729616774133  1.0000
  H   H27       1.0  0.9127949280102498  0.7847749598217035  0.8725738471346602  1.0000
  H   H28       1.0  0.41279514779223087  0.7847739233691087  0.6274296946943423  1.0000
  H   H29       1.0  0.9844461272391456  0.4053379551291911  0.05961163845009312  1.0000
  H   H30       1.0  0.4844443559709148  0.4053379551291911  0.4403874760926527  1.0000
  H   H31       1.0  0.015556537482268599  0.5946626054880184  0.9403874760926527  1.0000
  H   H32       1.0  0.5155552365709609  0.5946636419406134  0.5596125239073474  1.0000
  H   H33       1.0  0.848732478362507  0.2581989984347928  0.0919556208826222  1.0000
  H   H34       1.0  0.3487325269360539  0.2581969255295959  0.40804349366012366  1.0000
  H   H35       1.0  0.15126944764645597  0.7418036350876207  0.9080434936601236  1.0000
  H   H36       1.0  0.6512687142391654  0.7418015621824239  0.5919556208826222  1.0000
  H   H37       1.0  0.9023077363441985  0.2957921706352238  0.9425984628462132  1.0000
  H   H38       1.0  0.4023081273346206  0.2957921706352238  0.5573997662392856  1.0000
  H   H39       1.0  0.0976947571687816  0.7042073535293838  0.05739976623928562  1.0000
  H   H40       1.0  0.597691293998821  0.7042083899819858  0.4425993483034674  1.0000
  C   C1        1.0  0.28172908801801805  0.0196397402891009  0.1445827725437425  1.0000
  C   C2        1.0  0.781728697027603  0.0196397402891009  0.3554198838280059  1.0000
  C   C3        1.0  0.7182694233945313  0.9803618567807036  0.85542076928526  1.0000
  C   C4        1.0  0.2182689044640611  0.9803628932333056  0.6445810016292413  1.0000
  C   C5        1.0  0.3659555945501509  0.032258550675919706  0.2552516469504837  1.0000
  C   C6        1.0  0.8659542936388432  0.0322595871285216  0.24475100942126463  1.0000
  C   C7        1.0  0.6340436555748568  0.967740973488688  0.7447510094212646  1.0000
  C   C8        1.0  0.13404205551506723  0.96774200994129  0.7552481051214813  1.0000
  C   C9        1.0  0.47985697291138507  0.1359038105265924  0.1974578522348907  1.0000
  C   C10       1.0  0.9798570955462722  0.13590691988438414  0.3025412623078552  1.0000
  C   C11       1.0  0.5201408536674279  0.8640936407328256  0.8025430332223566  1.0000
  C   C12       1.0  0.020143010620913095  0.8640977865432192  0.6974578522348907  1.0000
  C   C13       1.0  0.39469836909503186  0.1184996984924638  0.0868332506906597  1.0000
  C   C14       1.0  0.8947006539885649  0.1185028078502626  0.41316586385209325  1.0000
  C   C15       1.0  0.6052985475628956  0.8814987892195489  0.9131667493093404  1.0000
  C   C16       1.0  0.10529910976175222  0.8814998256721439  0.5868323652334057  1.0000
  C   C17       1.0  0.5259364289045223  0.26903718325737463  0.8027590847913828  1.0000
  C   C18       1.0  0.02593517126159379  0.2690402926151663  0.6972418006658643  1.0000
  C   C19       1.0  0.47406355993294363  0.7309602680020433  0.1972426861231114  1.0000
  C   C20       1.0  0.9740635113593968  0.7309623409072401  0.3027581993341358  1.0000
  C   C21       1.0  0.6267809384029944  0.3705483872077195  0.7485407664517965  1.0000
  C   C22       1.0  0.12678167181028496  0.3705504601129164  0.7514583480909565  1.0000
  C   C23       1.0  0.3732179693051449  0.6294490640516983  0.2514592335482035  1.0000
  C   C24       1.0  0.8732199117818098  0.6294501005042932  0.24853988099454233  1.0000
  C   C25       1.0  0.7092741795927751  0.4746175561711752  0.8158133810299618  1.0000
  C   C26       1.0  0.20927582292095784  0.4746185926237771  0.6841839625982828  1.0000
  C   C27       1.0  0.2907247281153644  0.5253798950882356  0.18418484805553703  1.0000
  C   C28       1.0  0.7907255894627029  0.5253809315408375  0.3158133810299617  1.0000
  C   C29       1.0  0.6905039150134796  0.4751233450392505  0.938513848551395  1.0000
  C   C30       1.0  0.19050538713322854  0.4751233450392505  0.5614834950768568  1.0000
  C   C31       1.0  0.3094964162408544  0.5248761791253642  0.061484380534111004  1.0000
  C   C32       1.0  0.8094949441211057  0.5248761791253642  0.4385147340086419  1.0000
  C   C33       1.0  0.5923179662527005  0.3726896982762327  0.9945287596514873  1.0000
  C   C34       1.0  0.09231636619290379  0.3726907347288346  0.5054712403485127  1.0000
  C   C35       1.0  0.40768344613096025  0.6273098258883821  0.0054712403485127  1.0000
  C   C36       1.0  0.907680892881892  0.6273098258883821  0.4945287596514874  1.0000
  C   C37       1.0  0.5099548615251308  0.2690941881502908  0.9261590635404106  1.0000
  C   C38       1.0  0.009954685011535994  0.2690972975080896  0.5738418219168366  1.0000
  C   C39       1.0  0.49004620844165453  0.73090326310912  0.0738427073740908  1.0000
  C   C40       1.0  0.9900439976094547  0.730905336014317  0.4261581780831634  1.0000
  C   C41       1.0  0.9412451649854248  0.2982236884313211  0.0339953602040097  1.0000
  C   C42       1.0  0.4412444748465205  0.2982236884313211  0.4660046397959903  1.0000
  C   C43       1.0  0.05875641860666997  0.7017768721858887  0.9660055252532374  1.0000
  C   C44       1.0  0.5587549464869211  0.7017768721858887  0.5339953602040097  1.0000
  N   N1        1.0  0.40444367193914127  0.1646280578416039  0.9760802578451546  1.0000
  N   N2        1.0  0.9044416323153753  0.1646311671994027  0.5239206276120996  1.0000
  N   N3        1.0  0.5955573980276512  0.8353693934178068  0.0239215130693466  1.0000
  N   N4        1.0  0.09555488804696918  0.8353714663230036  0.47607848693065347  1.0000
  O   O1        1.0  0.15935161114059332  0.9527103379051456  0.11589395763972732  1.0000
  O   O2        1.0  0.6593524724879388  0.9527113743577476  0.38410781327477395  1.0000
  O   O3        1.0  0.840646729063522  0.0472902227120642  0.8841086987320282  1.0000
  O   O4        1.0  0.3406462101330519  0.0472912591646661  0.6158913012679719  1.0000
  O   O5        1.0  0.3451789232763502  0.9776764080979774  0.3562832046468785  1.0000
  O   O6        1.0  0.8451787034943621  0.9776774445505724  0.1437176808103686  1.0000
  O   O7        1.0  0.6548201556402232  0.0223220796140353  0.6437185662676228  1.0000
  O   O8        1.0  0.1548199791266214  0.022325188971834102  0.8562814337323772  1.0000
  O   O9        1.0  0.5959127492148965  0.2094473775588312  0.230982149181834  1.0000
  O   O10       1.0  0.09591149157196809  0.2094504869166229  0.269017850818166  1.0000
  O   O11       1.0  0.4040881495434617  0.7905490372479846  0.7690178508181589  1.0000
  O   O12       1.0  0.9040873622574566  0.7905531830583783  0.7309848055535895  1.0000
  O   O13       1.0  0.056950843373783804  0.2145031933343446  0.0410657363462477  1.0000
  O   O14       1.0  0.5569506235918026  0.2145042297869466  0.4589351491109994  1.0000
  O   O15       1.0  0.9430505690098769  0.7854963308302629  0.9589360345682537  1.0000
  O   O16       1.0  0.4430498788709727  0.7854963308302629  0.541066621803502  1.0000
