data_image0
_chemical_formula_structural       Ba2H16C4N16O8
_chemical_formula_sum              "Ba2 H16 C4 N16 O8"
_cell_length_a       7.572269278000297
_cell_length_b       7.254249445822228
_cell_length_c       9.408139286379189
_cell_angle_alpha    83.90542686969152
_cell_angle_beta     73.78931110806494
_cell_angle_gamma    85.69143983239249

_space_group_name_H-M_alt    "P 1"
_space_group_IT_number       1

loop_
  _space_group_symop_operation_xyz
  'x, y, z'

loop_
  _atom_site_type_symbol
  _atom_site_label
  _atom_site_symmetry_multiplicity
  _atom_site_fract_x
  _atom_site_fract_y
  _atom_site_fract_z
  _atom_site_occupancy
  Ba  Ba1       1.0  0.7197762133290977  0.9343733585000465  0.6289040798396853  1.0000
  Ba  Ba2       1.0  0.28022288935549255  0.0656287805750111  0.37109709378509576  1.0000
  H   H1        1.0  0.5584974961409229  0.524050020310291  0.7851422020772956  1.0000
  H   H2        1.0  0.44150018200394925  0.47595357742239497  0.21485815056673369  1.0000
  H   H3        1.0  0.7257853863832577  0.5791706658853782  0.8347272746479529  1.0000
  H   H4        1.0  0.2742137062211683  0.42083162688690123  0.1652707021052393  1.0000
  H   H5        1.0  0.5344812223416965  0.22435918451139975  0.873007685042715  1.0000
  H   H6        1.0  0.4655192598116003  0.7756428827208594  0.12699424538084256  1.0000
  H   H7        1.0  0.6837759050848645  0.1387442502477683  0.9512993053128294  1.0000
  H   H8        1.0  0.3162258596750148  0.8612606212361769  0.04870112229784238  1.0000
  H   H9        1.0  0.570372415716065  0.3241959246976975  0.45854232337368456  1.0000
  H   H10       1.0  0.42962714439872224  0.6757922437642067  0.5414616233185398  1.0000
  H   H11       1.0  0.39927900156501267  0.3091461945994993  0.6053568596862177  1.0000
  H   H12       1.0  0.6007189503659659  0.69084903101178  0.39464494367350506  1.0000
  H   H13       1.0  0.8833635632148358  0.3572996891716543  0.5878055455152091  1.0000
  H   H14       1.0  0.11663681871628032  0.6427053053875013  0.4121930596728163  1.0000
  H   H15       1.0  0.9947636190247876  0.24719937665463476  0.6850149514979477  1.0000
  H   H16       1.0  0.005238093943979996  0.7528069841089575  0.31498328068302317  1.0000
  C   C1        1.0  0.05427862748863531  0.7995657255365953  0.9024110843029685  1.0000
  C   C2        1.0  0.9457232624041081  0.20043513920007433  0.09758633898203323  1.0000
  C   C3        1.0  0.9142804025202906  0.7144414773553507  0.025330036303387288  1.0000
  C   C4        1.0  0.08571612487097009  0.28555520691355707  0.9746709460755764  1.0000
  N   N1        1.0  0.7677128549114727  0.6370578259472454  0.004628408330631777  1.0000
  N   N2        1.0  0.2322863379151343  0.36294153949814495  0.9953728936580928  1.0000
  N   N3        1.0  0.7510653320913858  0.6167602608892224  0.2398872796973065  1.0000
  N   N4        1.0  0.24893385401511375  0.3832392070209848  0.760111891043685  1.0000
  N   N5        1.0  0.9071348624329472  0.7019183738334435  0.17088324482892145  1.0000
  N   N6        1.0  0.09286564799108989  0.29808256274602485  0.8291134216572967  1.0000
  N   N7        1.0  0.6676013300896955  0.578788394640661  0.1407956846520263  1.0000
  N   N8        1.0  0.3323964799081479  0.4212110938799328  0.8592037949140515  1.0000
  N   N9        1.0  0.031347589872765994  0.8405901323092024  0.7651673838781787  1.0000
  N   N10       1.0  0.96865573463986  0.15940912007260977  0.23483405725917086  1.0000
  N   N11       1.0  0.1921153271883966  0.9065709717458788  0.6828897932041895  1.0000
  N   N12       1.0  0.8078837721361366  0.09343121856159091  0.3171103147967285  1.0000
  N   N13       1.0  0.30750454220095236  0.9062831394478436  0.7664043961906725  1.0000
  N   N14       1.0  0.6924973127009437  0.09371895840643421  0.23359615978394999  1.0000
  N   N15       1.0  0.22351815978509385  0.84078996343046  0.9053239002188673  1.0000
  N   N16       1.0  0.7764838787608922  0.1592065359320713  0.09467797810750503  1.0000
  O   O1        1.0  0.6844060583892784  0.5706041106191435  0.7436351217945258  1.0000
  O   O2        1.0  0.31559165810649864  0.42939820276352947  0.2563631637837459  1.0000
  O   O3        1.0  0.6304229573836225  0.1256553687090545  0.8664563001541691  1.0000
  O   O4        1.0  0.3695801350538445  0.8743509202117463  0.13354268882559242  1.0000
  O   O5        1.0  0.49065638464882255  0.2370611160587472  0.528921589098715  1.0000
  O   O6        1.0  0.5093430268127149  0.7629314177772953  0.47107790255214604  1.0000
  O   O7        1.0  0.9631246111014345  0.2447269594372941  0.5884721077171517  1.0000
  O   O8        1.0  0.0368756773276147  0.7552808599839338  0.41152530348306715  1.0000
