data_image0
_chemical_formula_structural       Ca2H22C22N2O14
_chemical_formula_sum              "Ca2 H22 C22 N2 O14"
_cell_length_a       8.309574264498197
_cell_length_b       8.706435148660193
_cell_length_c       9.826259473145289
_cell_angle_alpha    67.20406524791251
_cell_angle_beta     81.42815052789874
_cell_angle_gamma    74.27504105891774

_space_group_name_H-M_alt    "P 1"
_space_group_IT_number       1

loop_
  _space_group_symop_operation_xyz
  'x, y, z'

loop_
  _atom_site_type_symbol
  _atom_site_label
  _atom_site_symmetry_multiplicity
  _atom_site_fract_x
  _atom_site_fract_y
  _atom_site_fract_z
  _atom_site_occupancy
  Ca  Ca1       1.0  0.6705002672627812  0.6390274030652137  0.959879996137296  1.0000
  Ca  Ca2       1.0  0.329497522644033  0.3609684635388106  0.04012249675769655  1.0000
  H   H1        1.0  0.5076858122844427  0.6853792294455161  0.5835123529638793  1.0000
  H   H2        1.0  0.49231314668887904  0.3146218025901035  0.41648837921803744  1.0000
  H   H3        1.0  0.31707119106361864  0.0376165502714159  0.7071799297581334  1.0000
  H   H4        1.0  0.68292961449896  0.9623871522033625  0.2928177268560219  1.0000
  H   H5        1.0  0.11828754282512222  0.002980811641968698  0.6950360909379398  1.0000
  H   H6        1.0  0.881712051137022  0.9970228698134279  0.3049616976974718  1.0000
  H   H7        1.0  0.20642919190818526  0.1527073916937525  0.5405083748130082  1.0000
  H   H8        1.0  0.7935716388821773  0.8472963441330138  0.4594882502061636  1.0000
  H   H9        1.0  0.7613482010964605  0.5654488869579736  0.6688010918008302  1.0000
  H   H10       1.0  0.2386519442495114  0.43455213274503285  0.3312005399547999  1.0000
  H   H11       1.0  0.3270167845165303  0.7832295848681596  0.42206928448152337  1.0000
  H   H12       1.0  0.6729861559410962  0.21677547384556559  0.5779267023274812  1.0000
  H   H13       1.0  0.23735012879323142  0.008752134351226496  0.3611429373392524  1.0000
  H   H14       1.0  0.7626536845034549  0.9912541928780952  0.6388535748758315  1.0000
  H   H15       1.0  0.12191003793045496  0.8611651965343868  0.489195642070321  1.0000
  H   H16       1.0  0.8780905297818863  0.13883988684456483  0.5107985455912497  1.0000
  H   H17       1.0  0.31551717036338556  0.44771863538372253  0.675214377762167  1.0000
  H   H18       1.0  0.6844792976473784  0.5522874656733805  0.3247860213654477  1.0000
  H   H19       1.0  0.35838311612623397  0.9891603501347248  0.08485127047843133  1.0000
  H   H20       1.0  0.6416174357428088  0.01083431101182699  0.915150300946685  1.0000
  H   H21       1.0  0.04779017015590628  0.7183101152388717  0.9720135432157379  1.0000
  H   H22       1.0  0.95221108446367  0.2816820842672244  0.027985681759716424  1.0000
  C   C1        1.0  0.05385868265259572  0.532262935690106  0.7712652169154878  1.0000
  C   C2        1.0  0.9461393782538892  0.46773679447792915  0.22873602145532604  1.0000
  C   C3        1.0  0.4589226176551902  0.7812939730687773  0.6362426285791685  1.0000
  C   C4        1.0  0.5410739433450615  0.2187070502800879  0.3637573360502984  1.0000
  C   C5        1.0  0.027972737068331834  0.5119251406332238  0.632829671425128  1.0000
  C   C6        1.0  0.9720274161992819  0.4880810901859788  0.3671682684487294  1.0000
  C   C7        1.0  0.2354960047326387  0.03007964654952389  0.633367949668603  1.0000
  C   C8        1.0  0.7645032756959227  0.9699253157540823  0.3666294647991749  1.0000
  C   C9        1.0  0.8651551456751534  0.5360901577926214  0.5942095929698114  1.0000
  C   C10       1.0  0.13484227085802306  0.46391731183604873  0.4057882367789389  1.0000
  C   C11       1.0  0.24723734289317884  0.8868197421413697  0.4554961850850177  1.0000
  C   C12       1.0  0.7527655723366635  0.11318528322036062  0.5445008333189634  1.0000
  C   C13       1.0  0.16566675908713077  0.4731510079632884  0.5378166537053843  1.0000
  C   C14       1.0  0.8343334194082744  0.5268552562079094  0.4621802545734893  1.0000
  C   C15       1.0  0.32581013249299673  0.7657705242895644  0.050122883856104694  1.0000
  C   C16       1.0  0.6741909959876509  0.23422150845658507  0.9498814990942464  1.0000
  C   C17       1.0  0.15695281409713155  0.8839631704724054  0.027761405854889294  1.0000
  C   C18       1.0  0.8430489919062581  0.11602636728130017  0.9722416622407763  1.0000
  C   C19       1.0  0.02680966019273253  0.8406192499358554  0.985746410025662  1.0000
  C   C20       1.0  0.973190620676647  0.15937154764667838  0.014256415923632871  1.0000
  C   C21       1.0  0.12959314791068272  0.045682157286997004  0.041544564938405394  1.0000
  C   C22       1.0  0.8704059797354874  0.9543138970963482  0.95845263796042  1.0000
  N   N1        1.0  0.3200509283521313  0.8950765407396304  0.5776715247643692  1.0000
  N   N2        1.0  0.6799504790498291  0.1049245666867265  0.42232791178003737  1.0000
  O   O1        1.0  0.9302416176355665  0.5931475376489671  0.8412548253410534  1.0000
  O   O2        1.0  0.0697564353492695  0.4068469814028646  0.15875010491153324  1.0000
  O   O3        1.0  0.531396477440424  0.7817540302757422  0.7394705553420878  1.0000
  O   O4        1.0  0.46860068539921684  0.21824439802470863  0.26053118921762314  1.0000
  O   O5        1.0  0.20652976471561854  0.48701707790774423  0.8115685384773385  1.0000
  O   O6        1.0  0.7934698213248766  0.5129813924314561  0.18843294203984587  1.0000
  O   O7        1.0  0.44508674495077144  0.8174746190535486  0.07714093609252609  1.0000
  O   O8        1.0  0.5549128331680818  0.1825186401694481  0.922864236306438  1.0000
  O   O9        1.0  0.3554518754281161  0.6211792790464871  0.036940755188446445  1.0000
  O   O10       1.0  0.6445525743202368  0.37881409760599627  0.9630628575304812  1.0000
  O   O11       1.0  0.32634134544311183  0.44254791861082754  0.572731195263593  1.0000
  O   O12       1.0  0.6736578419959615  0.5574621214010236  0.4272666537023327  1.0000
  O   O13       1.0  0.2559000209117457  0.09048503366082633  0.08069378951531551  1.0000
  O   O14       1.0  0.7440993698124387  0.9095096731703265  0.919305850741104  1.0000
