data_image0
_chemical_formula_structural       Li4H52C32N8O4
_chemical_formula_sum              "Li4 H52 C32 N8 O4"
_cell_length_a       8.663406870184033
_cell_length_b       9.284041271329079
_cell_length_c       11.73793004194462
_cell_angle_alpha    89.99905828418295
_cell_angle_beta     106.22614013320208
_cell_angle_gamma    90.00006682616575

_space_group_name_H-M_alt    "P 1"
_space_group_IT_number       1

loop_
  _space_group_symop_operation_xyz
  'x, y, z'

loop_
  _atom_site_type_symbol
  _atom_site_label
  _atom_site_symmetry_multiplicity
  _atom_site_fract_x
  _atom_site_fract_y
  _atom_site_fract_z
  _atom_site_occupancy
  Li  Li1       1.0  0.5042180176114144  0.38069513196587945  0.4470986323344803  1.0000
  Li  Li2       1.0  0.4957809759454364  0.8806959139589238  0.052893673881158045  1.0000
  Li  Li3       1.0  0.49577390807792215  0.6193024059564891  0.5529012936017706  1.0000
  Li  Li4       1.0  0.5042215961409511  0.1193059325040124  0.9470998195061355  1.0000
  H   H1        1.0  0.9695441356608541  0.22210237207619346  0.27967931936098706  1.0000
  H   H2        1.0  0.0304603511474326  0.7221164516824247  0.22031954499132664  1.0000
  H   H3        1.0  0.030450331707179104  0.7778962428887655  0.720327921196585  1.0000
  H   H4        1.0  0.9695506180313841  0.27789401171360595  0.7796747429694405  1.0000
  H   H5        1.0  0.828959934468898  0.9574064263118205  0.03195114225379561  1.0000
  H   H6        1.0  0.1710388125623012  0.45741564800613327  0.4680426689798409  1.0000
  H   H7        1.0  0.1710439428581623  0.04259434297897971  0.968047719253086  1.0000
  H   H8        1.0  0.8289564268787901  0.5425797358270045  0.5319434223468632  1.0000
  H   H9        1.0  0.9911929972411784  0.9798436479310625  0.1635292275872686  1.0000
  H   H10       1.0  0.008805662598391  0.4798522036427927  0.336464273284804  1.0000
  H   H11       1.0  0.008809729630748095  0.020161429803579302  0.8364719643676182  1.0000
  H   H12       1.0  0.9911930797614306  0.5201528742922435  0.6635173927381075  1.0000
  H   H13       1.0  0.942571217757255  0.11935954316235349  0.05666047069251329  1.0000
  H   H14       1.0  0.05742745172422299  0.6193657952299463  0.4433283715384063  1.0000
  H   H15       1.0  0.05742910503496999  0.8806412261074074  0.9433402498544724  1.0000
  H   H16       1.0  0.9425702777962075  0.3806317427895038  0.5566624682055163  1.0000
  H   H17       1.0  0.40287412564663333  0.0697248785355171  0.34522147996518976  1.0000
  H   H18       1.0  0.5971274160052787  0.569724726960793  0.15478220670865275  1.0000
  H   H19       1.0  0.5971263003443144  0.9302737364468074  0.6547843729899867  1.0000
  H   H20       1.0  0.40287167033844906  0.4302792736799503  0.8452165672993672  1.0000
  H   H21       1.0  0.2189354002182142  0.16900305939606144  0.3079919951967511  1.0000
  H   H22       1.0  0.7810646051826424  0.6690033971623921  0.19201264867144366  1.0000
  H   H23       1.0  0.781063806529609  0.8309955555969639  0.6920127666406941  1.0000
  H   H24       1.0  0.21893216307892527  0.3309952178520348  0.8079899309305317  1.0000
  H   H25       1.0  0.12673418599808883  0.9471343365169819  0.3774163078138315  1.0000
  H   H26       1.0  0.8732696671299325  0.44713526547284504  0.12259141942600132  1.0000
  H   H27       1.0  0.8732674592318049  0.05286643268892991  0.6225906362441833  1.0000
  H   H28       1.0  0.12672710112954633  0.5528644266587222  0.8774111601685277  1.0000
  H   H29       1.0  0.3152733528169023  0.9162857906039651  0.4818419365310476  1.0000
  H   H30       1.0  0.6847294697426421  0.41628761858033414  0.018168547897417363  1.0000
  H   H31       1.0  0.6847246862829692  0.0837139014903272  0.5181643003778618  1.0000
  H   H32       1.0  0.3152697542000881  0.5837131506381185  0.9818370693240084  1.0000
  H   H33       1.0  0.0678512038659278  0.14881049413790487  0.4940816033204881  1.0000
  H   H34       1.0  0.9321487940058759  0.6488126865742317  0.0059190428571013615  1.0000
  H   H35       1.0  0.9321479684753415  0.8511924293414026  0.5059214476893956  1.0000
  H   H36       1.0  0.06784910750755559  0.3511837742394945  0.994080350883095  1.0000
  H   H37       1.0  0.16215008499752065  0.023424315615955  0.6072897667858683  1.0000
  H   H38       1.0  0.8378506687878655  0.5234259351156325  0.8927170370539699  1.0000
  H   H39       1.0  0.8378491217398366  0.9765796849627794  0.3927149950143232  1.0000
  H   H40       1.0  0.16214730152401566  0.4765694485455185  0.10728577828921  1.0000
  H   H41       1.0  0.4187915396454259  0.1461690719711513  0.6468616558313656  1.0000
  H   H42       1.0  0.5812039633749464  0.6461658694828075  0.853144218079258  1.0000
  H   H43       1.0  0.5812052629996743  0.8538370828455583  0.3531426345162245  1.0000
  H   H44       1.0  0.41879400692856456  0.3538338226469194  0.14685859723411449  1.0000
  H   H45       1.0  0.2876482482497168  0.29733636159586047  0.605661517463183  1.0000
  H   H46       1.0  0.7123476973680525  0.7973367447875789  0.8943339471088692  1.0000
  H   H47       1.0  0.7123508896975609  0.7026644076668731  0.39433982276382545  1.0000
  H   H48       1.0  0.2876574164054162  0.20266187024938634  0.10566686092953147  1.0000
  H   H49       1.0  0.5595628412099884  0.10847816378628038  0.17508927187535045  1.0000
  H   H50       1.0  0.4404371585830447  0.6084915625242998  0.32490423353768694  1.0000
  H   H51       1.0  0.44043135098306874  0.8915150657346945  0.8249042823373428  1.0000
  H   H52       1.0  0.5595702732830433  0.3915070525532657  0.6750927689440047  1.0000
  C   C1        1.0  0.7435925603422646  0.2679785137554944  0.31041760571755367  1.0000
  C   C2        1.0  0.25639242949623053  0.767988071121522  0.18957257558151497  1.0000
  C   C3        1.0  0.2563933035505386  0.7320082530312393  0.6895785755022956  1.0000
  C   C4        1.0  0.7436163591952437  0.23201592946018929  0.8104323611717205  1.0000
  C   C5        1.0  0.841890377989529  0.19679139522839512  0.2543323960017858  1.0000
  C   C6        1.0  0.15810567249077687  0.6967986144591267  0.24565918069165346  1.0000
  C   C7        1.0  0.15809912640426663  0.8032104511750761  0.7456662030680831  1.0000
  C   C8        1.0  0.8419089200255244  0.3032086175711016  0.7543366698469  1.0000
  C   C9        1.0  0.7762067340104083  0.09858509131736069  0.16157172217709354  1.0000
  C   C10       1.0  0.22379455788276204  0.5985915303620714  0.3384247220469589  1.0000
  C   C11       1.0  0.22379355436270745  0.9014264491415319  0.8384272874976231  1.0000
  C   C12       1.0  0.7762139728265397  0.4014103161182306  0.6615673837379391  1.0000
  C   C13       1.0  0.8908839462837153  0.0344639273094955  0.0999029723786506  1.0000
  C   C14       1.0  0.10911628954961831  0.5344711274897093  0.40008899069343334  1.0000
  C   C15       1.0  0.10911520886055831  0.9655379190615249  0.9000992232397921  1.0000
  C   C16       1.0  0.8908849601053747  0.46552748768564123  0.5998982792051777  1.0000
  C   C17       1.0  0.3073550155554301  0.11276606659291134  0.3804505802617015  1.0000
  C   C18       1.0  0.6926499993635035  0.6127667408746335  0.1195549289871707  1.0000
  C   C19       1.0  0.6926465780813801  0.8872325484052864  0.6195537976145573  1.0000
  C   C20       1.0  0.30735155987302687  0.38723295125842594  0.8804477380838804  1.0000
  C   C21       1.0  0.22846314348933563  0.0003133009392116  0.4402129560291711  1.0000
  C   C22       1.0  0.7715399387359272  0.5003163701323176  0.05979534808264479  1.0000
  C   C23       1.0  0.7715361148536674  0.9996863911443866  0.5597943719974765  1.0000
  C   C24       1.0  0.2284580831606675  0.4996854762051157  0.9402100334124767  1.0000
  C   C25       1.0  0.17972851383344593  0.08955683997191952  0.5345082101565239  1.0000
  C   C26       1.0  0.8202707637131541  0.5895580102312226  0.9654965877808053  1.0000
  C   C27       1.0  0.8202694908598789  0.910447160608655  0.4654963159248168  1.0000
  C   C28       1.0  0.17972844304095056  0.41043737341038183  0.03450817407899358  1.0000
  C   C29       1.0  0.3206334557168731  0.19252349881462297  0.5754942739087311  1.0000
  C   C30       1.0  0.6793641852469606  0.6925264549181521  0.9245071531981565  1.0000
  C   C31       1.0  0.6793657338255842  0.8074783475386839  0.42450963250747975  1.0000
  C   C32       1.0  0.3206349526982209  0.3074753914617362  0.07549418702141253  1.0000
  N   N1        1.0  0.6525947506633969  0.3255563910711175  0.35393904202368986  1.0000
  N   N2        1.0  0.34738649527149335  0.8255734043632968  0.1460539126072078  1.0000
  N   N3        1.0  0.3473816516772956  0.6744260671820616  0.646062952065094  1.0000
  N   N4        1.0  0.6526305357185009  0.1744402903483788  0.8539441201221151  1.0000
  N   N5        1.0  0.6227079260846865  0.059155380310137715  0.12365718506059405  1.0000
  N   N6        1.0  0.37729947765770083  0.5591622640640639  0.37633841697527254  1.0000
  N   N7        1.0  0.37729710169332986  0.9408432347711085  0.8763393459833964  1.0000
  N   N8        1.0  0.6227080058119371  0.4408331196354995  0.6236611517254147  1.0000
  O   O1        1.0  0.3787975873187577  0.2173446095560934  0.4721346329193635  1.0000
  O   O2        1.0  0.621205836354875  0.7173449587864483  0.02787004941369278  1.0000
  O   O3        1.0  0.6212040235150482  0.7826550825503917  0.5278706003483363  1.0000
  O   O4        1.0  0.37879816136791794  0.2826547333252095  0.9721347998928209  1.0000
