data_image0
_chemical_formula_structural       Ag4H44C38S4O8
_chemical_formula_sum              "Ag4 H44 C38 S4 O8"
_cell_length_a       7.744666114810859
_cell_length_b       9.81069458201141
_cell_length_c       13.39556065203872
_cell_angle_alpha    94.01844202953203
_cell_angle_beta     106.82633445910191
_cell_angle_gamma    89.96678622113826

_space_group_name_H-M_alt    "P 1"
_space_group_IT_number       1

loop_
  _space_group_symop_operation_xyz
  'x, y, z'

loop_
  _atom_site_type_symbol
  _atom_site_label
  _atom_site_symmetry_multiplicity
  _atom_site_fract_x
  _atom_site_fract_y
  _atom_site_fract_z
  _atom_site_occupancy
  Ag  Ag1       1.0  0.1573370654240662  0.9278412317359537  0.05575652320884929  1.0000
  Ag  Ag2       1.0  0.10131084703596124  0.5722653082491861  0.9442265403969612  1.0000
  Ag  Ag3       1.0  0.842665007216084  0.07215515040409311  0.9442450876471822  1.0000
  Ag  Ag4       1.0  0.8986900044247579  0.42773516918651927  0.05577434197462593  1.0000
  H   H1        1.0  0.2728375537519838  0.8685600181556552  0.25683400009911134  1.0000
  H   H2        1.0  0.016934436111441208  0.6314826115217969  0.7431284431037708  1.0000
  H   H3        1.0  0.7271633396407255  0.1314424873261402  0.7431692406625456  1.0000
  H   H4        1.0  0.9830704442043443  0.36851684875824026  0.25687157457314663  1.0000
  H   H5        1.0  0.5026859054684749  0.9700245334539165  0.41616679137631246  1.0000
  H   H6        1.0  0.0876533443928409  0.5300672764408675  0.583891847786937  1.0000
  H   H7        1.0  0.4973161609069905  0.029971843361572305  0.583835564656155  1.0000
  H   H8        1.0  0.9123475383913375  0.469933227617581  0.416105308702484  1.0000
  H   H9        1.0  0.7135052875994108  0.8182137752934008  0.5351305470236554  1.0000
  H   H10       1.0  0.17881918158263943  0.6819997414606007  0.46484735745126926  1.0000
  H   H11       1.0  0.2864981946630395  0.1817846489347517  0.464871415722662  1.0000
  H   H12       1.0  0.8211751263691341  0.31800689366613716  0.5351505128256803  1.0000
  H   H13       1.0  0.6886167786647803  0.566960317413745  0.49574008082021936  1.0000
  H   H14       1.0  0.19225377219621015  0.9332106166064733  0.5041083677576876  1.0000
  H   H15       1.0  0.3113826998013637  0.4330391452682747  0.5042597659150374  1.0000
  H   H16       1.0  0.8077364702727791  0.0667960083415196  0.49589105095999736  1.0000
  H   H17       1.0  0.46484198694686546  0.46733760802182184  0.33245129052419736  1.0000
  H   H18       1.0  0.1314901292397508  0.0328409880721523  0.667243659378876  1.0000
  H   H19       1.0  0.5351560640633367  0.5326588012113119  0.6675466525375242  1.0000
  H   H20       1.0  0.8685027555999271  0.9671645897045092  0.3327591366732178  1.0000
  H   H21       1.0  0.5068400613293775  0.22176599042821013  0.30145163681202547  1.0000
  H   H22       1.0  0.20508746167500652  0.2781570162223801  0.6988548527272227  1.0000
  H   H23       1.0  0.4931567256089835  0.7782334814416174  0.6985470066877466  1.0000
  H   H24       1.0  0.794914775309671  0.7218444866161137  0.3011455749278368  1.0000
  H   H25       1.0  0.3164110382355716  0.11552369998503306  0.296251376239681  1.0000
  H   H26       1.0  0.019908805657912903  0.38462665878726204  0.7040413423833981  1.0000
  H   H27       1.0  0.6835870975990306  0.8844757699531629  0.7037474962896154  1.0000
  H   H28       1.0  0.980093480483859  0.6153758820347477  0.29595691117273754  1.0000
  H   H29       1.0  0.28828700652246664  0.2527391710529089  0.21257979909599098  1.0000
  H   H30       1.0  0.07561523228989846  0.24746605382074455  0.7877765621357254  1.0000
  H   H31       1.0  0.7117124478453363  0.7472592749437867  0.7874192410324452  1.0000
  H   H32       1.0  0.9243870234888547  0.7525354649913966  0.21222162999003297  1.0000
  H   H33       1.0  0.5979315648587756  0.24552767319237745  0.12459245153954158  1.0000
  H   H34       1.0  0.473121594120606  0.25415423149116384  0.8755804419792951  1.0000
  H   H35       1.0  0.4020678895090342  0.7544707728043178  0.8754065885888946  1.0000
  H   H36       1.0  0.5268765846064057  0.745846271106004  0.1244170016275135  1.0000
  H   H37       1.0  0.5694542477336312  0.11119298214384794  0.026951265723994238  1.0000
  H   H38       1.0  0.5426748327136294  0.3884450440150928  0.9732412890820185  1.0000
  H   H39       1.0  0.4305465430010288  0.8888054512721201  0.9730494937868384  1.0000
  H   H40       1.0  0.45733278202234834  0.6115554397361008  0.026758502907888705  1.0000
  H   H41       1.0  0.2376102401781353  0.1773771391780272  0.9545779983429268  1.0000
  H   H42       1.0  0.28333546807799354  0.3226805940203478  0.04573461326367579  1.0000
  H   H43       1.0  0.7623905871842424  0.8226223215723606  0.04542207742185403  1.0000
  H   H44       1.0  0.7166666787780188  0.6773168474014141  0.9542618427876873  1.0000
  C   C1        1.0  0.2336875453889178  0.6010590977788368  0.18220530909303528  1.0000
  C   C2        1.0  0.051594288710297996  0.8990065607951861  0.8176765018925208  1.0000
  C   C3        1.0  0.7663132998071094  0.3989413743323169  0.817796318454988  1.0000
  C   C4        1.0  0.9484051405987445  0.10099186390331738  0.18232551894165985  1.0000
  C   C5        1.0  0.358997142304986  0.6621994834767618  0.2831500022040174  1.0000
  C   C6        1.0  0.07571580186461092  0.8379259181325411  0.7166799511511144  1.0000
  C   C7        1.0  0.6410050821503078  0.33780200871263594  0.7168519158039144  1.0000
  C   C8        1.0  0.9242810029073995  0.1620745650980595  0.2833202441319073  1.0000
  C   C9        1.0  0.3675747112776265  0.8036222084577318  0.308388395401586  1.0000
  C   C10       1.0  0.05974762941434623  0.6964775388418333  0.6915374289731132  1.0000
  C   C11       1.0  0.6324274702852577  0.1963782510727015  0.6916149515288408  1.0000
  C   C12       1.0  0.9402532283110646  0.30352294391842355  0.3084627082220451  1.0000
  C   C13       1.0  0.49390743442697993  0.8596296132115456  0.39875113780193056  1.0000
  C   C14       1.0  0.09576184247002573  0.6404804563286746  0.6012051504748825  1.0000
  C   C15       1.0  0.5060946801451536  0.1403687969745917  0.6012528314441639  1.0000
  C   C16       1.0  0.9042349685666693  0.3595200322264773  0.398794299631703  1.0000
  C   C17       1.0  0.6115258418179791  0.7749372167419535  0.46558968050266697  1.0000
  C   C18       1.0  0.14605818671697793  0.7252348308569269  0.5342953430163105  1.0000
  C   C19       1.0  0.3884749185536549  0.22506019466413824  0.5344110175777885  1.0000
  C   C20       1.0  0.8539332653624854  0.27476669275917226  0.4657025072261334  1.0000
  C   C21       1.0  0.5991638159773558  0.6333835363981136  0.44276722853014405  1.0000
  C   C22       1.0  0.15591142370465857  0.8667608995596223  0.5570521776849304  1.0000
  C   C23       1.0  0.40083565622409634  0.3666159209593545  0.5572333633815416  1.0000
  C   C24       1.0  0.844080076571487  0.13324265742711816  0.44294728577114023  1.0000
  C   C25       1.0  0.4736772034904106  0.577186633461686  0.3521406243552362  1.0000
  C   C26       1.0  0.12085145999985511  0.9229709054368769  0.6476060556095005  1.0000
  C   C27       1.0  0.526323606038325  0.42281181592792194  0.6478578996262951  1.0000
  C   C28       1.0  0.8791413588094912  0.0770316276083634  0.352393575445717  1.0000
  C   C29       1.0  0.38093968519309135  0.17475378153130092  0.25018174866458043  1.0000
  C   C30       1.0  0.13060594806325554  0.32536418663774924  0.7501446838581243  1.0000
  C   C31       1.0  0.6190571321082957  0.8252467123484025  0.7498169562655689  1.0000
  C   C32       1.0  0.8693977110730985  0.6746393689379532  0.2498546053343488  1.0000
  C   C33       1.0  0.4967202628849138  0.17401769791155888  0.07238716319132271  1.0000
  C   C34       1.0  0.4243537952235386  0.32575883182799004  0.9278575155712758  1.0000
  C   C35       1.0  0.50327925847364  0.8259827974294324  0.9276112546214462  1.0000
  C   C36       1.0  0.5756537462569967  0.6742395972543633  0.07214364391074216  1.0000
  C   C37       1.0  0.34429164679983876  0.2499775046186414  0.00014675973510241822  1.0000
  C   C38       1.0  0.6557118667860565  0.7500209462322545  0.9998514771290344  1.0000
  S   S1        1.0  0.43515450520710897  0.056305708457216504  0.15491812929750634  1.0000
  S   S2        1.0  0.28027751755628577  0.4436678892077878  0.845355631226283  1.0000
  S   S3        1.0  0.5648450161514448  0.9436947868837747  0.8450802885152623  1.0000
  S   S4        1.0  0.7197220770577104  0.5563346608020366  0.15464141909437498  1.0000
  O   O1        1.0  0.17543378176977603  0.6800390935939618  0.10753543278300977  1.0000
  O   O2        1.0  0.0688491215447797  0.8200483527814697  0.8924109927039651  1.0000
  O   O3        1.0  0.8245643415354423  0.3199603656951382  0.892464930099159  1.0000
  O   O4        1.0  0.9311529751937115  0.1799490460439017  0.10759142475888686  1.0000
  O   O5        1.0  0.1946658784011248  0.4745901335370634  0.17587404170576798  1.0000
  O   O6        1.0  0.018322565755760002  0.0254186362347895  0.8239657223033844  1.0000
  O   O7        1.0  0.8053376592831115  0.5254093339991571  0.8241250017651822  1.0000
  O   O8        1.0  0.9816768153566073  0.9745777550930655  0.1760346853171697  1.0000
