data_image0
_chemical_formula_structural       Cd8H28C24N52O4
_chemical_formula_sum              "Cd8 H28 C24 N52 O4"
_cell_length_a       6.817583715
_cell_length_b       9.950779274349749
_cell_length_c       17.9044
_cell_angle_alpha    101.8652412188415
_cell_angle_beta     90.0
_cell_angle_gamma    90.0

_space_group_name_H-M_alt    "P 1"
_space_group_IT_number       1

loop_
  _space_group_symop_operation_xyz
  'x, y, z'

loop_
  _atom_site_type_symbol
  _atom_site_label
  _atom_site_symmetry_multiplicity
  _atom_site_fract_x
  _atom_site_fract_y
  _atom_site_fract_z
  _atom_site_occupancy
  Cd  Cd1       1.0  0.7048406298887642  0.0226983100145404  0.9496677018953505  1.0000
  Cd  Cd2       1.0  0.2048394355506673  0.47730015335177  0.55033170361785  1.0000
  Cd  Cd3       1.0  0.29515882519676495  0.9773006704920562  0.050331902343373286  1.0000
  Cd  Cd4       1.0  0.7951600195348689  0.5226988271548265  0.44966845914279924  1.0000
  Cd  Cd5       1.0  0.5720384469088984  0.3485346861981782  0.0850096479044922  1.0000
  Cd  Cd6       1.0  0.0720401861614661  0.151465830942108  0.4149899922991053  1.0000
  Cd  Cd7       1.0  0.4279595413812984  0.6514663480824012  0.9149907495465542  1.0000
  Cd  Cd8       1.0  0.9279622025147347  0.848534176451473  0.5850097292848133  1.0000
  H   H1        1.0  0.19225726515336564  0.5316758732164928  0.16769793243352635  1.0000
  H   H2        1.0  0.6922555259007908  0.9683267050913571  0.3322988714347517  1.0000
  H   H3        1.0  0.8077421899321706  0.46832516106407956  0.832299113885952  1.0000
  H   H4        1.0  0.3077439291847384  0.0316743291892152  0.6677004089724434  1.0000
  H   H5        1.0  0.045752280139034  0.5939463002560146  0.10006843128668662  1.0000
  H   H6        1.0  0.5457564080678097  0.9060531973908681  0.39992913758985077  1.0000
  H   H7        1.0  0.9542442413558234  0.4060526802505819  0.8999294973862532  1.0000
  H   H8        1.0  0.4542474474037306  0.093944756228737  0.6000703493036709  1.0000
  H   H9        1.0  0.9838265697042488  0.4806159714406633  0.2878534364920355  1.0000
  H   H10       1.0  0.4838253753661448  0.0193845456996229  0.21214564518962925  1.0000
  H   H11       1.0  0.0161728853812804  0.519385062839909  0.7121464024370852  1.0000
  H   H12       1.0  0.5161755465147237  0.9806154616939651  0.7878546349162148  1.0000
  H   H13       1.0  0.9455182758984293  0.3361545366535097  0.2132865183795616  1.0000
  H   H14       1.0  0.4455156147649859  0.1638459804867765  0.2867125633021033  1.0000
  H   H15       1.0  0.0544811791871069  0.663847524514054  0.786713437894754  1.0000
  H   H16       1.0  0.5544838403205432  0.8361530000198201  0.7132875994585461  1.0000
  H   H17       1.0  0.9102286468953196  0.7393730088132457  0.2144236101425747  1.0000
  H   H18       1.0  0.4102274525572156  0.7606285426076198  0.2855753104682108  1.0000
  H   H19       1.0  0.0897737417808884  0.2606280254673337  0.7855756702646133  1.0000
  H   H20       1.0  0.5897705357329812  0.2393714647859682  0.7144249696376406  1.0000
  H   H21       1.0  0.7265169313729487  0.6646680072186157  0.2609074178832671  1.0000
  H   H22       1.0  0.2265142702395124  0.8353335442022498  0.23909150272751836  1.0000
  H   H23       1.0  0.2734869240985915  0.3353350808359394  0.7390926557362505  1.0000
  H   H24       1.0  0.7734837180506844  0.1646674900783296  0.7609088947235279  1.0000
  H   H25       1.0  0.3231614149676787  0.9151770882920262  0.8976463101242799  1.0000
  H   H26       1.0  0.8231611425104433  0.5848213824678723  0.6023539340166977  1.0000
  H   H27       1.0  0.6768380401178575  0.0848218922145705  0.10235329411444377  1.0000
  H   H28       1.0  0.1768383125750859  0.4151786249257158  0.39764634608915367  1.0000
  C   C1        1.0  0.065976454239987  0.3767833203906292  0.08099534314299459  1.0000
  C   C2        1.0  0.565977648578091  0.1232151429756811  0.4190029453263477  1.0000
  C   C3        1.0  0.9340200672548704  0.6232156601159673  0.9190042610957292  1.0000
  C   C4        1.0  0.43402474009810993  0.8767838375309154  0.5809966589123761  1.0000
  C   C5        1.0  0.0554653988579616  0.5136694098566963  0.13404469893018958  1.0000
  C   C6        1.0  0.5554665931960585  0.9863300877901865  0.3659534284682735  1.0000
  C   C7        1.0  0.9445325894322352  0.4863305975368917  0.865953905609878  1.0000
  C   C8        1.0  0.4445357954801423  0.0136688927164101  0.6340461757704432  1.0000
  C   C9        1.0  0.6825174716611428  0.4219827781177301  0.2662195010325518  1.0000
  C   C10       1.0  0.1825148105277066  0.0780187659095475  0.2337802565162406  1.0000
  C   C11       1.0  0.3174790498337146  0.5780203099368251  0.7337828066746752  1.0000
  C   C12       1.0  0.8174817109671508  0.921980214597049  0.7662176721566993  1.0000
  C   C13       1.0  0.8870312786470862  0.4374004593771589  0.2398401945264155  1.0000
  C   C14       1.0  0.3870286175136499  0.0626021115371103  0.260159680367579  1.0000
  C   C15       1.0  0.1129711100291217  0.5626016017904121  0.7601597617479001  1.0000
  C   C16       1.0  0.612973771162558  0.9373989227434621  0.7398407170834672  1.0000
  C   C17       1.0  0.6510517781005376  0.6865643184944048  0.1489617243345052  1.0000
  C   C18       1.0  0.1510520505577659  0.8134331253785021  0.3510378439393378  1.0000
  C   C19       1.0  0.3489506105756703  0.3134356888991832  0.851038555771339  1.0000
  C   C20       1.0  0.8489474045277633  0.1865668820150859  0.6489624361665064  1.0000
  C   C21       1.0  0.7986392580732655  0.6571953505964743  0.20519938279920774  1.0000
  C   C22       1.0  0.298639530530501  0.8428041470504084  0.2947998616431136  1.0000
  C   C23       1.0  0.201361663807603  0.3428067105710895  0.7948000149531822  1.0000
  C   C24       1.0  0.7013599245550282  0.1571958603431725  0.7052009769846634  1.0000
  N   N1        1.0  0.9067523419475876  0.3073328995209508  0.05024343191765009  1.0000
  N   N2        1.0  0.4067540812001624  0.19266556384535252  0.44975597359555036  1.0000
  N   N3        1.0  0.0932441795472698  0.6926650540986544  0.9497560549758716  1.0000
  N   N4        1.0  0.5932483074760455  0.807333416661244  0.5502441891650989  1.0000
  N   N5        1.0  0.9728212042937869  0.1888722433063705  0.008329783557179796  1.0000
  N   N6        1.0  0.4728229435463547  0.31112519317294846  0.49167006313274436  1.0000
  N   N7        1.0  0.0271767839964099  0.8111257103132345  0.9916702618582746  1.0000
  N   N8        1.0  0.5271794451298533  0.6888727604466567  0.508329982282703  1.0000
  N   N9        1.0  0.165502918213889  0.1856550063684637  0.013079318949799296  1.0000
  N   N10       1.0  0.6655041125519929  0.3143424301108553  0.4869199692181994  1.0000
  N   N11       1.0  0.834495070076308  0.8143429472511485  0.986920726465655  1.0000
  N   N12       1.0  0.3344968093288756  0.6856565503957412  0.5130796350205244  1.0000
  N   N13       1.0  0.2278769231072033  0.303314690731284  0.058750771180037  1.0000
  N   N14       1.0  0.7278781174453073  0.1966847995220178  0.4412476346345072  1.0000
  N   N15       1.0  0.7721210651829864  0.6966842897753125  0.9412493915806123  1.0000
  N   N16       1.0  0.2721228044355612  0.8033152078715702  0.5587515284274858  1.0000
  N   N17       1.0  0.8800874695236516  0.5202671587638363  0.18098170297934496  1.0000
  N   N18       1.0  0.3800862751855476  0.9797343926570292  0.319017776153366  1.0000
  N   N19       1.0  0.1199105187665452  0.4797338755167361  0.8190181359497757  1.0000
  N   N20       1.0  0.6199131798999815  0.0202656147365587  0.6809825039524782  1.0000
  N   N21       1.0  0.5317734481240635  0.3881807390864012  0.2178141668785187  1.0000
  N   N22       1.0  0.0317707869906201  0.111819778053885  0.2821854733250788  1.0000
  N   N23       1.0  0.4682289405521445  0.6118202951941782  0.7821862305725346  1.0000
  N   N24       1.0  0.9682301348902485  0.888180229339696  0.7178148067807654  1.0000
  N   N25       1.0  0.3688051522518023  0.3922810988352268  0.2609990417998063  1.0000
  N   N26       1.0  0.8688019462038953  0.1077194183050594  0.2390005984037913  1.0000
  N   N27       1.0  0.6311972364243985  0.6077189085583612  0.739001238306045  1.0000
  N   N28       1.0  0.131197508881634  0.8922805890885287  0.7609991231801274  1.0000
  N   N29       1.0  0.4182610906157365  0.42741809095282696  0.3331600613714016  1.0000
  N   N30       1.0  0.9182578845678293  0.0725824261874592  0.1668395788321959  1.0000
  N   N31       1.0  0.5817398312651321  0.5725808895537696  0.6668406599111734  1.0000
  N   N32       1.0  0.0817415705176998  0.9274175812061288  0.8331601427517297  1.0000
  N   N33       1.0  0.6157284128046854  0.4476046353912011  0.3382756400628253  1.0000
  N   N34       1.0  0.115725751671242  0.0523969086360765  0.1617235589640416  1.0000
  N   N35       1.0  0.3842725090761832  0.5523953720023869  0.6617235229991678  1.0000
  N   N36       1.0  0.8842737034142871  0.9476030987575115  0.8382767211418096  1.0000
  N   N37       1.0  0.566391284863009  0.5916768800093593  0.09374243322010048  1.0000
  N   N38       1.0  0.0663915573202445  0.9083226176375235  0.4062568112222209  1.0000
  N   N39       1.0  0.4336096370178595  0.4083231273842287  0.906257846885751  1.0000
  N   N40       1.0  0.9336078977652846  0.0916773897560574  0.593744027405556  1.0000
  N   N41       1.0  0.4404625048304212  0.6612854414754068  0.0582789757812066  1.0000
  N   N42       1.0  0.9404666327591968  0.8387130292844915  0.4417212683597711  1.0000
  N   N43       1.0  0.5595354834597757  0.3387135390311898  0.9417217455013684  1.0000
  N   N44       1.0  0.059534289121671705  0.161285951222105  0.558279452922811  1.0000
  N   N45       1.0  0.4497355849483711  0.7925729430750579  0.09206521039171628  1.0000
  N   N46       1.0  0.9497397128771468  0.7074255276848334  0.4079344752273357  1.0000
  N   N47       1.0  0.5502624033418257  0.2074270643185301  0.9079350697141351  1.0000
  N   N48       1.0  0.0502612090037218  0.2925744797087475  0.5920663634004413  1.0000
  N   N49       1.0  0.5811325779957812  0.8120324515249138  0.1486023667552772  1.0000
  N   N50       1.0  0.081134317248349  0.6879680730089603  0.35139699503223903  1.0000
  N   N51       1.0  0.418866877089755  0.1879685827556656  0.8513974721738435  1.0000
  N   N52       1.0  0.9188651378371803  0.3120319343846205  0.6486032850736121  1.0000
  O   O1        1.0  0.4233435364570397  0.8903243693736442  0.9321876357137312  1.0000
  O   O2        1.0  0.9233432639998043  0.6096751282732384  0.5678127257724412  1.0000
  O   O3        1.0  0.5766559186284965  0.1096746111329523  0.0678130855688437  1.0000
  O   O4        1.0  0.076656191085732  0.3903248791203495  0.43218755433341016  1.0000
