data_image0
_chemical_formula_structural       Zn2H40C56N4O20
_chemical_formula_sum              "Zn2 H40 C56 N4 O20"
_cell_length_a       8.059472260237463
_cell_length_b       12.117313291306022
_cell_length_c       13.470126719578786
_cell_angle_alpha    116.6665615504208
_cell_angle_beta     96.33887106666592
_cell_angle_gamma    89.87163019023279

_space_group_name_H-M_alt    "P 1"
_space_group_IT_number       1

loop_
  _space_group_symop_operation_xyz
  'x, y, z'

loop_
  _atom_site_type_symbol
  _atom_site_label
  _atom_site_symmetry_multiplicity
  _atom_site_fract_x
  _atom_site_fract_y
  _atom_site_fract_z
  _atom_site_occupancy
  Zn  Zn1       1.0  0.00010217337487009961  0.9999804446604017  0.999982719115998  1.0000
  Zn  Zn2       1.0  0.5000719153126738  1.9535946044900013e-05  2.438395452490071e-05  1.0000
  H   H1        1.0  0.8949581827938358  0.6598874203879747  0.012185382964489138  1.0000
  H   H2        1.0  0.6047349420726744  0.6481932537996187  0.9876850101753261  1.0000
  H   H3        1.0  0.10504108705993791  0.34010040193943075  0.987801162916888  1.0000
  H   H4        1.0  0.39525747103579073  0.3518223861496423  0.012319505917560054  1.0000
  H   H5        1.0  0.776187574143279  0.27108885137052857  0.8075986778609587  1.0000
  H   H6        1.0  0.7232597546407645  0.46320556274896757  0.19234210494313683  1.0000
  H   H7        1.0  0.22379564892989381  0.7289037051845784  0.1923997426226904  1.0000
  H   H8        1.0  0.27665534516607687  0.5367387010020225  0.8076152481703857  1.0000
  H   H9        1.0  0.8745911285342343  0.2905086502168572  0.6454319818347257  1.0000
  H   H10       1.0  0.6252943832793392  0.6449343345453755  0.3545973007808599  1.0000
  H   H11       1.0  0.1253136264396488  0.7094661573106295  0.3545397203909105  1.0000
  H   H12       1.0  0.3746410488268665  0.35501844681436273  0.6453826928938469  1.0000
  H   H13       1.0  0.8461171451696783  0.8577052159891992  0.10366397660373398  1.0000
  H   H14       1.0  0.6549184466799289  0.753965914075373  0.89596328546493  1.0000
  H   H15       1.0  0.15396092016730728  0.14232840756625362  0.8963017842062441  1.0000
  H   H16       1.0  0.34520349765870145  0.2460295102205948  0.10404983603810791  1.0000
  H   H17       1.0  0.8851927718844053  0.8422727612875817  0.28293665391854717  1.0000
  H   H18       1.0  0.6159612714585022  0.5595285753924346  0.7169609536661525  1.0000
  H   H19       1.0  0.11478536236328549  0.15776086968087813  0.71702646771552  1.0000
  H   H20       1.0  0.3839859385525628  0.4404726089790998  0.2830687710580264  1.0000
  H   H21       1.0  0.2251153322147275  0.16497021852328694  0.4159440830968889  1.0000
  H   H22       1.0  0.2732236381649003  0.749066667023655  0.584088018804472  1.0000
  H   H23       1.0  0.7749105531680341  0.8350417122383006  0.5840591116566285  1.0000
  H   H24       1.0  0.7267533724166099  0.25101081784553964  0.4160178876180183  1.0000
  H   H25       1.0  0.17849862096947788  0.16116162412406965  0.22792405546271513  1.0000
  H   H26       1.0  0.3193885500184094  0.9328798538026107  0.7719305177525868  1.0000
  H   H27       1.0  0.8216095424274101  0.8388465232089571  0.7720723452793619  1.0000
  H   H28       1.0  0.6807358592256563  0.0671946889897868  0.2281631588733717  1.0000
  H   H29       1.0  0.15243691424324618  0.9208370370934205  0.4706896907350141  1.0000
  H   H30       1.0  0.3471386529845262  0.4509016053675268  0.5293009875159811  1.0000
  H   H31       1.0  0.8475076612122835  0.07916717559953673  0.5292771985002602  1.0000
  H   H32       1.0  0.6527571128728694  0.5491368679535498  0.4707703129330625  1.0000
  H   H33       1.0  0.1608290270177051  0.0836427985624368  0.5377394673529068  1.0000
  H   H34       1.0  0.33942962751644495  0.5466380340951248  0.46208484290885826  1.0000
  H   H35       1.0  0.8391457989002192  0.9163504614172027  0.4622378475863869  1.0000
  H   H36       1.0  0.6604636089854948  0.45338191211578766  0.537975960102834  1.0000
  H   H37       1.0  0.0182564738734996  0.3992060535055657  0.4811744306785073  1.0000
  H   H38       1.0  0.482194814931553  0.9180090562861598  0.5188772004808443  1.0000
  H   H39       1.0  0.981706968782369  0.6007873187937136  0.5188132569455064  1.0000
  H   H40       1.0  0.517803785270125  0.08194023780075813  0.4811237145147658  1.0000
  C   C1        1.0  0.9369174230323338  0.48602525659149637  0.7371267664229393  1.0000
  C   C2        1.0  0.562944846804264  0.7490993792549362  0.26283702635801387  1.0000
  C   C3        1.0  0.06299796251275323  0.5139578389212007  0.2628452656802481  1.0000
  C   C4        1.0  0.43702861479556526  0.250880304846774  0.7371630198921082  1.0000
  C   C5        1.0  0.9456466735563679  0.5904001767776706  0.8428692215650243  1.0000
  C   C6        1.0  0.5542687737722858  0.7479546972417168  0.15709163886751312  1.0000
  C   C7        1.0  0.054303693838456  0.4095838883887453  0.1571086491357789  1.0000
  C   C8        1.0  0.44573903696601047  0.2520498829280911  0.8429125540108515  1.0000
  C   C9        1.0  0.8850656779248567  0.5793037793553995  0.930928398419553  1.0000
  C   C10       1.0  0.614603346003662  0.6487401942436792  0.06896709047270384  1.0000
  C   C11       1.0  0.11489671031852569  0.4206904160535458  0.06904988911638557  1.0000
  C   C12       1.0  0.3853829274725413  0.3512577874185823  0.9310218193309436  1.0000
  C   C13       1.0  0.8156951682332334  0.46660776593024883  0.9159437347075325  1.0000
  C   C14       1.0  0.683793175207832  0.5507555354394074  0.0839906177298532  1.0000
  C   C15       1.0  0.18425803010676836  0.533382874813043  0.08404659665006169  1.0000
  C   C16       1.0  0.31618287061739636  0.4492211496257852  0.9159868919570257  1.0000
  C   C17       1.0  0.8198654190054949  0.35991192427915314  0.8148459804698048  1.0000
  C   C18       1.0  0.6795995591199429  0.5449548745411337  0.18509336823841951  1.0000
  C   C19       1.0  0.18008412272904908  0.6400786449476783  0.1851373809248855  1.0000
  C   C20       1.0  0.32031730750756543  0.45501632440747386  0.8148859296979012  1.0000
  C   C21       1.0  0.8782093861436167  0.3714076421429553  0.726501218194265  1.0000
  C   C22       1.0  0.6215295445940396  0.6449054941130683  0.27349918685717267  1.0000
  C   C23       1.0  0.12170856628046066  0.6285783298488639  0.27348178870708745  1.0000
  C   C24       1.0  0.37839975957609073  0.3550452406777396  0.7264609990515963  1.0000
  C   C25       1.0  0.027456165684178302  0.7169501558765959  0.8741931171671808  1.0000
  C   C26       1.0  0.47293475036051547  0.8434712110069995  0.1256052548753885  1.0000
  C   C27       1.0  0.9725378450675423  0.282991977956712  0.1257392977304761  1.0000
  C   C28       1.0  0.5271410583000532  0.1565417264310796  0.8744078239856989  1.0000
  C   C29       1.0  0.9752922209704876  0.4951342449627989  0.6362369872154688  1.0000
  C   C30       1.0  0.5245534526356579  0.8590283218626312  0.363646550160837  1.0000
  C   C31       1.0  0.024628708887199504  0.5048552558917337  0.3637312971374982  1.0000
  C   C32       1.0  0.4754444863617451  0.14092832323318313  0.6363527787615553  1.0000
  C   C33       1.0  0.9320169121511552  0.9213393396847849  0.17448873277009375  1.0000
  C   C34       1.0  0.568351220696222  0.7468297456354238  0.8252584816494063  1.0000
  C   C35       1.0  0.06803694297090597  0.0786712257145155  0.8254728455061126  1.0000
  C   C36       1.0  0.4317477274591894  0.2531963498308443  0.17478076244539412  1.0000
  C   C37       1.0  0.9530074476310658  0.9154096035984127  0.27562785418578534  1.0000
  C   C38       1.0  0.5475380647480748  0.639900063920102  0.7242122098191713  1.0000
  C   C39       1.0  0.0469845549831334  0.0846083043144006  0.7243292739431338  1.0000
  C   C40       1.0  0.45247413111917467  0.36012062023542774  0.27583506084840087  1.0000
  C   C41       1.0  0.058594605295816386  0.0037584206526303995  0.3660500821569243  1.0000
  C   C42       1.0  0.44124443804417257  0.6378859390894007  0.6338791341530338  1.0000
  C   C43       1.0  0.9413812699339701  0.9962486642480002  0.633928335813202  1.0000
  C   C44       1.0  0.5587242689463068  0.36215800240182017  0.36618912094284883  1.0000
  C   C45       1.0  0.1400832882495706  0.09438726670313001  0.34897992623194796  1.0000
  C   C46       1.0  0.3587151727367228  0.7453936147287907  0.6510144062936334  1.0000
  C   C47       1.0  0.8599368368033853  0.905611590730672  0.651005795439751  1.0000
  C   C48       1.0  0.6413079596171016  0.2546644140582686  0.34908186196337  1.0000
  C   C49       1.0  0.11509877736234128  0.09348982444466002  0.24484571635748856  1.0000
  C   C50       1.0  0.38346861101101837  0.8484156665240618  0.755085680043777  1.0000
  C   C51       1.0  0.8850066073320803  0.906530257874401  0.7551470538159107  1.0000
  C   C52       1.0  0.616615582465549  0.15165614071015912  0.24500925270445606  1.0000
  C   C53       1.0  0.0828613198926931  0.0018875335444122  0.47747388776488003  1.0000
  C   C54       1.0  0.4170985518419386  0.5247848801052442  0.5224635928264121  1.0000
  C   C55       1.0  0.9170959544125026  0.9981204220695973  0.5224990999592904  1.0000
  C   C56       1.0  0.5828023395179115  0.4752359160003366  0.4775906665267867  1.0000
  N   N1        1.0  0.0116288613880187  0.0089977770878207  0.15993620266859654  1.0000
  N   N2        1.0  0.4877258619102419  0.8488624994252304  0.8398942638829539  1.0000
  N   N3        1.0  0.9884827147856184  0.9909998878956617  0.8400265855894491  1.0000
  N   N4        1.0  0.5124221809716262  0.1511720860305488  0.1601659402401978  1.0000
  O   O1        1.0  0.9358942545476765  0.8060999418240088  0.9257426586551459  1.0000
  O   O2        1.0  0.5652485150152059  0.8811485574587508  0.07463220174805239  1.0000
  O   O3        1.0  0.0641680340824209  0.19389133954449284  0.07422449166870851  1.0000
  O   O4        1.0  0.4348795041098938  0.1188665303249934  0.9254121654370948  1.0000
  O   O5        1.0  0.7498532992920558  0.0319260166427782  0.9989795671035465  1.0000
  O   O6        1.0  0.2503103324483291  0.9681188406153396  0.0010947272262456014  1.0000
  O   O7        1.0  0.1739257852751663  0.720907616264917  0.853293077457252  1.0000
  O   O8        1.0  0.32597319404733577  0.8682099322444687  0.14555538387137557  1.0000
  O   O9        1.0  0.8260139671964167  0.2789812405114419  0.1465623834234648  1.0000
  O   O10       1.0  0.6741036094728085  0.13181198832973007  0.8544360856482952  1.0000
  O   O11       1.0  0.9671085477232352  0.5941289269248601  0.6287914875776154  1.0000
  O   O12       1.0  0.5320553664926138  0.9653234539676134  0.3708666041787153  1.0000
  O   O13       1.0  0.0327633238927092  0.40585303206238177  0.3711584426811855  1.0000
  O   O14       1.0  0.4679659326282319  0.03464812866190672  0.6291529294981189  1.0000
  O   O15       1.0  0.010557653838795008  0.3887969224593563  0.5528669727589772  1.0000
  O   O16       1.0  0.4899108121565874  0.8360659520479601  0.4472015469267916  1.0000
  O   O17       1.0  0.9894286659660663  0.6112019995425372  0.4471237981556868  1.0000
  O   O18       1.0  0.5100556822984571  0.1638869583265148  0.5527918403815022  1.0000
  O   O19       1.0  0.7496334901954638  0.4526014172318043  0.9999538531476659  1.0000
  O   O20       1.0  0.25033260491191806  0.5473762120273591  2.5551661906340715e-05  1.0000
