data_image0
_chemical_formula_structural       Zn2H24C64N14O16
_chemical_formula_sum              "Zn2 H24 C64 N14 O16"
_cell_length_a       18.482408182765855
_cell_length_b       19.16006749752656
_cell_length_c       19.653539240446314
_cell_angle_alpha    88.76756142990472
_cell_angle_beta     89.99036109179367
_cell_angle_gamma    89.9349501458198

_space_group_name_H-M_alt    "P 1"
_space_group_IT_number       1

loop_
  _space_group_symop_operation_xyz
  'x, y, z'

loop_
  _atom_site_type_symbol
  _atom_site_label
  _atom_site_symmetry_multiplicity
  _atom_site_fract_x
  _atom_site_fract_y
  _atom_site_fract_z
  _atom_site_occupancy
  Zn  Zn1       1.0  0.4228741837864262  0.49976248746871504  0.49863175467832127  1.0000
  Zn  Zn2       1.0  0.5772896745709417  0.4996290032681259  0.4990055069876578  1.0000
  H   H1        1.0  0.383523023980068  0.2800759908150567  0.5105998632861031  1.0000
  H   H2        1.0  0.6158832298985217  0.7186833722052627  0.5079207635481213  1.0000
  H   H3        1.0  0.38373679291324686  0.7190825798728187  0.5079790664215622  1.0000
  H   H4        1.0  0.6157186151203007  0.28014538001698247  0.5098287897124862  1.0000
  H   H5        1.0  0.38338848261327735  0.1499481992575085  0.5263560654427195  1.0000
  H   H6        1.0  0.6163631402769526  0.8480978964709324  0.524707232498578  1.0000
  H   H7        1.0  0.3834418962442712  0.8484916795900193  0.5248402837829644  1.0000
  H   H8        1.0  0.6163323353381857  0.15002318987412622  0.5256415473995659  1.0000
  H   H9        1.0  0.45779025403592033  0.3909441319320734  0.0538798594841765  1.0000
  H   H10       1.0  0.5402984532778133  0.6135438029932061  0.9438830882733029  1.0000
  H   H11       1.0  0.4572253269189659  0.4044206935329627  0.927749687311902  1.0000
  H   H12       1.0  0.5419527261510169  0.5997101638816958  0.07001265100034001  1.0000
  H   H13       1.0  0.1687250637039241  0.5828232081869374  0.42267928800580273  1.0000
  H   H14       1.0  0.8315628876801495  0.4169163950117252  0.5755551517041085  1.0000
  H   H15       1.0  0.16869908679593243  0.41739819069805867  0.5760041681719842  1.0000
  H   H16       1.0  0.8310392234351622  0.5829226177113611  0.42278425848391527  1.0000
  H   H17       1.0  0.0666062448104441  0.48073853706710423  0.6077092219575634  1.0000
  H   H18       1.0  0.9333511516840499  0.5190765360274981  0.3902427703232121  1.0000
  H   H19       1.0  0.06669336473846951  0.5190715613253689  0.39027910942080274  1.0000
  H   H20       1.0  0.9333008729264306  0.4806585455529843  0.6076672426594529  1.0000
  H   H21       1.0  0.692819615336532  0.43904502043741916  0.08135956431765831  1.0000
  H   H22       1.0  0.27832987907006407  0.46467366371856406  0.8706189100998004  1.0000
  H   H23       1.0  0.7129638832788033  0.5793560394077062  0.8772742790995663  1.0000
  H   H24       1.0  0.30024422966051384  0.5341987917758361  0.09068961143603362  1.0000
  C   C1        1.0  0.5009171502167717  0.5058316297233177  0.632640048562017  1.0000
  C   C2        1.0  0.5006257293527127  0.49449712488616626  0.3655439098062629  1.0000
  C   C3        1.0  0.5006188078907101  0.488016141340836  0.1451143689025045  1.0000
  C   C4        1.0  0.49896089747026906  0.5157151547346644  0.8527892756583313  1.0000
  C   C5        1.0  0.5008173611462752  0.48771468272252605  0.2893472428053485  1.0000
  C   C6        1.0  0.5002295762849511  0.5142527691977536  0.7086471978806871  1.0000
  C   C7        1.0  0.4753829038133616  0.4397968929668324  0.0297564409844142  1.0000
  C   C8        1.0  0.5230975963015965  0.564552192776887  0.9680436175924856  1.0000
  C   C9        1.0  0.4747621068632739  0.4474538210048565  0.9592048149200852  1.0000
  C   C10       1.0  0.5238855870345488  0.5568783068207211  0.038602373344247105  1.0000
  C   C11       1.0  0.49865224669383673  0.5097625132557584  0.9280773713787983  1.0000
  C   C12       1.0  0.5000576863530241  0.49451959833590553  0.0697705105438757  1.0000
  C   C13       1.0  0.27109055593543724  0.5444054374877255  0.4586532607448178  1.0000
  C   C14       1.0  0.7291056957657458  0.45554998896575694  0.5401253401803814  1.0000
  C   C15       1.0  0.27106209220628585  0.45606954388829724  0.5405298535861931  1.0000
  C   C16       1.0  0.7287994212506845  0.5443376490785996  0.4586820650134413  1.0000
  C   C17       1.0  0.19548186115785168  0.5453534254795045  0.4566729727685869  1.0000
  C   C18       1.0  0.8047162034896189  0.4544482451680312  0.5417039950762687  1.0000
  C   C19       1.0  0.1954439944466557  0.45483897583320526  0.5420371843293879  1.0000
  C   C20       1.0  0.8044058868698228  0.545317653789489  0.45666922564864626  1.0000
  C   C21       1.0  0.15589891963398367  0.4999867917702261  0.4991777672145974  1.0000
  C   C22       1.0  0.8441060279113372  0.49982196533119355  0.4990292034901245  1.0000
  C   C23       1.0  0.037576017815133894  0.48798637987301424  0.5597524613934723  1.0000
  C   C24       1.0  0.96239817770207  0.5117871838373205  0.43818831369382844  1.0000
  C   C25       1.0  0.037628904212191096  0.5117900215285475  0.43821232741455424  1.0000
  C   C26       1.0  0.9623945479261949  0.4879431310641565  0.5597370822620321  1.0000
  C   C27       1.0  0.9238094189718351  0.49982644144289184  0.4989465817779859  1.0000
  C   C28       1.0  0.0762021441429539  0.4998855152054846  0.49899416380183953  1.0000
  C   C29       1.0  0.49941535075206633  0.3652912469526158  0.5025356403984063  1.0000
  C   C30       1.0  0.4997778909031184  0.633982038813926  0.5015522690377594  1.0000
  C   C31       1.0  0.43402195220295425  0.25090264061700657  0.5133042338520823  1.0000
  C   C32       1.0  0.5654913865692777  0.7477562385732314  0.511940945808206  1.0000
  C   C33       1.0  0.4341793434920902  0.7479896133375377  0.5119223159486026  1.0000
  C   C34       1.0  0.565313406902966  0.25094019447936233  0.5128364604038965  1.0000
  C   C35       1.0  0.4339819608167374  0.1787872042679695  0.5221114973950236  1.0000
  C   C36       1.0  0.5657104569777616  0.819452243505218  0.5209814205019114  1.0000
  C   C37       1.0  0.4340526660874742  0.8196812685777818  0.5210253597779514  1.0000
  C   C38       1.0  0.5656234715839689  0.17882118878127778  0.5216773402521611  1.0000
  C   C39       1.0  0.49987268994321704  0.1421625819381163  0.5269822711359708  1.0000
  C   C40       1.0  0.4999069979746906  0.8559311389035502  0.5263590605133572  1.0000
  C   C41       1.0  0.4995993701478554  0.28749092693119854  0.5090359584516193  1.0000
  C   C42       1.0  0.499808212612848  0.7114868923630128  0.5080409268446502  1.0000
  C   C43       1.0  0.4999692026040065  0.93135164217982  0.5375919579294931  1.0000
  C   C44       1.0  0.49996741903687064  0.06621033129987812  0.5379174251846806  1.0000
  C   C45       1.0  0.5666078631632631  0.4873325132387907  0.25289713106869277  1.0000
  C   C46       1.0  0.4341054921149022  0.5154517053009116  0.7444381303012265  1.0000
  C   C47       1.0  0.5655553849381647  0.5188764605154149  0.7453071022630838  1.0000
  C   C48       1.0  0.4351210276598748  0.48366306788612695  0.25315583344512055  1.0000
  C   C49       1.0  0.5661544877399436  0.4882391146081133  0.1811413926586667  1.0000
  C   C50       1.0  0.4337860232555427  0.5149093151801409  0.8162403119124807  1.0000
  C   C51       1.0  0.564521843636264  0.5200534325625769  0.817073999356829  1.0000
  C   C52       1.0  0.4354451096540116  0.48365679113870635  0.1814515875516705  1.0000
  C   C53       1.0  0.6358170404368124  0.4827965577527565  0.2856733880849518  1.0000
  C   C54       1.0  0.3653960731604329  0.5206965628899881  0.7107894593496911  1.0000
  C   C55       1.0  0.6350475671792141  0.5218348274941462  0.7129061279671447  1.0000
  C   C56       1.0  0.36573777038497474  0.4803290501142358  0.28570980853427136  1.0000
  C   C57       1.0  0.636065661541707  0.4920273288268648  0.1418534329809447  1.0000
  C   C58       1.0  0.36353123228454354  0.5172519889466258  0.8548718971696377  1.0000
  C   C59       1.0  0.6344105851218628  0.5201860462794486  0.856455737209643  1.0000
  C   C60       1.0  0.36549526199127064  0.4784257179205157  0.14261782378795831  1.0000
  C   C61       1.0  0.3077316245713106  0.5942366216342024  0.4153663123593462  1.0000
  C   C62       1.0  0.692677601518902  0.40591310467141284  0.583769682804956  1.0000
  C   C63       1.0  0.30752733160262835  0.4067910800361004  0.5846286495984145  1.0000
  C   C64       1.0  0.691936670609351  0.5946038774769421  0.41598791821743225  1.0000
  N   N1        1.0  0.5641939347320531  0.03283510337525541  0.5459024445903752  1.0000
  N   N2        1.0  0.4358214412282989  0.9643199479795757  0.5462118487676692  1.0000
  N   N3        1.0  0.5641896695383506  0.9641873136684892  0.5457503654604566  1.0000
  N   N4        1.0  0.43581163774994275  0.03295884260560911  0.5463883510864136  1.0000
  N   N5        1.0  0.3092639982763998  0.5002176238348851  0.49962338725086414  1.0000
  N   N6        1.0  0.6907903436900539  0.49988239709134785  0.49943468548818265  1.0000
  N   N7        1.0  0.6957258813854422  0.47569937637901216  0.3035305698546082  1.0000
  N   N8        1.0  0.30559924848600417  0.5287261156947523  0.6929195465099626  1.0000
  N   N9        1.0  0.6956043924627691  0.526003870114927  0.6961757795280903  1.0000
  N   N10       1.0  0.30522956152830716  0.47622629011855383  0.3026005113533756  1.0000
  N   N11       1.0  0.3296858380608398  0.638005390867214  0.37876343911683114  1.0000
  N   N12       1.0  0.6710006360935522  0.36246443004195333  0.6208893194765396  1.0000
  N   N13       1.0  0.3289628824054062  0.36373719676594624  0.6223601590765712  1.0000
  N   N14       1.0  0.669612051473855  0.6389115807683086  0.3801634804708556  1.0000
  O   O1        1.0  0.4396821900568141  0.5024561886518271  0.6040539076371942  1.0000
  O   O2        1.0  0.5618973374151963  0.4981986439239848  0.39397296402351156  1.0000
  O   O3        1.0  0.43907265954891267  0.49691517026591475  0.39372417913673274  1.0000
  O   O4        1.0  0.5625170274741434  0.5017641922365143  0.6049027060795638  1.0000
  O   O5        1.0  0.43803762609411473  0.3957304769226796  0.5004875891345861  1.0000
  O   O6        1.0  0.5610715252427879  0.6034613378622709  0.5004433283452273  1.0000
  O   O7        1.0  0.4384632477207262  0.6037354264884841  0.49895917299507897  1.0000
  O   O8        1.0  0.5606353751169308  0.39586421507249275  0.4999321356233111  1.0000
  O   O9        1.0  0.6753515977771086  0.5429387312282401  0.1397663051859368  1.0000
  O   O10       1.0  0.6485009417405719  0.4321835180156199  0.10822123117370812  1.0000
  O   O11       1.0  0.3445524725548522  0.5661997896001055  0.8891263558515234  1.0000
  O   O12       1.0  0.32447268375460675  0.458209657211704  0.8468670911898073  1.0000
  O   O13       1.0  0.6584448589834793  0.46960765106358354  0.8874069750375567  1.0000
  O   O14       1.0  0.666620853974642  0.5836580295210966  0.8531588165512789  1.0000
  O   O15       1.0  0.333092908342266  0.4239804342401429  0.13451521302782515  1.0000
  O   O16       1.0  0.3445701339472008  0.5414290502019057  0.11712056015112891  1.0000
