data_image0
_chemical_formula_structural       Zn4H52C56N8O28
_chemical_formula_sum              "Zn4 H52 C56 N8 O28"
_cell_length_a       9.53068147628701
_cell_length_b       9.738010267667265
_cell_length_c       19.088699756478874
_cell_angle_alpha    95.09124356277239
_cell_angle_beta     101.2532709692953
_cell_angle_gamma    111.11593309739686

_space_group_name_H-M_alt    "P 1"
_space_group_IT_number       1

loop_
  _space_group_symop_operation_xyz
  'x, y, z'

loop_
  _atom_site_type_symbol
  _atom_site_label
  _atom_site_symmetry_multiplicity
  _atom_site_fract_x
  _atom_site_fract_y
  _atom_site_fract_z
  _atom_site_occupancy
  Zn  Zn1       1.0  0.6430882008615768  0.21077666665482295  0.02299070093690861  1.0000
  Zn  Zn2       1.0  0.35690810170491005  0.7892265381027953  0.9770087816709536  1.0000
  Zn  Zn3       1.0  0.2700478137794207  0.1622692892339401  0.5185661575010985  1.0000
  Zn  Zn4       1.0  0.7299570525243338  0.8377284679240801  0.4814328258853991  1.0000
  H   H1        1.0  0.8753672637046037  0.29747810934964747  0.9421591767640866  1.0000
  H   H2        1.0  0.12463118811872674  0.7025251197756004  0.057840513018859986  1.0000
  H   H3        1.0  0.42982683094044905  0.4600618004141592  0.6019654404508403  1.0000
  H   H4        1.0  0.5701769607348837  0.5399359445600495  0.39803343934811153  1.0000
  H   H5        1.0  0.203142684565222  0.16358703721675025  0.028387714304088305  1.0000
  H   H6        1.0  0.7968462293159319  0.8364027400025761  0.9716098657371649  1.0000
  H   H7        1.0  0.9277122285445145  0.10549263744052689  0.18514939393480032  1.0000
  H   H8        1.0  0.07229317393121447  0.8945228630490546  0.81485419426366  1.0000
  H   H9        1.0  0.34493528495430337  0.016143498752128893  0.22599338782458037  1.0000
  H   H10       1.0  0.6550593043107114  0.9838607801485324  0.7740070320341916  1.0000
  H   H11       1.0  0.3456398669613208  0.16798025736879643  0.9181819744632381  1.0000
  H   H12       1.0  0.6543557646807798  0.8320185174772163  0.0818156509239216  1.0000
  H   H13       1.0  0.2930962577120937  0.1116873910617073  0.8224754303167148  1.0000
  H   H14       1.0  0.7069000469319418  0.8883158713592036  0.1775209120162273  1.0000
  H   H15       1.0  0.32866077251446774  0.29726743657370497  0.8589395644668018  1.0000
  H   H16       1.0  0.6713430534897498  0.7027358823022637  0.1410590731164021  1.0000
  H   H17       1.0  0.9935224145593508  0.35864303961774613  0.8305556499095632  1.0000
  H   H18       1.0  0.006477111546146759  0.6413601920807678  0.16944466684007153  1.0000
  H   H19       1.0  0.9271084033899016  0.49406820661160106  0.7965228285016013  1.0000
  H   H20       1.0  0.072892836363323  0.5059339605544224  0.20347602761797395  1.0000
  H   H21       1.0  0.8579039355074514  0.31205466771840656  0.7449500429081298  1.0000
  H   H22       1.0  0.1420968665590934  0.6879463528842038  0.25505028568120036  1.0000
  H   H23       1.0  0.30671944119596617  0.9628528657270793  0.62128077699132  1.0000
  H   H24       1.0  0.6932766250164804  0.03714696918740399  0.37872008633844  1.0000
  H   H25       1.0  0.3372672495365805  0.985894288980617  0.7173622477328934  1.0000
  H   H26       1.0  0.6627251557964371  0.014104382040102299  0.282638730545699  1.0000
  H   H27       1.0  0.491591298637651  0.9932932161284708  0.6769515475832152  1.0000
  H   H28       1.0  0.5083997957129114  0.006702072865301997  0.3230507078297435  1.0000
  H   H29       1.0  0.5912993816247365  0.6704415187134956  0.7116066825734039  1.0000
  H   H30       1.0  0.40870894318703693  0.32955959678635344  0.28839384774957477  1.0000
  H   H31       1.0  0.7460633962845478  0.6291389137011834  0.7599593572170847  1.0000
  H   H32       1.0  0.2539451302061125  0.3708599881295028  0.24004055797889384  1.0000
  H   H33       1.0  0.5851739603187553  0.6121208747578849  0.7969129270219784  1.0000
  H   H34       1.0  0.4148336925298537  0.38787578199870854  0.20308731621776135  1.0000
  H   H35       1.0  0.8698463614566024  0.6766430556910095  0.3287427798531724  1.0000
  H   H36       1.0  0.1301608894192654  0.3233580668461257  0.6712566001239609  1.0000
  H   H37       1.0  0.00241543148575827  0.30170382206203067  0.3573016030400639  1.0000
  H   H38       1.0  0.9975808045004939  0.6982882925553611  0.6426952237243881  1.0000
  H   H39       1.0  0.24097617783169764  0.7167593798708863  0.5083791184517992  1.0000
  H   H40       1.0  0.7590225726314513  0.2832226521579954  0.49162268462015396  1.0000
  H   H41       1.0  0.7341129738140352  0.50660186812825  0.0679898770495271  1.0000
  H   H42       1.0  0.26588678864550275  0.49340473341339935  0.9320090589782027  1.0000
  H   H43       1.0  0.6961583689867652  0.4305130978969131  0.1369192848907517  1.0000
  H   H44       1.0  0.3038370959978494  0.5694934837411267  0.8630776666493535  1.0000
  H   H45       1.0  0.5174198116043627  0.29920559164756355  0.46158271905090953  1.0000
  H   H46       1.0  0.48258894708523303  0.7007965646996723  0.5384220959729833  1.0000
  H   H47       1.0  0.3875199987702019  0.1475949775661078  0.4096585925424635  1.0000
  H   H48       1.0  0.6124868473628453  0.8524105338671787  0.5903441112052832  1.0000
  H   H49       1.0  0.9752696794627765  0.9687340574629457  0.34874585243482414  1.0000
  H   H50       1.0  0.02473518441716749  0.03126363242122918  0.6512567946057359  1.0000
  H   H51       1.0  0.7077895289006405  0.20634801822228604  0.20313664113561464  1.0000
  H   H52       1.0  0.2922046247552572  0.7936551717782551  0.7968621109180063  1.0000
  C   C1        1.0  0.28557814420346256  0.08407995974877021  0.12382199925348662  1.0000
  C   C2        1.0  0.714418157670508  0.9159232257877505  0.8761785301126752  1.0000
  C   C3        1.0  0.1817282663100599  0.1296808034457797  0.07935750045930941  1.0000
  C   C4        1.0  0.8182645430732621  0.8703134594576978  0.9206412008069693  1.0000
  C   C5        1.0  0.05332461039697729  0.1380494132645396  0.10153328990527652  1.0000
  C   C6        1.0  0.9466734044322038  0.861952688518393  0.8984668255891182  1.0000
  C   C7        1.0  0.0260854400846782  0.0959269839627126  0.1674420154001481  1.0000
  C   C8        1.0  0.9739147572914533  0.9040806872579594  0.8325596351910323  1.0000
  C   C9        1.0  0.13045852418648  0.05060330906332669  0.21210723078564092  1.0000
  C   C10       1.0  0.8695401626058582  0.9494032514628613  0.7878931717919998  1.0000
  C   C11       1.0  0.2603940543091525  0.04571996248443359  0.19028740837398322  1.0000
  C   C12       1.0  0.7396031215531239  0.9542854777367255  0.8097122695692678  1.0000
  C   C13       1.0  0.43445700646476126  0.0965921490726345  0.10556747219377632  1.0000
  C   C14       1.0  0.5655386570824205  0.9034121324012856  0.8944335746316839  1.0000
  C   C15       1.0  0.11673818749495983  0.021054267932718997  0.28617005893076464  1.0000
  C   C16       1.0  0.8832613389567925  0.97894897337634  0.7138297344397204  1.0000
  C   C17       1.0  0.9493413943317748  0.19778664879274285  0.055680428103627784  1.0000
  C   C18       1.0  0.050654235925293244  0.8022120876110677  0.9443192908001311  1.0000
  C   C19       1.0  0.3662820934709501  0.20433034918171697  0.8670758387406041  1.0000
  C   C20       1.0  0.6337161247684123  0.7956695869847864  0.13292104473103453  1.0000
  C   C21       1.0  0.5323588790355558  0.24988769819319853  0.8660296430464671  1.0000
  C   C22       1.0  0.4676406141260826  0.750109998045758  0.13396882240231628  1.0000
  C   C23       1.0  0.6028115411324748  0.29325204435703256  0.8085863764579743  1.0000
  C   C24       1.0  0.3971890259650691  0.7067456448446378  0.19141323933666143  1.0000
  C   C25       1.0  0.7610268773534657  0.3250810385679798  0.835829448679661  1.0000
  C   C26       1.0  0.23897523465677034  0.6749233352299271  0.16417117291275932  1.0000
  C   C27       1.0  0.8919667309344275  0.37481234942728736  0.8003157802765346  1.0000
  C   C28       1.0  0.10803450847253523  0.6251898081281837  0.19968359922219045  1.0000
  C   C29       1.0  0.39000856855525967  0.02347838147694859  0.6728142533008425  1.0000
  C   C30       1.0  0.6099851123925647  0.976518068837315  0.3271872601965882  1.0000
  C   C31       1.0  0.43700513445366346  0.1875025003757003  0.6768122968758805  1.0000
  C   C32       1.0  0.5629922080660918  0.8124951330534245  0.323188054914425  1.0000
  C   C33       1.0  0.5293128217249361  0.30462211679915185  0.7357485589757362  1.0000
  C   C34       1.0  0.4706888200010369  0.6953755845863299  0.2642511604064381  1.0000
  C   C35       1.0  0.5397140422651249  0.4372481900088302  0.7097285556296314  1.0000
  C   C36       1.0  0.46029233496868466  0.5627506874542261  0.2902711523912558  1.0000
  C   C37       1.0  0.6195448950381461  0.5953884819681008  0.7462560917118424  1.0000
  C   C38       1.0  0.3804606092461356  0.4046081696419677  0.2537428975944991  1.0000
  C   C39       1.0  0.22744454364939054  0.4330147524979394  0.48296058397551894  1.0000
  C   C40       1.0  0.7725588099930079  0.566981836302304  0.5170402916723447  1.0000
  C   C41       1.0  0.05536193812418589  0.7113347309053567  0.42227546995736287  1.0000
  C   C42       1.0  0.9446351663102419  0.2886594846278854  0.5777288794506036  1.0000
  C   C43       1.0  0.943569352548586  0.6279775202284197  0.3592519305891386  1.0000
  C   C44       1.0  0.056432489124979716  0.3720179194351445  0.6407497905617916  1.0000
  C   C45       1.0  0.9273012589127133  0.4819509917799251  0.3344325553544537  1.0000
  C   C46       1.0  0.07269994616535765  0.5180455918737861  0.6655670663600262  1.0000
  C   C47       1.0  0.018417791146340796  0.4170351613051366  0.3747671542842212  1.0000
  C   C48       1.0  0.9815812320772893  0.5829558721319402  0.6252298855751662  1.0000
  C   C49       1.0  0.13156022539989465  0.5013083643046629  0.4378026654838153  1.0000
  C   C50       1.0  0.8684372855086409  0.4986815103851754  0.5621957432577818  1.0000
  C   C51       1.0  0.1517149832644691  0.6490922246796131  0.4603134887709858  1.0000
  C   C52       1.0  0.8482773534107793  0.3508952985375942  0.5396879739391096  1.0000
  C   C53       1.0  0.07583903482203877  0.868663176276982  0.4477849917705329  1.0000
  C   C54       1.0  0.9241640821200647  0.13133003306957386  0.5522177879783927  1.0000
  C   C55       1.0  0.8150583904020224  0.40135956515164384  0.2641749484167732  1.0000
  C   C56       1.0  0.18494113604972987  0.5986436761574225  0.7358248449537116  1.0000
  N   N1        1.0  0.6422276397645916  0.25541864357705896  0.9240490888123818  1.0000
  N   N2        1.0  0.3577725246676878  0.7445834921840486  0.07595071047794731  1.0000
  N   N3        1.0  0.7798088491667271  0.30217323643799426  0.9049039222160361  1.0000
  N   N4        1.0  0.22019111358666515  0.69783111299229  0.0950964922013  1.0000
  N   N5        1.0  0.3949533336247342  0.24710842824380555  0.6193059865129982  1.0000
  N   N6        1.0  0.6050470317939158  0.7528914746270344  0.3806942444086374  1.0000
  N   N7        1.0  0.45843498083962697  0.39755211045643074  0.6400448449718114  1.0000
  N   N8        1.0  0.5415718330420846  0.602447884738389  0.35995496071677746  1.0000
  O   O1        1.0  0.43875263616795485  0.10397628158761307  0.0385641013234661  1.0000
  O   O2        1.0  0.5612439006750164  0.8960302353498477  0.96143714083739  1.0000
  O   O3        1.0  0.6683877883939857  0.41663279806486025  0.0821390552518082  1.0000
  O   O4        1.0  0.33160982550121787  0.5833737983302639  0.917858626842531  1.0000
  O   O5        1.0  0.442447628729319  0.19607302494050322  0.4601186805482912  1.0000
  O   O6        1.0  0.55756025804952  0.8039269343853872  0.5398838456235995  1.0000
  O   O7        1.0  0.54639561863425  0.10433554448825078  0.15514938453401336  1.0000
  O   O8        1.0  0.45360004525919345  0.8956687465962215  0.8448511389123043  1.0000
  O   O9        1.0  0.976902915134801  0.994311361017424  0.297421235521476  1.0000
  O   O10       1.0  0.0230983225408679  0.005690748485299892  0.702580760873005  1.0000
  O   O11       1.0  0.22859255142070367  0.022524792557518894  0.33259372427571077  1.0000
  O   O12       1.0  0.7714082513383644  0.9774762472661889  0.6674055575553198  1.0000
  O   O13       1.0  0.822124950950517  0.17960854971211396  0.07484035619815188  1.0000
  O   O14       1.0  0.17787309751503239  0.8203991067514805  0.9251605638388015  1.0000
  O   O15       1.0  0.992152765982098  0.26029280343626476  0.004166505550294537  1.0000
  O   O16       1.0  0.007837021194845247  0.7396992092466022  0.9958312698263543  1.0000
  O   O17       1.0  0.17482199095116613  0.28985343089023274  0.47050474780147067  1.0000
  O   O18       1.0  0.8251813633837486  0.7101431771311083  0.5294950810880934  1.0000
  O   O19       1.0  0.349100071872506  0.5178959192598213  0.530420319880392  1.0000
  O   O20       1.0  0.6509002918148566  0.4821039355582709  0.4695825279369999  1.0000
  O   O21       1.0  0.9730550694130358  0.9163860845456425  0.42116263913357  1.0000
  O   O22       1.0  0.0269532210698458  0.08360945705245369  0.5788381334051635  1.0000
  O   O23       1.0  0.20118245170773702  0.9464038140160508  0.49563022550697866  1.0000
  O   O24       1.0  0.798826276461817  0.05359287414545829  0.5043690745619929  1.0000
  O   O25       1.0  0.7434258392429244  0.4630232562805502  0.22526179839533716  1.0000
  O   O26       1.0  0.2565801700007738  0.5369856512542553  0.7747373275263527  1.0000
  O   O27       1.0  0.8005956885666025  0.2615359001017907  0.24634355076368317  1.0000
  O   O28       1.0  0.19940276429550607  0.7384673578551073  0.7536545688817995  1.0000
