data_image0
_chemical_formula_structural       Zn2H36C36S4N8O24
_chemical_formula_sum              "Zn2 H36 C36 S4 N8 O24"
_cell_length_a       7.027047587
_cell_length_b       10.372711755377882
_cell_length_c       15.954
_cell_angle_alpha    100.33105444031749
_cell_angle_beta     90.0
_cell_angle_gamma    90.0

_space_group_name_H-M_alt    "P 1"
_space_group_IT_number       1

loop_
  _space_group_symop_operation_xyz
  'x, y, z'

loop_
  _atom_site_type_symbol
  _atom_site_label
  _atom_site_symmetry_multiplicity
  _atom_site_fract_x
  _atom_site_fract_y
  _atom_site_fract_z
  _atom_site_occupancy
  Zn  Zn1       1.0  0.999991804950902  0.9999951817567662  3.7840842279739926e-07  1.0000
  Zn  Zn2       1.0  0.5000051524483878  2.9398652969999994e-06  0.4999965819683325  1.0000
  H   H1        1.0  0.1389445550086066  0.7592094341898701  0.07610615478455429  1.0000
  H   H2        1.0  0.6389497074569874  0.24079260725259388  0.4238969038515846  1.0000
  H   H3        1.0  0.8610486730150555  0.2407837876566958  0.9238958755095934  1.0000
  H   H4        1.0  0.36104778978494767  0.7592133540102708  0.5761047314192778  1.0000
  H   H5        1.0  0.2904562655553846  0.5412213620685051  0.02514524706111127  1.0000
  H   H6        1.0  0.7904856102406794  0.45877185977806073  0.47485490282686976  1.0000
  H   H7        1.0  0.7095355393955174  0.4587698998678604  0.974852793900254  1.0000
  H   H8        1.0  0.20952754080160926  0.5412321415746034  0.5251458771214955  1.0000
  H   H9        1.0  0.40359054992692467  0.4865330078048942  0.8738132298140683  1.0000
  H   H10       1.0  0.9036099331029062  0.5134582541314643  0.6261904523658045  1.0000
  H   H11       1.0  0.5963984088784569  0.5134602140416646  0.1261862932718572  1.0000
  H   H12       1.0  0.09640464101214258  0.4865418274007993  0.3738111241457814  1.0000
  H   H13       1.0  0.1844131527438861  0.8645771464031428  0.8397531706690131  1.0000
  H   H14       1.0  0.6844040744646804  0.135419995263824  0.6602493166660253  1.0000
  H   H15       1.0  0.8155772291342556  0.1354180353536236  0.160248461343528  1.0000
  H   H16       1.0  0.3155962689227749  0.8645820461786399  0.339748727553669  1.0000
  H   H17       1.0  0.5284438384720431  0.8881097881736436  0.7749747641601914  1.0000
  H   H18       1.0  0.028454339824008894  0.1118912733137236  0.7250275534136745  1.0000
  H   H19       1.0  0.4715493895516118  0.111893233223924  0.2250265283300124  1.0000
  H   H20       1.0  0.9715516958544796  0.8881127280389406  0.27497259973262794  1.0000
  H   H21       1.0  0.8289740360911537  0.9673538573321139  0.7335218007170567  1.0000
  H   H22       1.0  0.3289816912976065  0.0326530838858545  0.766481829220197  1.0000
  H   H23       1.0  0.1710206150052613  0.0326511239756542  0.26647783988742185  1.0000
  H   H24       1.0  0.6710243443808891  0.9673460176913123  0.23351524541677546  1.0000
  H   H25       1.0  0.9333108846641451  0.8071076795658384  0.7144890102789245  1.0000
  H   H26       1.0  0.4333185398705908  0.1928953418317221  0.785510401805105  1.0000
  H   H27       1.0  0.0666823433595169  0.1928953418317221  0.2855078945968827  1.0000
  H   H28       1.0  0.5666832265896247  0.8071017998352374  0.2144914587278777  1.0000
  H   H29       1.0  0.648110026809185  0.6556840375645265  0.6779384585845136  1.0000
  H   H30       1.0  0.14811341279735754  0.3443229036534348  0.8220607837383511  1.0000
  H   H31       1.0  0.3518860473599901  0.3443199637881378  0.32205918735357386  1.0000
  H   H32       1.0  0.851895469026658  0.6556771778788288  0.17793765876296416  1.0000
  H   H33       1.0  0.755092367641879  0.6501864894537377  0.8463265423561095  1.0000
  H   H34       1.0  0.2551014459210919  0.3498155519887263  0.653674009071807  1.0000
  H   H35       1.0  0.244902283454536  0.3498135920785259  0.15367252694725408  1.0000
  H   H36       1.0  0.7449060128301639  0.6501904092741384  0.34632825300111136  1.0000
  C   C1        1.0  0.18587891768606107  0.7316658361952264  0.010708357161917096  1.0000
  C   C2        1.0  0.6858954547165226  0.2683313054717402  0.48929099616284316  1.0000
  C   C3        1.0  0.8141043488282803  0.2683254257411392  0.9892896837994554  1.0000
  C   C4        1.0  0.3141134271074932  0.7316726958809241  0.5107104105875777  1.0000
  C   C5        1.0  0.2740966211134293  0.6110167041531369  0.9822119981184726  1.0000
  C   C6        1.0  0.7741160042894109  0.3889823974240301  0.5177944785493409  1.0000
  C   C7        1.0  0.7258951838374654  0.38898043751382966  0.01779236962273249  1.0000
  C   C8        1.0  0.22589287753459786  0.6110157241980403  0.4822049890356367  1.0000
  C   C9        1.0  0.335618902647397  0.5802167153613169  0.8982096172014237  1.0000
  C   C10       1.0  0.8356382858233786  0.4197774864403527  0.601790020144719  1.0000
  C   C11       1.0  0.6643729023034979  0.41977454657504853  0.10178905056200448  1.0000
  C   C12       1.0  0.16437913443719043  0.580231414687816  0.39820757029241344  1.0000
  C   C13       1.0  0.3027003835771822  0.673086080229666  0.8463276520629817  1.0000
  C   C14       1.0  0.80270268988005  0.3269100814822039  0.6536759746159431  1.0000
  C   C15       1.0  0.69729426751924  0.3269091015271002  0.15367397994955206  1.0000
  C   C16       1.0  0.19730476887120565  0.6730909800051634  0.34632320894764484  1.0000
  C   C17       1.0  0.21226553279067414  0.7908698235594612  0.8788085803833636  1.0000
  C   C18       1.0  0.7122649929480287  0.2091322178830026  0.6211944782527822  1.0000
  C   C19       1.0  0.7877319644512609  0.2091273181075053  0.12119265334756339  1.0000
  C   C20       1.0  0.2877524273125401  0.7908757032900624  0.3788073855385292  1.0000
  C   C21       1.0  0.6504709045170143  0.8208241111000162  0.7718805884008829  1.0000
  C   C22       1.0  0.1504785597234601  0.179179890252648  0.7281201915474824  1.0000
  C   C23       1.0  0.3495265927249206  0.1791789102975514  0.22811819688109125  1.0000
  C   C24       1.0  0.8495288990277883  0.8208211712347123  0.27187961881816136  1.0000
  C   C25       1.0  0.736795921174398  0.8370492276900947  0.8607217492856305  1.0000
  C   C26       1.0  0.2368064225263637  0.1629479139768719  0.6392757236329557  1.0000
  C   C27       1.0  0.2631859222671835  0.1629420342462709  0.139276291675742  1.0000
  C   C28       1.0  0.763202459297645  0.8370482477349981  0.3607203814212951  1.0000
  C   C29       1.0  0.8013265785217172  0.862911222733203  0.71165495436707  1.0000
  C   C30       1.0  0.3013342337281628  0.1370927786194613  0.7883458255812952  1.0000
  C   C31       1.0  0.198668072574705  0.1370917986643576  0.2883438309149113  1.0000
  C   C32       1.0  0.6986689558048125  0.862908282867906  0.21165461158640397  1.0000
  C   C33       1.0  0.7217085037793394  0.8340574247699095  0.6208568040159148  1.0000
  C   C34       1.0  0.22171900513130535  0.1659573560888532  0.8791446059928346  1.0000
  C   C35       1.0  0.2782833011715624  0.16595441622355617  0.3791398755977795  1.0000
  C   C36       1.0  0.7782770690378698  0.8340417454883068  0.12085622945647859  1.0000
  S   S1        1.0  0.3660683904800806  0.648548004526603  0.7378172091814219  1.0000
  S   S2        1.0  0.8660664275646679  0.3514334578587608  0.762184076792124  1.0000
  S   S3        1.0  0.6339347990528947  0.3514344378138645  0.26218105704207056  1.0000
  S   S4        1.0  0.1339424542593477  0.6485578040776048  0.23781521777335968  1.0000
  N   N1        1.0  0.15561727545762236  0.819994089130347  0.9600889372339125  1.0000
  N   N2        1.0  0.6556195817604902  0.180007952312117  0.5399172554125116  1.0000
  N   N3        1.0  0.8443716833477595  0.1800040324917163  0.0399136643613502  1.0000
  N   N4        1.0  0.3443836077724853  0.8199921292201466  0.4600868283072969  1.0000
  N   N5        1.0  0.5947319906772108  0.684242869042734  0.7402867722062749  1.0000
  N   N6        1.0  0.0947353766653833  0.3157611323099232  0.7597121273359164  1.0000
  N   N7        1.0  0.40526550656472426  0.3157591723997299  0.2597106452113635  1.0000
  N   N8        1.0  0.9052749282313926  0.6842409091325408  0.2402884240920002  1.0000
  O   O1        1.0  0.779923564220482  0.7294795563672096  0.8902553731576076  1.0000
  O   O2        1.0  0.2799312194269348  0.2705215051201577  0.6097450640100917  1.0000
  O   O3        1.0  0.22006539458489974  0.2705166053446533  0.10974574631309507  1.0000
  O   O4        1.0  0.7200748162515609  0.7294824962325066  0.3902557159382738  1.0000
  O   O5        1.0  0.7727512775131584  0.9473715928887784  0.9009242760582763  1.0000
  O   O6        1.0  0.2727617788651244  0.0526333884189896  0.5990791253585357  1.0000
  O   O7        1.0  0.2272305659284299  0.05262946859858889  0.09908242912998587  1.0000
  O   O8        1.0  0.7272456798861313  0.947372572843875  0.4009225099123269  1.0000
  O   O9        1.0  0.655031852710863  0.9326330681853392  0.5929791507003299  1.0000
  O   O10       1.0  0.1550110464621213  0.0673738730326221  0.90702071842459  1.0000
  O   O11       1.0  0.34498841369522637  0.0673797527632232  0.4070176431735887  1.0000
  O   O12       1.0  0.8449693739066999  0.9326183688588401  0.09297430278672181  1.0000
  O   O13       1.0  0.7181451295898285  0.7152408087647544  0.5850769321963226  1.0000
  O   O14       1.0  0.21815705401455424  0.2847641725430137  0.9149202011999265  1.0000
  O   O15       1.0  0.2818452522883135  0.284766132453214  0.4149210565224237  1.0000
  O   O16       1.0  0.7818375970818678  0.715232969123953  0.08507852532277128  1.0000
  O   O17       1.0  0.2535004890667736  0.7415594628844459  0.7009543189833493  1.0000
  O   O18       1.0  0.7535127568789546  0.2584298391417192  0.799046000665804  1.0000
  O   O19       1.0  0.7464856235930879  0.2584317990519196  0.29904622918624557  1.0000
  O   O20       1.0  0.24649754801781398  0.7415820018517465  0.2009563201663909  1.0000
  O   O21       1.0  0.3572197240621903  0.5113856490950468  0.6992112966979035  1.0000
  O   O22       1.0  0.8571992612009038  0.4886095326617195  0.8007966033351934  1.0000
  O   O23       1.0  0.6427991192711386  0.48861051261681604  0.30079483718924377  1.0000
  O   O24       1.0  0.1428081975503517  0.5113993684664493  0.19920286750811297  1.0000
