data_image0
_chemical_formula_structural       Cd3H24C34N12Cl6
_chemical_formula_sum              "Cd3 H24 C34 N12 Cl6"
_cell_length_a       8.222690202997894
_cell_length_b       10.80344097647706
_cell_length_c       11.521921135291613
_cell_angle_alpha    70.9814728709362
_cell_angle_beta     85.025744194887
_cell_angle_gamma    82.10518315892647

_space_group_name_H-M_alt    "P 1"
_space_group_IT_number       1

loop_
  _space_group_symop_operation_xyz
  'x, y, z'

loop_
  _atom_site_type_symbol
  _atom_site_label
  _atom_site_symmetry_multiplicity
  _atom_site_fract_x
  _atom_site_fract_y
  _atom_site_fract_z
  _atom_site_occupancy
  Cd  Cd1       1.0  2.0851922503004247e-07  0.9999997015861338  0.4999980512968419  1.0000
  Cd  Cd2       1.0  0.09404747458972912  0.22581589554277304  0.6501764762750993  1.0000
  Cd  Cd3       1.0  0.905955425687992  0.7741815234895739  0.3498212033973473  1.0000
  H   H1        1.0  0.20205489170237462  0.572493457934179  0.19932503303846966  1.0000
  H   H2        1.0  0.7979460661107042  0.42750990018107876  0.8006752836634374  1.0000
  H   H3        1.0  0.03786139137617541  0.4639497485990061  0.38532614921669506  1.0000
  H   H4        1.0  0.9621435694083974  0.5360506496226165  0.6146721625844903  1.0000
  H   H5        1.0  0.45561568207192243  0.2671223481172191  0.573904059851273  1.0000
  H   H6        1.0  0.5443864272163452  0.7328810030327942  0.42609442781941453  1.0000
  H   H7        1.0  0.6384208557990689  0.3651459995780542  0.3941169907023364  1.0000
  H   H8        1.0  0.3615782031361691  0.6348523839347634  0.6058798337433726  1.0000
  H   H9        1.0  0.9844531554442426  0.6164129818779287  0.9246242512781249  1.0000
  H   H10       1.0  0.015546812522664807  0.3835883877893949  0.07537503432754993  1.0000
  H   H11       1.0  0.10145415387021472  0.7621473121220176  0.7306863809201118  1.0000
  H   H12       1.0  0.8985435707411896  0.23785205802201403  0.26931111182584283  1.0000
  H   H13       1.0  0.6394900903961728  0.9531951199824036  0.6201910879655725  1.0000
  H   H14       1.0  0.3605100732111239  0.046804260285291784  0.3798062011108809  1.0000
  H   H15       1.0  0.501660763759304  0.8133764901623193  0.8062027418764257  1.0000
  H   H16       1.0  0.4983404237055424  0.18662488456683946  0.19379644189449852  1.0000
  H   H17       1.0  0.27695326521405417  0.7449280812811594  0.9307838633663149  1.0000
  H   H18       1.0  0.7230478754476694  0.2550742971681217  0.06921761406658078  1.0000
  H   H19       1.0  0.11706297974352964  0.9621044650876057  0.928339124968289  1.0000
  H   H20       1.0  0.8829338994951144  0.037894966143490194  0.0716679691930153  1.0000
  H   H21       1.0  0.19417132170208623  0.07639204092549787  0.06800850644435737  1.0000
  H   H22       1.0  0.8058257403852025  0.9236064106396215  0.9319997484479285  1.0000
  H   H23       1.0  0.5739885468735154  0.7816044914587008  0.20519853742867164  1.0000
  H   H24       1.0  0.426011901616569  0.21839392718363368  0.7948025031734783  1.0000
  C   C1        1.0  0.2650264010026433  0.5076771038169312  0.2802825667077541  1.0000
  C   C2        1.0  0.7349738306274106  0.4923222884778368  0.7197164495651691  1.0000
  C   C3        1.0  0.17178705334465152  0.4471052824403899  0.3851305508978625  1.0000
  C   C4        1.0  0.8282143169688397  0.5528951126227993  0.6148697936040435  1.0000
  C   C5        1.0  0.40402238433512855  0.3363687523966519  0.4898497470149578  1.0000
  C   C6        1.0  0.5959765129710988  0.6636316265293303  0.5101499375582107  1.0000
  C   C7        1.0  0.5059941324537152  0.39108927637879276  0.3892792451928173  1.0000
  C   C8        1.0  0.49400753553430843  0.6089091473253774  0.6107216935745823  1.0000
  C   C9        1.0  0.43613960703520144  0.4763497066106552  0.2807525658850096  1.0000
  C   C10       1.0  0.5638609222693848  0.5236477143250937  0.7192470446534072  1.0000
  C   C11       1.0  0.5462734863641999  0.5137641989778601  0.17184479829832358  1.0000
  C   C12       1.0  0.4537279307524217  0.4862351923652071  0.828153252541618  1.0000
  C   C13       1.0  0.670310376451816  0.6105194194476125  0.9959893286291146  1.0000
  C   C14       1.0  0.3296906281643858  0.38948293494751596  0.004008694410828188  1.0000
  C   C15       1.0  0.7321337465647916  0.703030260614973  0.8828189332994894  1.0000
  C   C16       1.0  0.2678659237275837  0.2969730804113766  0.11717975804069167  1.0000
  C   C17       1.0  0.9035071435717869  0.6892635366389823  0.8593153497669161  1.0000
  C   C18       1.0  0.0964915708857887  0.31073782195296923  0.14068317407527783  1.0000
  C   C19       1.0  0.9693986110498116  0.7705639281505227  0.7514702647303861  1.0000
  C   C20       1.0  0.030601437731590412  0.22943644381022207  0.24852759081156248  1.0000
  C   C21       1.0  0.7113484371427391  0.8771000852365984  0.6896991328729027  1.0000
  C   C22       1.0  0.28865054097799  0.12289929598279765  0.3102991216365395  1.0000
  C   C23       1.0  0.6347455650056305  0.7985935640195405  0.7953259016596589  1.0000
  C   C24       1.0  0.36525422011262526  0.20140878531375958  0.20467222321503434  1.0000
  C   C25       1.0  0.4360419807020009  0.7497590236245557  0.06883505621325983  1.0000
  C   C26       1.0  0.5639587186594924  0.25023842737888197  0.9311688723163412  1.0000
  C   C27       1.0  0.3065350102858417  0.7987353277271722  0.9898204275407421  1.0000
  C   C28       1.0  0.6934642059145517  0.2012640955869854  0.010183872156353939  1.0000
  C   C29       1.0  0.21778570667296288  0.9181750557319289  0.98961260526341  1.0000
  C   C30       1.0  0.7822126557267738  0.08182240318844688  0.0103941177303994  1.0000
  C   C31       1.0  0.26098343505510974  0.9816833899456936  0.06821630747263907  1.0000
  C   C32       1.0  0.7390137758694449  0.018314075939926493  0.9317922445523902  1.0000
  C   C33       1.0  0.470408762245313  0.819564775284931  0.14515382892580672  1.0000
  C   C34       1.0  0.5295917882789071  0.18043366139801256  0.8548498024710509  1.0000
  N   N1        1.0  0.238852979327234  0.36182926846394275  0.48775694307315104  1.0000
  N   N2        1.0  0.7611477956372003  0.6381750693172845  0.5122422128977744  1.0000
  N   N3        1.0  0.6719123389676159  0.4299127650024559  0.15237846850420306  1.0000
  N   N4        1.0  0.32808904413762013  0.570086620327082  0.8476187187375002  1.0000
  N   N5        1.0  0.7485221077717341  0.4900982563278688  0.043081426295678675  1.0000
  N   N6        1.0  0.2514777921724091  0.509903101312382  0.9569161321135196  1.0000
  N   N7        1.0  0.5378705757446554  0.6290796014618678  0.07375839765175844  1.0000
  N   N8        1.0  0.4621307605574572  0.37092078758778496  0.9262410832519091  1.0000
  N   N9        1.0  0.8748422750937407  0.8636439068268161  0.6682071196282774  1.0000
  N   N10       1.0  0.12515788851355583  0.13635547344087937  0.33179016944818324  1.0000
  N   N11       1.0  0.38437754235604893  0.9336134635791989  0.14548468710097495  1.0000
  N   N12       1.0  0.6156219715188769  0.06638398837593935  0.8545202068616075  1.0000
  Cl  Cl1       1.0  0.8379904643052215  0.2137768356526024  0.5557383608545904  1.0000
  Cl  Cl2       1.0  0.16201284326135124  0.7862255048120516  0.4442560041229056  1.0000
  Cl  Cl3       1.0  0.24589378953418617  0.008595184746518198  0.6427832111467422  1.0000
  Cl  Cl4       1.0  0.7541075255482926  0.9914041885559394  0.3572122488984918  1.0000
  Cl  Cl5       1.0  0.09740238728961259  0.292024376955375  0.8299616738472506  1.0000
  Cl  Cl6       1.0  0.9025983248636182  0.7079720643144042  0.17003909742214768  1.0000
