data_image0
_chemical_formula_structural       Nd2H30C24S4O30
_chemical_formula_sum              "Nd2 H30 C24 S4 O30"
_cell_length_a       6.972783008152025
_cell_length_b       10.820817458471303
_cell_length_c       12.239655532526823
_cell_angle_alpha    83.97477417123312
_cell_angle_beta     77.11197584405677
_cell_angle_gamma    89.40780007971436

_space_group_name_H-M_alt    "P 1"
_space_group_IT_number       1

loop_
  _space_group_symop_operation_xyz
  'x, y, z'

loop_
  _atom_site_type_symbol
  _atom_site_label
  _atom_site_symmetry_multiplicity
  _atom_site_fract_x
  _atom_site_fract_y
  _atom_site_fract_z
  _atom_site_occupancy
  Nd  Nd1       1.0  0.2110258559157216  0.5979695271559535  0.21343004988627706  1.0000
  Nd  Nd2       1.0  0.7889740896093399  0.4020281410883372  0.7865719663855799  1.0000
  H   H1        1.0  0.9643582183426246  0.2222845929596389  0.2661056920857732  1.0000
  H   H2        1.0  0.0356417358828054  0.7777149399710839  0.733892067094871  1.0000
  H   H3        1.0  0.7758031904332513  0.5865921894874546  0.1656950495270095  1.0000
  H   H4        1.0  0.22420133602996367  0.41341104245026383  0.8343074946422959  1.0000
  H   H5        1.0  0.8657283971159729  0.4489552797345198  0.16901034202606272  1.0000
  H   H6        1.0  0.1342746332674238  0.5510479591386713  0.8309899452347977  1.0000
  H   H7        1.0  0.3540537841659628  0.3536929834383784  0.09596398868005449  1.0000
  H   H8        1.0  0.6459477499497838  0.6463093294295988  0.9040365782458154  1.0000
  H   H9        1.0  0.26136008783718967  0.43994389364537756  0.010822582247584523  1.0000
  H   H10       1.0  0.7386371082593471  0.5600602844015797  0.9891808298089302  1.0000
  H   H11       1.0  0.8679431490142235  0.4432716942353565  0.39318974689405195  1.0000
  H   H12       1.0  0.132059713748184  0.5567259708923941  0.60680943869324  1.0000
  H   H13       1.0  0.06602209102160118  0.4377164159269639  0.4357509078433496  1.0000
  H   H14       1.0  0.9339765928300565  0.5622877563794617  0.5642539450659002  1.0000
  H   H15       1.0  0.43453996125897726  0.3513310062656175  0.24527290325712411  1.0000
  H   H16       1.0  0.5654660030111598  0.6486722271011658  0.7547261854305987  1.0000
  H   H17       1.0  0.4891074803294515  0.4221993001194022  0.3393160656518077  1.0000
  H   H18       1.0  0.5108998795606183  0.5778011418290561  0.660683096996145  1.0000
  H   H19       1.0  0.8373804476043814  0.7287099209942127  0.3285931944734272  1.0000
  H   H20       1.0  0.16261806881411903  0.27128961050745193  0.6714080201887923  1.0000
  H   H21       1.0  0.9770590604883722  0.8455177506446461  0.2723137795451294  1.0000
  H   H22       1.0  0.02293806012236389  0.15448363933466416  0.727689897730329  1.0000
  H   H23       1.0  0.097044073914617  0.25178922298696454  0.9846415006080848  1.0000
  H   H24       1.0  0.9029589398193849  0.7482140182760945  0.0153571545413342  1.0000
  H   H25       1.0  0.504255411682486  0.9779119280228201  0.8483188768551954  1.0000
  H   H26       1.0  0.4957387163929424  0.022087609946062497  0.1516853597502958  1.0000
  H   H27       1.0  0.31587092749465745  0.21194913193378537  0.4222843568177268  1.0000
  H   H28       1.0  0.6841231504447478  0.7880494802640072  0.5777175200269227  1.0000
  H   H29       1.0  0.17267003882065515  0.840966093822658  0.370768657064545  1.0000
  H   H30       1.0  0.8273298652687445  0.15903251333698168  0.6292267423552573  1.0000
  C   C1        1.0  0.1278523731025913  0.15551914069698114  0.97012451507414  1.0000
  C   C2        1.0  0.8721446975599532  0.8444822564519258  0.02987426586700797  1.0000
  C   C3        1.0  0.31241458187611926  0.12507364390413042  0.9117295095233117  1.0000
  C   C4        1.0  0.6875795380624509  0.8749268282003654  0.08827137445300084  1.0000
  C   C5        1.0  0.35719327133542583  0.0003744432675248005  0.8928370834889136  1.0000
  C   C6        1.0  0.6428023617080284  0.9996278853930038  0.10716261636034834  1.0000
  C   C7        1.0  0.21520542292716974  0.9091648973842867  0.9307200572401939  1.0000
  C   C8        1.0  0.7847887140364733  0.0908374382117145  0.06927738570063012  1.0000
  C   C9        1.0  0.0210949444457214  0.9364146870093465  0.9898847820311901  1.0000
  C   C10       1.0  0.9788991673559906  0.0635867192307629  0.010112749315936833  1.0000
  C   C11       1.0  0.4684277758931543  0.22196730106848148  0.8671436351305104  1.0000
  C   C12       1.0  0.531569202446363  0.7780303774619524  0.13285631549160837  1.0000
  C   C13       1.0  0.3396417161201555  0.11249418091974658  0.4341580317478915  1.0000
  C   C14       1.0  0.6603595832134984  0.8874997689402021  0.565842514779071  1.0000
  C   C15       1.0  0.2290226397740227  0.0323159343039876  0.39113294677895993  1.0000
  C   C16       1.0  0.770983207198995  0.9676835840291246  0.608864863422582  1.0000
  C   C17       1.0  0.2593990807232558  0.9030294187127981  0.4051679866766803  1.0000
  C   C18       1.0  0.7406007562050474  0.09696639918426089  0.5948284940177758  1.0000
  C   C19       1.0  0.4009869787590716  0.8551710975499773  0.45896145335245814  1.0000
  C   C20       1.0  0.599005619937749  0.14482845213410658  0.5410372621217192  1.0000
  C   C21       1.0  0.5171100323640588  0.9338878242437332  0.5065893846562375  1.0000
  C   C22       1.0  0.48288841726901666  0.06611078387671651  0.493407838133706  1.0000
  C   C23       1.0  0.0796259311984286  0.07644316780265112  0.32616567709354877  1.0000
  C   C24       1.0  0.9203485616906162  0.9235415595649313  0.6738318516517836  1.0000
  S   S1        1.0  0.2822511825898744  0.7547565892231205  0.9031759971661515  1.0000
  S   S2        1.0  0.7177459215593058  0.2452457360867371  0.09682351142440383  1.0000
  S   S3        1.0  0.43284315333402645  0.6904301956059699  0.46314183825956684  1.0000
  S   S4        1.0  0.5671568175407983  0.30956933493488503  0.5368575530325188  1.0000
  O   O1        1.0  0.6431615722857769  0.18773557125065574  0.8296661979650892  1.0000
  O   O2        1.0  0.3568398441571644  0.8122611607022845  0.17033816362152274  1.0000
  O   O3        1.0  0.4266472876600673  0.3384477133015197  0.8674392987458006  1.0000
  O   O4        1.0  0.5733541039966212  0.6615499551768947  0.1325600781001981  1.0000
  O   O5        1.0  0.2309125388793802  0.6741791366678102  0.009953768226303313  1.0000
  O   O6        1.0  0.769090399368821  0.3258213165275947  0.9900451521420592  1.0000
  O   O7        1.0  0.16959901467045316  0.7167807342973519  0.8232403775503343  1.0000
  O   O8        1.0  0.830405310872976  0.2832169286746621  0.17675780072253391  1.0000
  O   O9        1.0  0.49607737126943624  0.7597822512674168  0.8546213556994929  1.0000
  O   O10       1.0  0.5039183289351145  0.2402228666556994  0.14537726287512243  1.0000
  O   O11       1.0  0.060889662410552596  0.19938326881959512  0.3146290867251551  1.0000
  O   O12       1.0  0.939111871705194  0.8006190440483748  0.6853714802007218  1.0000
  O   O13       1.0  0.9821736570739857  0.005596298908514502  0.2859688664647706  1.0000
  O   O14       1.0  0.0178340041957554  0.9944124964885008  0.7140368450278274  1.0000
  O   O15       1.0  0.3175853564997339  0.6489708329731557  0.3867430103894876  1.0000
  O   O16       1.0  0.6824175145873711  0.3510268309596611  0.6132569912535217  1.0000
  O   O17       1.0  0.3503564883122793  0.6382259877815244  0.5807824493170557  1.0000
  O   O18       1.0  0.6496449619929692  0.3617735382137327  0.4192175667720335  1.0000
  O   O19       1.0  0.6438561276888988  0.6680806608226106  0.4291969436213847  1.0000
  O   O20       1.0  0.35614691101919493  0.3319225768556464  0.5708041596951858  1.0000
  O   O21       1.0  0.8973035473547882  0.5380325550021183  0.1665091610381495  1.0000
  O   O22       1.0  0.10270097910841969  0.4619706769356073  0.8334933831311488  1.0000
  O   O23       1.0  0.26660721816525523  0.4254111411672385  0.09000592196221648  1.0000
  O   O24       1.0  0.7333898689588523  0.5745893206511141  0.9099970276638345  1.0000
  O   O25       1.0  0.9986295326616171  0.4840675431596324  0.38311194100213447  1.0000
  O   O26       1.0  0.001374692421926196  0.515927335329522  0.6168840543225187  1.0000
  O   O27       1.0  0.4031011205601231  0.42630829773396783  0.2847295124249314  1.0000
  O   O28       1.0  0.5969077690842327  0.573693998380655  0.7152700982074123  1.0000
  O   O29       1.0  0.9616792549439382  0.7542644206178577  0.27395931955108216  1.0000
  O   O30       1.0  0.0383162857764887  0.24573418942419778  0.7260415499791507  1.0000
