data_image0
_chemical_formula_structural       Rb4H32C52S4N8O12F12
_chemical_formula_sum              "Rb4 H32 C52 S4 N8 O12 F12"
_cell_length_a       10.381134051363622
_cell_length_b       13.391986331313124
_cell_length_c       13.3898
_cell_angle_alpha    116.01643589536823
_cell_angle_beta     102.04430799516797
_cell_angle_gamma    102.05341952859322

_space_group_name_H-M_alt    "P 1"
_space_group_IT_number       1

loop_
  _space_group_symop_operation_xyz
  'x, y, z'

loop_
  _atom_site_type_symbol
  _atom_site_label
  _atom_site_symmetry_multiplicity
  _atom_site_fract_x
  _atom_site_fract_y
  _atom_site_fract_z
  _atom_site_occupancy
  Rb  Rb1       1.0  0.47081121035444085  0.9831387072167814  0.1304361740771611  1.0000
  Rb  Rb2       1.0  0.02918940882789659  0.8695642495998328  0.016862767285253676  1.0000
  Rb  Rb3       1.0  0.5291885978469537  0.0168606218949137  0.869563052472152  1.0000
  Rb  Rb4       1.0  0.9708117425101861  0.13043596365564272  0.9831370644320215  1.0000
  H   H1        1.0  0.15670531899519347  0.0128130116675962  0.5467409419238294  1.0000
  H   H2        1.0  0.3432889811285875  0.4532704553948079  0.9871863837884121  1.0000
  H   H3        1.0  0.8432948473744231  0.9871872015878793  0.45325947728171906  1.0000
  H   H4        1.0  0.6567118120412799  0.5467288737168872  0.012813748946925356  1.0000
  H   H5        1.0  0.12172093530924137  0.1259604278385495  0.4392790792729641  1.0000
  H   H6        1.0  0.37828545711615646  0.5607231014752898  0.8740322467939308  1.0000
  H   H7        1.0  0.8782792310603682  0.8740397854169331  0.5607213399325843  1.0000
  H   H8        1.0  0.6217156942219262  0.4392771117801857  0.12596833176048958  1.0000
  H   H9        1.0  0.2350735755277995  0.10495670818801982  0.28837223327623457  1.0000
  H   H10       1.0  0.26493492057539203  0.7116252253629014  0.8950381579012897  1.0000
  H   H11       1.0  0.7649265908418101  0.8950435050674629  0.7116281859293211  1.0000
  H   H12       1.0  0.7350652457942175  0.2883749878925812  0.10496226130425869  1.0000
  H   H13       1.0  0.2582303852286216  0.8738930175493637  0.5743041595850897  1.0000
  H   H14       1.0  0.24176369108980109  0.42570638889266393  0.12610782836313925  1.0000
  H   H15       1.0  0.741769781140988  0.1261071957061191  0.42569625962045876  1.0000
  H   H16       1.0  0.7582364752798086  0.5742938243628188  0.8738925908424092  1.0000
  H   H17       1.0  0.5241469960251094  0.6449581318787737  0.38882731148570565  1.0000
  H   H18       1.0  0.9758461870793695  0.6111749980243034  0.35504860012314776  1.0000
  H   H19       1.0  0.4758531703445071  0.355042081376709  0.6111723608826978  1.0000
  H   H20       1.0  0.024153621122032096  0.38882433108739894  0.6449506264261728  1.0000
  H   H21       1.0  0.6322305651706159  0.6351255688953756  0.23493809957501813  1.0000
  H   H22       1.0  0.8677651351129186  0.7650602230274546  0.36488241668782007  1.0000
  H   H23       1.0  0.36776861623052076  0.36487464436010714  0.7650614134445204  1.0000
  H   H24       1.0  0.1322353894249133  0.2349408743718087  0.6351184483368186  1.0000
  H   H25       1.0  0.6073234352482828  0.7682228053304528  0.1522784712005177  1.0000
  H   H26       1.0  0.8926859808357435  0.8477090994886396  0.23177831130836066  1.0000
  H   H27       1.0  0.3926767311213268  0.2317774079250299  0.8477204543307408  1.0000
  H   H28       1.0  0.1073151705023463  0.1522911137668359  0.7682215204089146  1.0000
  H   H29       1.0  0.38949057536441956  0.7346324148201404  0.5137644017735211  1.0000
  H   H30       1.0  0.1105027062771526  0.48623840868361873  0.2653745041311382  1.0000
  H   H31       1.0  0.61050959100519  0.26536779843534225  0.4862345237577372  1.0000
  H   H32       1.0  0.8894971019242417  0.5137609204280764  0.7346247224181823  1.0000
  C   C1        1.0  0.5798933732698258  0.6708043070153238  0.7408132835665171  1.0000
  C   C2        1.0  0.9201057020667918  0.2591867492655808  0.3291950101023531  1.0000
  C   C3        1.0  0.42010715126800585  0.3291967903839322  0.2591875814581215  1.0000
  C   C4        1.0  0.07989446430281791  0.7408134639899019  0.6708046622660504  1.0000
  C   C5        1.0  0.3436642783822704  0.9248303090338865  0.3612419215543738  1.0000
  C   C6        1.0  0.15633811412984497  0.638753210826934  0.07517064347918284  1.0000
  C   C7        1.0  0.6563358879873391  0.075169904221589  0.6387584976511816  1.0000
  C   C8        1.0  0.8436616940715568  0.36124611828476827  0.9248285830701376  1.0000
  C   C9        1.0  0.2841042021954721  0.9321244952233486  0.4500525969732152  1.0000
  C   C10       1.0  0.2158909552879678  0.5499524619407411  0.06787541772195749  1.0000
  C   C11       1.0  0.7158956060059225  0.0678748338883466  0.5499481232503881  1.0000
  C   C12       1.0  0.7841078679449608  0.4500468671709541  0.9321236494784911  1.0000
  C   C13       1.0  0.2034959026583891  0.0067919925221176  0.47931425371279346  1.0000
  C   C14       1.0  0.29650281573793075  0.5206881869486182  0.9932037004946892  1.0000
  C   C15       1.0  0.7965039055430053  0.9932073365895848  0.5206849728365199  1.0000
  C   C16       1.0  0.7034969924634636  0.479311142163084  0.00679552605463133  1.0000
  C   C17       1.0  0.1850013573739915  0.06903659881597692  0.4214499662384198  1.0000
  C   C18       1.0  0.3150001151487274  0.578557165672585  0.9309591541738411  1.0000
  C   C19       1.0  0.8149997939640983  0.9309636144394986  0.5785506123160004  1.0000
  C   C20       1.0  0.6850000512208894  0.4214430475828977  0.06904126503170725  1.0000
  C   C21       1.0  0.24883567110295252  0.05693178631659631  0.3357237833314244  1.0000
  C   C22       1.0  0.2511756522735666  0.6642704844771288  0.9430603406526288  1.0000
  C   C23       1.0  0.7511644952666571  0.9430684269388863  0.664276635874124  1.0000
  C   C24       1.0  0.7488245140960501  0.3357297287783538  0.05693933171577472  1.0000
  C   C25       1.0  0.3033838721447779  0.8635706389115471  0.5053813348602105  1.0000
  C   C26       1.0  0.1966141815118974  0.49462097586692994  0.13642902113247865  1.0000
  C   C27       1.0  0.6966169210250968  0.13642869020015522  0.49461879787512697  1.0000
  C   C28       1.0  0.8033859848577123  0.5053792373885528  0.8635706512359249  1.0000
  C   C29       1.0  0.42528235695397126  0.8469124859423758  0.32911103700399014  1.0000
  C   C30       1.0  0.07471602726077717  0.6708874165306966  0.15308810998730144  1.0000
  C   C31       1.0  0.5747168244471723  0.1530877273131068  0.6708892228526864  1.0000
  C   C32       1.0  0.9252831541403665  0.32911279672478605  0.8469114030322301  1.0000
  C   C33       1.0  0.4384978458262339  0.7778705822637093  0.38450899615363454  1.0000
  C   C34       1.0  0.06149949602777127  0.6154896196733404  0.22213150764597603  1.0000
  C   C35       1.0  0.5615023205433758  0.2221296309917662  0.6154906762147689  1.0000
  C   C36       1.0  0.9385006703418385  0.3845105935821422  0.7778681647224345  1.0000
  C   C37       1.0  0.5141267787982784  0.6999660213289048  0.34905275575989253  1.0000
  C   C38       1.0  0.9858648320673282  0.6509517425670595  0.3000414746391442  1.0000
  C   C39       1.0  0.4858724026028582  0.3000341919265709  0.6509475040967844  1.0000
  C   C40       1.0  0.014135334302288471  0.34904847068842326  0.6999589445664043  1.0000
  C   C41       1.0  0.5737423668978536  0.6945303053661434  0.26467359646786554  1.0000
  C   C42       1.0  0.9262575597305086  0.7353193945376191  0.30547420643526374  1.0000
  C   C43       1.0  0.42625779947175596  0.3054699078893393  0.73532682273769  1.0000
  C   C44       1.0  0.07374126350241278  0.2646799345740831  0.6945248607651775  1.0000
  C   C45       1.0  0.558914203286811  0.7688355169703627  0.21769427476986175  1.0000
  C   C46       1.0  0.941094294898221  0.7823019108917821  0.23116466551703507  1.0000
  C   C47       1.0  0.4410856049145835  0.2311638121413324  0.7823049517794586  1.0000
  C   C48       1.0  0.058905871471395706  0.21769830236369367  0.7688357536885134  1.0000
  C   C49       1.0  0.37651599346362014  0.788197381620428  0.4728004580097788  1.0000
  C   C50       1.0  0.12347446294976547  0.5272069790425462  0.21180937050183246  1.0000
  C   C51       1.0  0.6234828297693084  0.2118019474912671  0.5271986091906697  1.0000
  C   C52       1.0  0.8765253452516291  0.472792350069156  0.7881906028846329  1.0000
  S   S1        1.0  0.6527841403907574  0.7959371762752883  0.8972996683954902  1.0000
  S   S2        1.0  0.8472177865429629  0.1027030256914188  0.20406217172462246  1.0000
  S   S3        1.0  0.3472160259788595  0.2040630369801946  0.10270075081005808  1.0000
  S   S4        1.0  0.15278103668995865  0.8972963034202834  0.795936895475826  1.0000
  N   N1        1.0  0.4868506885134707  0.842017865973297  0.24774002670402245  1.0000
  N   N2        1.0  0.013163091286550348  0.752248979647419  0.1579724524430972  1.0000
  N   N3        1.0  0.513148134719458  0.1579814631383982  0.7522597873335714  1.0000
  N   N4        1.0  0.9868370750830593  0.24775123360806361  0.8420279667624584  1.0000
  N   N5        1.0  0.3256255035756439  0.9876115906025404  0.30582425660093565  1.0000
  N   N6        1.0  0.17437857318915206  0.6941669222723377  0.01238597482386438  1.0000
  N   N7        1.0  0.6743733196572775  0.012387738509161703  0.6941755574366582  1.0000
  N   N8        1.0  0.8256212350122424  0.3058324068393574  0.987613998562601  1.0000
  O   O1        1.0  0.5284491820970062  0.8207267995940912  0.9205577674157652  1.0000
  O   O2        1.0  0.9715519352499556  0.079445623544288  0.1792677306057087  1.0000
  O   O3        1.0  0.47155098427261066  0.1792734136613845  0.07944190495264541  1.0000
  O   O4        1.0  0.028449574256349346  0.9205554738549752  0.8207325469306567  1.0000
  O   O5        1.0  0.7208672461833174  0.7483401799936473  0.9638460124830103  1.0000
  O   O6        1.0  0.7791298527173964  0.03615529161766061  0.251663947623932  1.0000
  O   O7        1.0  0.2791339051547652  0.2516600332618353  0.03615456607140999  1.0000
  O   O8        1.0  0.22086995548399804  0.9638440374940417  0.7483352789253885  1.0000
  O   O9        1.0  0.7484822032091784  0.8871065463495498  0.8892720188645811  1.0000
  O   O10       1.0  0.7515205584781981  0.1107275146436066  0.1128880217574064  1.0000
  O   O11       1.0  0.2515179631604312  0.11289366690593282  0.11072840034097449  1.0000
  O   O12       1.0  0.24847898109115354  0.8892735827556564  0.8871119370812152  1.0000
  F   F1        1.0  0.4852397464838418  0.5749675419235915  0.7282607648405417  1.0000
  F   F2        1.0  0.01476070750976529  0.27174159094926154  0.4250381349244349  1.0000
  F   F3        1.0  0.5147607780539829  0.4250335554756717  0.2717401001840969  1.0000
  F   F4        1.0  0.9852414287967903  0.728258622306214  0.5749611093045743  1.0000
  F   F5        1.0  0.6831356136381572  0.6361927304384879  0.7030190046997687  1.0000
  F   F6        1.0  0.8168653344123342  0.2969759385896822  0.36381147548727444  1.0000
  F   F7        1.0  0.3168645527314524  0.3638074828169949  0.2969814145057796  1.0000
  F   F8        1.0  0.1831344737890603  0.7030233905220201  0.6361892447363288  1.0000
  F   F9        1.0  0.513508746858406  0.7036873825012009  0.6675587012148936  1.0000
  F   F10       1.0  0.9864949072491881  0.3324362931958404  0.2963057305606256  1.0000
  F   F11       1.0  0.4864924044796766  0.2963128307542746  0.3324411305023816  1.0000
  F   F12       1.0  0.013505259120421411  0.6675639200596422  0.7036946886449229  1.0000
