data_image0
_chemical_formula_structural       Zr6H70C72O38
_chemical_formula_sum              "Zr6 H70 C72 O38"
_cell_length_a       14.796011068657112
_cell_length_b       14.72907902024004
_cell_length_c       14.743191530582873
_cell_angle_alpha    60.5798460509341
_cell_angle_beta     59.97236138765782
_cell_angle_gamma    59.63672924511802

_space_group_name_H-M_alt    "P 1"
_space_group_IT_number       1

loop_
  _space_group_symop_operation_xyz
  'x, y, z'

loop_
  _atom_site_type_symbol
  _atom_site_label
  _atom_site_symmetry_multiplicity
  _atom_site_fract_x
  _atom_site_fract_y
  _atom_site_fract_z
  _atom_site_occupancy
  Zr  Zr1       1.0  0.8849177354482476  0.8758354852843909  0.6212822018084908  1.0000
  Zr  Zr2       1.0  0.11882037099549346  0.11809956246528237  0.3836446469825249  1.0000
  Zr  Zr3       1.0  0.1249424937993097  0.8766294714536543  0.6175000302263242  1.0000
  Zr  Zr4       1.0  0.8795093928037333  0.1148784502353665  0.3886216714550699  1.0000
  Zr  Zr5       1.0  0.12281486010020602  0.8801135457292233  0.37730088961003355  1.0000
  Zr  Zr6       1.0  0.8835798982624823  0.115069447679346  0.6260676355521114  1.0000
  H   H1        1.0  0.09672186679345891  0.7135160941516003  0.5901065667005483  1.0000
  H   H2        1.0  0.09072007297128692  0.09469497850520271  0.22031748042084587  1.0000
  H   H3        1.0  0.09678328483200002  0.09112918415851823  0.596807616207947  1.0000
  H   H4        1.0  0.7195918635211171  0.08907963611606834  0.6027797127242209  1.0000
  H   H5        1.0  0.23060749816023937  0.2898665083131463  0.5510380941095363  1.0000
  H   H6        1.0  0.1856515347411403  0.23438258057910127  0.5045163509038062  1.0000
  H   H7        1.0  0.2673161975270091  0.3185108208141898  0.4080575620312175  1.0000
  H   H8        1.0  0.731659352357532  0.6866294588656673  0.5828147212861551  1.0000
  H   H9        1.0  0.8071249378877356  0.7760782784482815  0.4816588106763788  1.0000
  H   H10       1.0  0.7579311234933711  0.717872023420604  0.44196070483796746  1.0000
  H   H11       1.0  0.264727598081933  0.430646776519275  0.48771232215374744  1.0000
  H   H12       1.0  0.24544936408381068  0.555439171340126  0.37589672763483867  1.0000
  H   H13       1.0  0.19128817488207522  0.5603515515936054  0.5104868885927728  1.0000
  H   H14       1.0  0.7657751262694532  0.568843310307358  0.43899876148649497  1.0000
  H   H15       1.0  0.7983704690305943  0.42495619601729834  0.5159606163009018  1.0000
  H   H16       1.0  0.7239585478706445  0.525354389596494  0.5839594322147336  1.0000
  H   H17       1.0  0.4117535028360281  0.266811769413586  0.9842939433478933  1.0000
  H   H18       1.0  0.2925937150675465  0.22707405633067881  0.07118465173915918  1.0000
  H   H19       1.0  0.3832691035338058  0.2058360619849253  0.12897038032703279  1.0000
  H   H20       1.0  0.6213504920184788  0.791384946134869  0.8766633531039146  1.0000
  H   H21       1.0  0.718351255499833  0.7662380240148682  0.9289400136173924  1.0000
  H   H22       1.0  0.5997061371844057  0.7257122596067874  0.020028792752043525  1.0000
  H   H23       1.0  0.5724489175389778  0.1878784532697112  0.002025332845242605  1.0000
  H   H24       1.0  0.7006561172108831  0.10674798882440947  0.9270575138661312  1.0000
  H   H25       1.0  0.6098523799305512  0.2207246689617932  0.857665230027578  1.0000
  H   H26       1.0  0.40584964291260645  0.7686114238182712  0.15055868289748273  1.0000
  H   H27       1.0  0.310524516675436  0.8832941631904986  0.08671781544384068  1.0000
  H   H28       1.0  0.43691747546423404  0.8060493932068696  0.006547000162846912  1.0000
  H   H29       1.0  0.820934386051384  0.8611727743228389  0.08667502469489811  1.0000
  H   H30       1.0  0.8960540083239009  0.8713113064098581  0.9453177147555393  1.0000
  H   H31       1.0  0.9559937484465378  0.7636575570868515  0.047445584062430074  1.0000
  H   H32       1.0  0.06995273530700533  0.22380741404430174  0.9246391321616799  1.0000
  H   H33       1.0  0.056256722988891276  0.1573872175445103  0.06522927557251987  1.0000
  H   H34       1.0  0.1820821818398387  0.10640205169385555  0.963691490118528  1.0000
  H   H35       1.0  0.9213821250536042  0.8511754867423138  0.28617425160457094  1.0000
  H   H36       1.0  0.8125921821252432  0.8802688950360749  0.24560542802811364  1.0000
  H   H37       1.0  0.9372101273291734  0.7663714298804508  0.22267605324539352  1.0000
  H   H38       1.0  0.17270914795069817  0.14235572524784598  0.7829059815962723  1.0000
  H   H39       1.0  0.13695425950075454  0.09227598079285573  0.7230331828131115  1.0000
  H   H40       1.0  0.043631056728877196  0.21506407522846166  0.759699140098071  1.0000
  H   H41       1.0  0.44109282465889516  0.7661191660778075  0.3035068382269586  1.0000
  H   H42       1.0  0.5730320764537423  0.7372351092623506  0.3037845902184629  1.0000
  H   H43       1.0  0.5636824198958406  0.6833766791724687  0.2263465988575745  1.0000
  H   H44       1.0  0.4164123735909869  0.28917416980921484  0.7209774221530055  1.0000
  H   H45       1.0  0.5624933063646085  0.2260340350621207  0.6692730929557555  1.0000
  H   H46       1.0  0.5040815165049964  0.30480766857233016  0.756708664064341  1.0000
  H   H47       1.0  0.7308655970044101  0.5830150562492663  0.2840614943337841  1.0000
  H   H48       1.0  0.7897208540488164  0.4368238630879876  0.3370564497232279  1.0000
  H   H49       1.0  0.7188815885794286  0.4963844802182254  0.24280482382246052  1.0000
  H   H50       1.0  0.2953925452153073  0.5100701347070924  0.7494481134419003  1.0000
  H   H51       1.0  0.22553263483477795  0.5665334616025747  0.6558577726287921  1.0000
  H   H52       1.0  0.28297458707211853  0.4218251088327066  0.7104689914350288  1.0000
  H   H53       1.0  0.301651558277548  0.8857464376314611  0.7352773407845064  1.0000
  H   H54       1.0  0.3885728774007972  0.7876172090858021  0.6649344486997321  1.0000
  H   H55       1.0  0.4336374814200923  0.795975235968584  0.750463887558574  1.0000
  H   H56       1.0  0.59841509973824  0.16814040965503102  0.23350643460507567  1.0000
  H   H57       1.0  0.6242865291624895  0.19573886064115706  0.32063305533094416  1.0000
  H   H58       1.0  0.7225505565159411  0.08633155975103073  0.2672145951771299  1.0000
  H   H59       1.0  0.5985243283693578  0.807825741927033  0.7268300668071176  1.0000
  H   H60       1.0  0.5764634084248569  0.9419795907546984  0.7138897697704819  1.0000
  H   H61       1.0  0.4612678956599721  0.8984024147646823  0.7749196925537233  1.0000
  H   H62       1.0  0.5529249837661183  0.0755556304410732  0.21978279915934  1.0000
  H   H63       1.0  0.42925790782736334  0.04488446292366893  0.2840602872694618  1.0000
  H   H64       1.0  0.42235070762220056  0.17571854524896224  0.2648097086305582  1.0000
  H   H65       1.0  0.1011607904882723  0.37671150194592684  0.1894704616224415  1.0000
  H   H66       1.0  0.12142877326310479  0.6750472353599904  0.8764886471355736  1.0000
  H   H67       1.0  0.8205360456342773  0.3178686328603391  0.1962688595933669  1.0000
  H   H68       1.0  0.7389598339585604  0.31882692785898575  0.05340088863451333  1.0000
  H   H69       1.0  0.8438275241010161  0.3946022486957192  0.7866438167697326  1.0000
  H   H70       1.0  0.0030293350397342694  0.5355432036882632  0.6655740670278335  1.0000
  C   C1        1.0  0.9997257974873581  0.7034151115165488  0.4852325288046798  1.0000
  C   C2        1.0  0.3016623086255379  0.006252528821818272  0.19098383336963556  1.0000
  C   C3        1.0  0.9962680948682916  0.30613324935867325  0.501655782724569  1.0000
  C   C4        1.0  0.7108143944162322  0.9851791828436024  0.8185020340245757  1.0000
  C   C5        1.0  0.01313960087488641  0.6840908532610115  0.7983928976578625  1.0000
  C   C6        1.0  0.6959047846717965  0.9988217701208061  0.5035793500105044  1.0000
  C   C7        1.0  0.9847469360923428  0.31301717095211495  0.19989226932466403  1.0000
  C   C8        1.0  0.3143449399761519  0.9893040317043431  0.4930601226751817  1.0000
  C   C9        1.0  0.31266459119169804  0.6973025289996643  0.48961142725689655  1.0000
  C   C10       1.0  0.005188617467155151  0.990994540920255  0.8089584489143745  1.0000
  C   C11       1.0  0.7014947152590025  0.3051129226044722  0.5045586092525766  1.0000
  C   C12       1.0  0.9964567522777585  0.9975468753504303  0.1997911047343877  1.0000
  C   C13       1.0  0.996647249276542  0.4098846730923569  0.49684783911732927  1.0000
  C   C14       1.0  0.9995395019032218  0.6024154290346361  0.4842059812387164  1.0000
  C   C15       1.0  0.09659333936490815  0.4106192272218295  0.48635211568782205  1.0000
  C   C16       1.0  0.8998255388094165  0.6013129284423189  0.4952346813946989  1.0000
  C   C17       1.0  0.09877846015323391  0.5090540444747733  0.4778218508940951  1.0000
  C   C18       1.0  0.8985710768105408  0.5037167065717512  0.5008745438919107  1.0000
  C   C19       1.0  0.40043071889242304  0.007564706853088477  0.08672331397377774  1.0000
  C   C20       1.0  0.6117764395922477  0.983724205023947  0.922812895051429  1.0000
  C   C21       1.0  0.4470267793479294  0.09148189405679834  0.038850348919311294  1.0000
  C   C22       1.0  0.5645484426564311  0.900538272695151  0.9694296469224353  1.0000
  C   C23       1.0  0.5565754001553531  0.07511673250144925  0.9631984950731082  1.0000
  C   C24       1.0  0.45551553450671617  0.9162020365074002  0.04628160008347501  1.0000
  C   C25       1.0  0.003939836653501102  0.9916983311245815  0.910864123214573  1.0000
  C   C26       1.0  0.9968015727574625  0.9975324654028841  0.09792506544723516  1.0000
  C   C27       1.0  0.9541761564504296  0.9247214889294071  0.01401330222257957  1.0000
  C   C28       1.0  0.044408347335711314  0.06656870413110746  0.9946644131639814  1.0000
  C   C29       1.0  0.9525373825507231  0.9261542085769676  0.10958414519667778  1.0000
  C   C30       1.0  0.04983198910169753  0.06202913872520101  0.8989473050150778  1.0000
  C   C31       1.0  0.4140847781470713  0.5951833574314948  0.49131366821476524  1.0000
  C   C32       1.0  0.6014101445104177  0.40826685424775644  0.5012273125179334  1.0000
  C   C33       1.0  0.5140645356773277  0.5984618550091981  0.4024243555260085  1.0000
  C   C34       1.0  0.5013212932216363  0.40474919610485227  0.5901985408278989  1.0000
  C   C35       1.0  0.6097747710944504  0.5029016387286378  0.40757818369635856  1.0000
  C   C36       1.0  0.4057090377048808  0.5002753606743795  0.5853821891291418  1.0000
  C   C37       1.0  0.0238606805211177  0.5763538119605232  0.888605760208783  1.0000
  C   C38       1.0  0.9745321999319856  0.5021307536287768  0.9091370034785626  1.0000
  C   C39       1.0  0.06564914858780202  0.5573909850883683  0.964909772822672  1.0000
  C   C40       1.0  0.9659800064979225  0.49565589070063265  0.8214422394321516  1.0000
  C   C41       1.0  0.898615561730864  0.4421733251006542  0.8436049212951174  1.0000
  C   C42       1.0  0.9851499251418684  0.4088142194120581  0.09781229806372939  1.0000
  C   C43       1.0  0.05412179240767747  0.46680843435743213  0.06608991744609945  1.0000
  C   C44       1.0  0.9334346252406931  0.4341847195692026  0.021204659214475775  1.0000
  C   C45       1.0  0.8530571770115714  0.3943735894821075  0.0413492363631462  1.0000
  C   C46       1.0  0.8375780945053676  0.39839517751941167  0.9531995087806989  1.0000
  C   C47       1.0  0.41923675671871763  0.9827210537237223  0.4927428271008695  1.0000
  C   C48       1.0  0.5951692349189767  0.99971942513929  0.5012808885278587  1.0000
  C   C49       1.0  0.4446876150710749  0.9252041743388092  0.5923180275218841  1.0000
  C   C50       1.0  0.5721420633776689  0.05426672264866986  0.40058953810333964  1.0000
  C   C51       1.0  0.5292597476646749  0.9393011286820965  0.5976695647576591  1.0000
  C   C52       1.0  0.4861150851575076  0.04182251826150462  0.39600450426163986  1.0000
  C   C53       1.0  0.19958505588234493  0.3079493302740205  0.4879002286034789  1.0000
  C   C54       1.0  0.794679851730173  0.7011309931874408  0.4998802718256812  1.0000
  C   C55       1.0  0.2052415456351397  0.5135253726914757  0.4628559108413199  1.0000
  C   C56       1.0  0.7921605494060628  0.5044930916919271  0.5101543835355854  1.0000
  C   C57       1.0  0.38036292605703187  0.20316696553425834  0.05744925932558688  1.0000
  C   C58       1.0  0.6294521786904214  0.7905802172134029  0.9471663175485432  1.0000
  C   C59       1.0  0.6125994647566273  0.1518933754744793  0.9355763207066019  1.0000
  C   C60       1.0  0.3993603826912632  0.8393018918307931  0.07454285686230115  1.0000
  C   C61       1.0  0.904176409914669  0.8518403863286109  0.02348813034079465  1.0000
  C   C62       1.0  0.09076679276726204  0.14201812075766188  0.9865875086996638  1.0000
  C   C63       1.0  0.9035893458237466  0.8525502262682495  0.22168118422390393  1.0000
  C   C64       1.0  0.1031078015070293  0.13156242103008256  0.7856860486578582  1.0000
  C   C65       1.0  0.5223682839625283  0.7018982894206331  0.3044437014479938  1.0000
  C   C66       1.0  0.4958148395280091  0.3010286112257604  0.6885984080195159  1.0000
  C   C67       1.0  0.718021020388754  0.5045149143255474  0.3136541187048252  1.0000
  C   C68       1.0  0.29732461269792754  0.4997302316650902  0.6793517094487456  1.0000
  C   C69       1.0  0.3890108158266301  0.8451067621997269  0.6912551729613766  1.0000
  C   C70       1.0  0.6327386069269638  0.1292431520015711  0.29978448613101694  1.0000
  C   C71       1.0  0.5421540000956282  0.8946957246745059  0.708906550135829  1.0000
  C   C72       1.0  0.4716962679837168  0.08652696772326614  0.28566676334036595  1.0000
  O   O1        1.0  0.9253291605903444  0.7399245634299448  0.5658891857846624  1.0000
  O   O2        1.0  0.2608800338836233  0.08165108850957384  0.2348707066251805  1.0000
  O   O3        1.0  0.0698958299352698  0.2670115700211326  0.4221566755688927  1.0000
  O   O4        1.0  0.7472347526998604  0.913503825116074  0.7719230463802019  1.0000
  O   O5        1.0  0.08459372296944424  0.730327765349344  0.7644241958175255  1.0000
  O   O6        1.0  0.7341201209374973  0.07735371508471917  0.43213941239879733  1.0000
  O   O7        1.0  0.9151799797931446  0.26304020987387855  0.24240126090150926  1.0000
  O   O8        1.0  0.2719358334534123  0.9146910528054094  0.5674309674535607  1.0000
  O   O9        1.0  0.2717667833127634  0.7362818118351984  0.4139139837958865  1.0000
  O   O10       1.0  0.9281921216196238  0.06918652139786755  0.7703666660300711  1.0000
  O   O11       1.0  0.7401160816758434  0.26477216649500684  0.5822462650970194  1.0000
  O   O12       1.0  0.07867877878170748  0.924759400853617  0.23287871018719397  1.0000
  O   O13       1.0  0.08261563592262183  0.9140463356482444  0.7676263433278834  1.0000
  O   O14       1.0  0.7401956820429659  0.2634081234068475  0.428836479921287  1.0000
  O   O15       1.0  0.9157323512680693  0.07006392232290888  0.24529919943940115  1.0000
  O   O16       1.0  0.2730999520351889  0.7375044996889315  0.5666042770340738  1.0000
  O   O17       1.0  0.9323454158920372  0.7296157508232926  0.7632322158268322  1.0000
  O   O18       1.0  0.26813615399010626  0.07243298469153804  0.4231548645359453  1.0000
  O   O19       1.0  0.057806487254744396  0.2770202332226788  0.2445713437199828  1.0000
  O   O20       1.0  0.7414932891343538  0.9182032373288042  0.5747166729624952  1.0000
  O   O21       1.0  0.7488614678120841  0.0637874612518489  0.7750794913836928  1.0000
  O   O22       1.0  0.0753638363237173  0.7438142343670292  0.408924975182039  1.0000
  O   O23       1.0  0.2662757960857645  0.9254155545362723  0.23682326182738206  1.0000
  O   O24       1.0  0.9248636619138185  0.2627324078377953  0.5834076306306102  1.0000
  O   O25       1.0  0.8001513677886507  0.062901297304002  0.5750358804232575  1.0000
  O   O26       1.0  0.07028754034138283  0.06412062641005897  0.5698036406675014  1.0000
  O   O27       1.0  0.0649798169262894  0.06876408666140323  0.3004229267662383  1.0000
  O   O28       1.0  0.0725985460607957  0.7940672007240723  0.564274564012031  1.0000
  O   O29       1.0  0.15061181142326774  0.949497807569287  0.44944429480931797  1.0000
  O   O30       1.0  0.9527760427464007  0.9476814922523787  0.45234250053848485  1.0000
  O   O31       1.0  0.950038447591524  0.14637057626183064  0.4564486009554613  1.0000
  O   O32       1.0  0.9557420102138608  0.9458636383774035  0.6501710949166294  1.0000
  O   O33       1.0  0.1105950547087743  0.4461866014946169  0.12622604656166908  1.0000
  O   O34       1.0  0.1161655385538579  0.6196020798242545  0.952075039220759  1.0000
  O   O35       1.0  0.7818281396335963  0.3521868783019572  0.1415727104392062  1.0000
  O   O36       1.0  0.7657407179827305  0.3531558836776016  0.9727483484666238  1.0000
  O   O37       1.0  0.893798590229707  0.4348844028565965  0.7569348505906388  1.0000
  O   O38       1.0  0.029207859211041545  0.5361667685721089  0.714547208740143  1.0000
