data_image0
_chemical_formula_structural       Zn2H34C54N12O12
_chemical_formula_sum              "Zn2 H34 C54 N12 O12"
_cell_length_a       8.794315841097964
_cell_length_b       12.100979440949096
_cell_length_c       12.778879352493572
_cell_angle_alpha    99.6307095143955
_cell_angle_beta     93.6132118894324
_cell_angle_gamma    105.32854461611824

_space_group_name_H-M_alt    "P 1"
_space_group_IT_number       1

loop_
  _space_group_symop_operation_xyz
  'x, y, z'

loop_
  _atom_site_type_symbol
  _atom_site_label
  _atom_site_symmetry_multiplicity
  _atom_site_fract_x
  _atom_site_fract_y
  _atom_site_fract_z
  _atom_site_occupancy
  Zn  Zn1       1.0  0.8255469341359362  0.3397874472041309  0.0600448482262408  1.0000
  Zn  Zn2       1.0  0.17443233733798993  0.6601982327105205  0.9399420563003034  1.0000
  H   H1        1.0  0.7744827314758496  0.10133146799114459  0.408692908956354  1.0000
  H   H2        1.0  0.22552321333382253  0.898678811841144  0.5913052854013613  1.0000
  H   H3        1.0  0.02824583152906257  0.7009867371533858  0.5953153103288926  1.0000
  H   H4        1.0  0.9717586183573205  0.29901947545513957  0.4046757556125797  1.0000
  H   H5        1.0  0.060137200543778115  0.6145326673489109  0.2451981204808718  1.0000
  H   H6        1.0  0.9398635130750038  0.38547248055670735  0.7547949572039274  1.0000
  H   H7        1.0  0.9531561168364604  0.9386659756807915  0.23821654945899698  1.0000
  H   H8        1.0  0.04685407713641611  0.061340412766149696  0.7617739614874495  1.0000
  H   H9        1.0  0.8482181675620739  0.7706023420114221  0.506458161531981  1.0000
  H   H10       1.0  0.1517828299125981  0.22940385983486775  0.4935312195272773  1.0000
  H   H11       1.0  0.8081519328429538  0.4978748834612147  0.8763591167960174  1.0000
  H   H12       1.0  0.19183181881634684  0.5021230710022877  0.12364762076449412  1.0000
  H   H13       1.0  0.7183150781274749  0.7005283257627822  0.9250799272529164  1.0000
  H   H14       1.0  0.2816798778489158  0.29946892643688017  0.07492939694309801  1.0000
  H   H15       1.0  0.6582002665886791  0.5175805932209342  0.18315079421498837  1.0000
  H   H16       1.0  0.3418050374539022  0.482416837020523  0.8168604801980877  1.0000
  H   H17       1.0  0.6865413887026792  0.8496442922338119  0.03211198532612508  1.0000
  H   H18       1.0  0.3134373905057758  0.15034601582011928  0.9678875758348867  1.0000
  H   H19       1.0  0.47491977721129797  0.9643442037315355  0.30835631340471553  1.0000
  H   H20       1.0  0.5250918523829782  0.0356552915970241  0.6916516694066105  1.0000
  H   H21       1.0  0.515365513637093  0.613314527435641  0.24558616037578676  1.0000
  H   H22       1.0  0.4846446874100181  0.38668381319476447  0.7544270270533885  1.0000
  H   H23       1.0  0.7978532319277252  0.0642873645016309  0.05933553142758542  1.0000
  H   H24       1.0  0.20213222764891012  0.9357089022281428  0.9406709267550327  1.0000
  H   H25       1.0  0.4942085788971086  0.2717574574209252  0.14897662656428423  1.0000
  H   H26       1.0  0.5057715945737088  0.7282305826626826  0.8510162624482759  1.0000
  H   H27       1.0  0.36652253837542775  0.0527544409396583  0.19779056336246015  1.0000
  H   H28       1.0  0.6334671109637638  0.9472309433127107  0.8022083807772377  1.0000
  H   H29       1.0  0.5173520651513215  0.6307780413113804  0.42760118610734577  1.0000
  H   H30       1.0  0.48267060599769007  0.36923364355798327  0.5724135173357113  1.0000
  H   H31       1.0  0.38021935459892836  0.6821581577412914  0.6127574744935843  1.0000
  H   H32       1.0  0.6197912239895232  0.31785165059030623  0.3872533144723107  1.0000
  H   H33       1.0  0.3132890793532681  0.9109002260035551  0.41184812706314483  1.0000
  H   H34       1.0  0.6867026897294011  0.08909836088474779  0.588149606765981  1.0000
  C   C1        1.0  0.8811154913577112  0.42503108146480173  0.2760593700556413  1.0000
  C   C2        1.0  0.1188728871048923  0.5749704800644296  0.7239474597106011  1.0000
  C   C3        1.0  0.9586262246365538  0.4700741760446263  0.3892143351020181  1.0000
  C   C4        1.0  0.04136673707684932  0.5299316848870745  0.610777840829492  1.0000
  C   C5        1.0  0.9713247438521364  0.5851448980482559  0.4420078349295552  1.0000
  C   C6        1.0  0.028675358502354708  0.4148588343127528  0.5579778899658621  1.0000
  C   C7        1.0  0.011085110148613452  0.6116946684684523  0.5531672020673426  1.0000
  C   C8        1.0  0.9889063589337469  0.38830708880070125  0.4468186215553019  1.0000
  C   C9        1.0  0.9559409758509787  0.6787337008261359  0.3839356719110043  1.0000
  C   C10       1.0  0.044056800543934606  0.3212664437902291  0.6160508253310368  1.0000
  C   C11       1.0  0.011271244623564805  0.6827769468399367  0.2833529299524572  1.0000
  C   C12       1.0  0.9887384021689058  0.31723097502678144  0.7166417851313228  1.0000
  C   C13       1.0  0.008603373874286993  0.7747307394711314  0.2303162109863806  1.0000
  C   C14       1.0  0.9914028273831832  0.2252770623170336  0.7696791475373672  1.0000
  C   C15       1.0  0.9525911992629121  0.8662928980816104  0.27866093538434467  1.0000
  C   C16       1.0  0.04742044847173332  0.13371424423694123  0.721332908125575  1.0000
  C   C17       1.0  0.8941432325307094  0.8630432227223396  0.3776782960976206  1.0000
  C   C18       1.0  0.10586148755690064  0.1369602932094054  0.6223145906542271  1.0000
  C   C19       1.0  0.8953833192702308  0.7699044550158334  0.42954928319431224  1.0000
  C   C20       1.0  0.1046277424147348  0.2301008709315866  0.5704457447075485  1.0000
  C   C21       1.0  0.061203429703937204  0.774386091876643  0.12018229535618734  1.0000
  C   C22       1.0  0.9388024442438906  0.2256173790574748  0.8798121878329184  1.0000
  C   C23       1.0  0.8249116710681436  0.9559092855259197  0.42903152364223024  1.0000
  C   C24       1.0  0.17511735294188213  0.0441119656654436  0.5709688533272371  1.0000
  C   C25       1.0  0.7577406188383692  0.5305635366154106  0.9461363155022156  1.0000
  C   C26       1.0  0.24225255835884957  0.46942859441981005  0.0538695769030824  1.0000
  C   C27       1.0  0.7131635203009596  0.6312875726554026  0.9694166268079771  1.0000
  C   C28       1.0  0.2868333885793888  0.3687056959602799  0.03058570163921099  1.0000
  C   C29       1.0  0.6788185603741257  0.5375503532935468  0.10491563791514838  1.0000
  C   C30       1.0  0.32118183749496854  0.46244631231405714  0.8950906190522545  1.0000
  C   C31       1.0  0.6067807832965427  0.722158806440511  0.13212754711991442  1.0000
  C   C32       1.0  0.3932234217019898  0.27784573276816354  0.8678804092727576  1.0000
  C   C33       1.0  0.6268239722258289  0.8301003711359912  0.10142334719600402  1.0000
  C   C34       1.0  0.37316807622701725  0.16989537332042912  0.8985793118730785  1.0000
  C   C35       1.0  0.5686680015650083  0.9130995560823578  0.1628535134718589  1.0000
  C   C36       1.0  0.4313320689944434  0.08689277867120641  0.8371518681609019  1.0000
  C   C37       1.0  0.5030571067811137  0.8934179634967592  0.2564878605684627  1.0000
  C   C38       1.0  0.4969507842533219  0.10658050356767028  0.7435213578788054  1.0000
  C   C39       1.0  0.4875041476476909  0.7860785932996491  0.2873050541904476  1.0000
  C   C40       1.0  0.5125046453836363  0.21392223393373644  0.7127101487428362  1.0000
  C   C41       1.0  0.5342166075419854  0.6983545950425025  0.2234848536950977  1.0000
  C   C42       1.0  0.4657950677982684  0.3016481407606549  0.7765284771838027  1.0000
  C   C43       1.0  0.6976112845184659  0.0903611437239817  0.08990747189683651  1.0000
  C   C44       1.0  0.3023830282010779  0.9096312338238235  0.9100938080865861  1.0000
  C   C45       1.0  0.5353128374688438  0.1944256065470071  0.1361587661444403  1.0000
  C   C46       1.0  0.4646825810726867  0.8055635219673577  0.8638379861012737  1.0000
  C   C47       1.0  0.47436680099192335  0.0887994586193557  0.16398703410087023  1.0000
  C   C48       1.0  0.5256245448034207  0.9111844200931642  0.8360077501239687  1.0000
  C   C49       1.0  0.45312510970605047  0.6942621546275304  0.4509418160642867  1.0000
  C   C50       1.0  0.5468900592074348  0.3057439052900008  0.5490769955496121  1.0000
  C   C51       1.0  0.3886362321097537  0.7230323341289521  0.5430721986505489  1.0000
  C   C52       1.0  0.6113700241614168  0.2769745931286066  0.4569417864506137  1.0000
  C   C53       1.0  0.3516606057161482  0.8423128178733135  0.44092019012965267  1.0000
  C   C54       1.0  0.6483450004214575  0.15768934404871263  0.5590834224367427  1.0000
  N   N1        1.0  0.7358200938680569  0.47309764608147725  0.03165743967999649  1.0000
  N   N2        1.0  0.26417798711164414  0.5268992552764686  0.9683425199833098  1.0000
  N   N3        1.0  0.6621053123100183  0.6347902553316018  0.0707374553361007  1.0000
  N   N4        1.0  0.3379008890462103  0.3652135772064611  0.9292680772679206  1.0000
  N   N5        1.0  0.5790253292253312  0.023373113657584103  0.1351400938624607  1.0000
  N   N6        1.0  0.4209778412215853  0.976615301830705  0.8648575601365494  1.0000
  N   N7        1.0  0.6729922236192039  0.1940846383308639  0.0896419212925608  1.0000
  N   N8        1.0  0.3270080735889636  0.8059056920826535  0.9103505351101261  1.0000
  N   N9        1.0  0.42914522789845927  0.7711185755255981  0.385788362167574  1.0000
  N   N10       1.0  0.5708632652313101  0.22888145283855013  0.6142251046395019  1.0000
  N   N11       1.0  0.32576289611870396  0.815657122095999  0.535476872758025  1.0000
  N   N12       1.0  0.6742355121706397  0.1843441101159939  0.4645239622399231  1.0000
  O   O1        1.0  0.7346524176396444  0.41363418770362864  0.2620748473788979  1.0000
  O   O2        1.0  0.2653432756875916  0.5863521712564008  0.7379252778919891  1.0000
  O   O3        1.0  0.9649898291052424  0.39779781351119686  0.20139040384680845  1.0000
  O   O4        1.0  0.03497579736788479  0.6022010767631086  0.798604944562044  1.0000
  O   O5        1.0  0.09459806477953242  0.6790477248662441  0.07867295412064831  1.0000
  O   O6        1.0  0.90538478936859  0.3209517658008565  0.9213191770883569  1.0000
  O   O7        1.0  0.06664108432433122  0.85939951326894  0.07542020448489244  1.0000
  O   O8        1.0  0.9333353847726898  0.1405948904691172  0.9245652136139314  1.0000
  O   O9        1.0  0.835703529965329  0.043391221476341  0.3758628837679083  1.0000
  O   O10       1.0  0.1643052811076089  0.956621221997146  0.6241280057836819  1.0000
  O   O11       1.0  0.7620813417004514  0.9491685343089884  0.5124316615765849  1.0000
  O   O12       1.0  0.2379335271139524  0.050844665239502304  0.48756506575055175  1.0000
