data_image0
_chemical_formula_structural       Ni4H40C64N16O16
_chemical_formula_sum              "Ni4 H40 C64 N16 O16"
_cell_length_a       8.414089356003092
_cell_length_b       15.01783055900384
_cell_length_c       15.01782428100461
_cell_angle_alpha    89.99994864378351
_cell_angle_beta     89.99992596704456
_cell_angle_gamma    89.99993599577277

_space_group_name_H-M_alt    "P 1"
_space_group_IT_number       1

loop_
  _space_group_symop_operation_xyz
  'x, y, z'

loop_
  _atom_site_type_symbol
  _atom_site_label
  _atom_site_symmetry_multiplicity
  _atom_site_fract_x
  _atom_site_fract_y
  _atom_site_fract_z
  _atom_site_occupancy
  Ni  Ni1       1.0  0.9999995938379556  0.7445060021846714  0.7445056472919948  1.0000
  Ni  Ni2       1.0  0.5000000852712035  0.2554940215869835  0.2554947692131861  1.0000
  Ni  Ni3       1.0  0.7499981342710387  0.7554942623970575  0.2445055121208811  1.0000
  Ni  Ni4       1.0  0.2500033658318515  0.24450627036936376  0.7554940566574121  1.0000
  H   H1        1.0  0.8029668804347595  0.7199961390190311  0.9211501285151373  1.0000
  H   H2        1.0  0.30297002899221337  0.2800023628836641  0.07884940173524063  1.0000
  H   H3        1.0  0.5529681034042611  0.5788496467667698  0.21999612064135482  1.0000
  H   H4        1.0  0.05297173895578309  0.42115100963961544  0.7800055890838139  1.0000
  H   H5        1.0  0.9470281418153237  0.780002321779385  0.42114952587230203  1.0000
  H   H6        1.0  0.44703263906404805  0.2199974214720797  0.578849233711118  1.0000
  H   H7        1.0  0.1970320579236784  0.9211506397744884  0.7199966199753407  1.0000
  H   H8        1.0  0.6970316558937029  0.07884859448101621  0.28000232145781473  1.0000
  H   H9        1.0  0.9113836141759677  0.7296530051360008  0.07544036260314611  1.0000
  H   H10       1.0  0.411386029347085  0.27034676048348427  0.9245590887843422  1.0000
  H   H11       1.0  0.6613840185378096  0.42455968013531015  0.22965267567576572  1.0000
  H   H12       1.0  0.1613861809564483  0.5754409082392441  0.7703469575617277  1.0000
  H   H13       1.0  0.8386122015450326  0.7703470971690222  0.5754395624196036  1.0000
  H   H14       1.0  0.3386158452361697  0.2296527141156233  0.42455994190151364  1.0000
  H   H15       1.0  0.08861592642787029  0.07544063497597618  0.7296535638588753  1.0000
  H   H16       1.0  0.5886162417733162  0.9245586673120415  0.27034678818696284  1.0000
  H   H17       1.0  0.23444276229557204  0.738264280283765  0.15253299718244764  1.0000
  H   H18       1.0  0.7344466365524482  0.2617375939946669  0.8474665829107553  1.0000
  H   H19       1.0  0.9844434069988423  0.3474658831550315  0.23826502538116057  1.0000
  H   H20       1.0  0.48444424739589925  0.6525345024935729  0.7617343728627619  1.0000
  H   H21       1.0  0.5155527999420926  0.7617373984566171  0.6525327418879743  1.0000
  H   H22       1.0  0.0155566034544563  0.23826328142918382  0.3474676633022683  1.0000
  H   H23       1.0  0.7655577832235566  0.15253344460436583  0.738264383978894  1.0000
  H   H24       1.0  0.2655570066154027  0.847465746649071  0.2617365052349001  1.0000
  H   H25       1.0  0.5788427161242424  0.7824359765858803  0.9442420756087985  1.0000
  H   H26       1.0  0.07884604184383187  0.21756599533463128  0.05575828354380971  1.0000
  H   H27       1.0  0.3288439789808137  0.5557571393193897  0.2824366820770194  1.0000
  H   H28       1.0  0.8288489769476968  0.44424334396942566  0.7175634952241483  1.0000
  H   H29       1.0  0.17115217658515292  0.7175647749081197  0.44424106375007716  1.0000
  H   H30       1.0  0.6711554907277347  0.2824331438355047  0.555759228258239  1.0000
  H   H31       1.0  0.4211548505519644  0.9442430912758227  0.7824363318013925  1.0000
  H   H32       1.0  0.9211546377497085  0.05575799996221781  0.21756511010509882  1.0000
  H   H33       1.0  0.36727153917867383  0.7728501569905292  0.8270267755147601  1.0000
  H   H34       1.0  0.8672734648633665  0.22714963631062807  0.17297204208470165  1.0000
  H   H35       1.0  0.11727255244403521  0.6729718764615455  0.2728507639766349  1.0000
  H   H36       1.0  0.6172753845361214  0.32702807371909864  0.7271475695968591  1.0000
  H   H37       1.0  0.38272599952773584  0.7271500336520662  0.3270269329135047  1.0000
  H   H38       1.0  0.8827278752171209  0.2728490840750908  0.672973871070923  1.0000
  H   H39       1.0  0.6327274875699588  0.8270276968456756  0.7728536942830787  1.0000
  H   H40       1.0  0.13272694314598973  0.17297157776110336  0.22714795742707145  1.0000
  C   C1        1.0  0.5496046320392765  0.7583436601866252  0.12129732363670342  1.0000
  C   C2        1.0  0.049609586478290196  0.24165833008147078  0.8787017250323147  1.0000
  C   C3        1.0  0.2996063187070135  0.37870029414520445  0.258344067766842  1.0000
  C   C4        1.0  0.7996073438390496  0.6212988757415162  0.7416567966793226  1.0000
  C   C5        1.0  0.20039100189012524  0.7416580465408417  0.6212973155962018  1.0000
  C   C6        1.0  0.7003935818375311  0.25834185148016797  0.3787036210185235  1.0000
  C   C7        1.0  0.4503959373756176  0.12129799763314252  0.7583433199206128  1.0000
  C   C8        1.0  0.9503928443118139  0.8787010776313053  0.2416574348423738  1.0000
  C   C9        1.0  0.42009693327358383  0.7581672740120808  0.054103882525666315  1.0000
  C   C10       1.0  0.9201018096769006  0.24183448376396646  0.9458962283973664  1.0000
  C   C11       1.0  0.17009847604442294  0.445896458561826  0.2581682936326858  1.0000
  C   C12       1.0  0.6701008228793482  0.5541047902192987  0.7418313332655375  1.0000
  C   C13       1.0  0.3298964779154829  0.7418331611718756  0.5541024483733425  1.0000
  C   C14       1.0  0.8299000924706162  0.2581653238314985  0.4458977281636365  1.0000
  C   C15       1.0  0.5799014034742173  0.054103831000183795  0.7581675118347635  1.0000
  C   C16       1.0  0.07990047681405342  0.9458954767567604  0.24183284655049428  1.0000
  C   C17       1.0  0.4560142051584108  0.7691358168542662  0.9626762212785922  1.0000
  C   C18       1.0  0.9560188117620642  0.230865918383337  0.03732319764282721  1.0000
  C   C19       1.0  0.2060155095384175  0.5373224306135497  0.26913653944299654  1.0000
  C   C20       1.0  0.7060192518394076  0.46267746387849235  0.7308623954537695  1.0000
  C   C21       1.0  0.29397945675683707  0.730864918122542  0.46267643989958884  1.0000
  C   C22       1.0  0.7939828396585042  0.2691335894189707  0.5373250945144221  1.0000
  C   C23       1.0  0.5439845390034749  0.9626764801474084  0.7691374150428276  1.0000
  C   C24       1.0  0.0439830673148123  0.03732285014797301  0.23086363534404344  1.0000
  C   C25       1.0  0.3397901802712155  0.7646352325665121  0.8972626622636002  1.0000
  C   C26       1.0  0.8397922508237557  0.23536524385455956  0.10273684120092953  1.0000
  C   C27       1.0  0.0897901567488404  0.6027367109298823  0.26463656632125787  1.0000
  C   C28       1.0  0.5897928303179968  0.39726392237111713  0.7353631189935754  1.0000
  C   C29       1.0  0.4102060087473873  0.7353655610204941  0.3972621264310875  1.0000
  C   C30       1.0  0.9102080619790556  0.2646328735875016  0.6027379916891463  1.0000
  C   C31       1.0  0.6602099021200801  0.897263535613341  0.7646374160327768  1.0000
  C   C32       1.0  0.1602094785077668  0.10273572174792628  0.23536354981114735  1.0000
  C   C33       1.0  0.18285101830249323  0.7488993082959184  0.9245935828731151  1.0000
  C   C34       1.0  0.6828531202925915  0.25110060073223656  0.0754067006249812  1.0000
  C   C35       1.0  0.9328523207524811  0.5754062742847663  0.24890096998133526  1.0000
  C   C36       1.0  0.4328548273191757  0.4245948096132111  0.7510977999137298  1.0000
  C   C37       1.0  0.5671439195050996  0.7511007949281492  0.42459225289814384  1.0000
  C   C38       1.0  0.067147178699372  0.2488978549579244  0.5754081147657077  1.0000
  C   C39       1.0  0.8171490392530528  0.9245936725964015  0.748902710605819  1.0000
  C   C40       1.0  0.31714863387458087  0.07540548628234942  0.2510981410802557  1.0000
  C   C41       1.0  0.14690759543967863  0.7414818772515586  0.016741719738412507  1.0000
  C   C42       1.0  0.6469111644276567  0.2585193860819431  0.9832579240284575  1.0000
  C   C43       1.0  0.8969079488000062  0.4832578261262981  0.24148250635093402  1.0000
  C   C44       1.0  0.39691025509689126  0.5167426144524327  0.758516289690512  1.0000
  C   C45       1.0  0.6030870899843634  0.7585185914080483  0.5167414036566386  1.0000
  C   C46       1.0  0.103089386947282  0.241480035923253  0.48325893786243074  1.0000
  C   C47       1.0  0.8530920455534031  0.0167421646254198  0.7414825889109908  1.0000
  C   C48       1.0  0.3530910063029467  0.9832569716991629  0.258516904879464  1.0000
  C   C49       1.0  0.26331464703716984  0.7453711880112834  0.08236436384171243  1.0000
  C   C50       1.0  0.7633207513404942  0.254630668148458  0.9176358611246302  1.0000
  C   C51       1.0  0.013316252300995802  0.4176354408680325  0.2453722354435399  1.0000
  C   C52       1.0  0.5133173250866607  0.5823652404229945  0.7546261737483207  1.0000
  C   C53       1.0  0.48667869928723934  0.7546298877261536  0.5823634700469074  1.0000
  C   C54       1.0  0.986683592635842  0.2453698306430567  0.41763659244529805  1.0000
  C   C55       1.0  0.736683656587175  0.08236419428388331  0.7453719801368167  1.0000
  C   C56       1.0  0.2366827567566574  0.9176350150889905  0.2546282642046976  1.0000
  C   C57       1.0  0.9277646729733178  0.7285559177805254  0.9367402204179742  1.0000
  C   C58       1.0  0.4277678743357782  0.27144250580928303  0.06325855317879812  1.0000
  C   C59       1.0  0.6777659280226159  0.5632588032876028  0.22855657659835066  1.0000
  C   C60       1.0  0.1777695522210792  0.4367417748065066  0.7714430447223821  1.0000
  C   C61       1.0  0.822230313493556  0.7714425290488123  0.4367403821040555  1.0000
  C   C62       1.0  0.32223482950359283  0.22855662664009202  0.5632598000086804  1.0000
  C   C63       1.0  0.07223540213851722  0.9367414755824797  0.7285584844811694  1.0000
  C   C64       1.0  0.5722338622779546  0.06325783698493842  0.2714425453559883  1.0000
  N   N1        1.0  0.042071736529408106  0.7394446129337239  0.8764794783340693  1.0000
  N   N2        1.0  0.5420748977728496  0.2605533868111465  0.12351957581684303  1.0000
  N   N3        1.0  0.7920729373747477  0.6235197966823732  0.23944623457129677  1.0000
  N   N4        1.0  0.2920767063996977  0.3764807096814097  0.7605539694776555  1.0000
  N   N5        1.0  0.7079221232252807  0.7605548675250091  0.37648003510512507  1.0000
  N   N6        1.0  0.20792766775617375  0.2394450257691361  0.6235208960303638  1.0000
  N   N7        1.0  0.957928444331337  0.8764801586702758  0.7394479159343632  1.0000
  N   N8        1.0  0.4579279215747221  0.1235195777417033  0.2605528333482283  1.0000
  N   N9        1.0  0.9842970935408034  0.729017095874056  0.021037648955371007  1.0000
  N   N10       1.0  0.4843005710623843  0.27098395574007833  0.9789630811445564  1.0000
  N   N11       1.0  0.7342985699588381  0.47896298808981197  0.22901604786751764  1.0000
  N   N12       1.0  0.2343008391034402  0.521037554530224  0.7709815347055057  1.0000
  N   N13       1.0  0.7656988470450729  0.7709830551758331  0.5210369012389934  1.0000
  N   N14       1.0  0.26570236713578055  0.22901613598803286  0.4789633219952095  1.0000
  N   N15       1.0  0.0157025649498905  0.021037327591173504  0.7290177037455123  1.0000
  N   N16       1.0  0.5157015821683119  0.9789620204518741  0.2709827013381273  1.0000
  O   O1        1.0  0.6954516922594608  0.7614605862978223  0.0981947216145329  1.0000
  O   O2        1.0  0.19545659987339553  0.2385413124488736  0.9018028892142311  1.0000
  O   O3        1.0  0.44545332896637996  0.40180278491012444  0.26146096718973416  1.0000
  O   O4        1.0  0.9454544071919104  0.5981962934540093  0.7385411229178304  1.0000
  O   O5        1.0  0.05454280621056991  0.7385411411293177  0.598196154209596  1.0000
  O   O6        1.0  0.5545453269378484  0.2614588484144278  0.40180488849541973  1.0000
  O   O7        1.0  0.3045489199622082  0.09819550407542012  0.7614603461482262  1.0000
  O   O8        1.0  0.8045457881128968  0.9018029968361816  0.23853984882907045  1.0000
  O   O9        1.0  0.5142935301125746  0.7538523061351087  0.20460767536937405  1.0000
  O   O10       1.0  0.014297478352389698  0.24614770866602242  0.7953920648616943  1.0000
  O   O11       1.0  0.2642930189429151  0.2953906710624565  0.25385345415110555  1.0000
  O   O12       1.0  0.76429505658394  0.7046091868592016  0.746146770105945  1.0000
  O   O13       1.0  0.23570428957209805  0.74614666244522  0.7046069717412566  1.0000
  O   O14       1.0  0.7357046926942205  0.2538518816666837  0.29539327331248444  1.0000
  O   O15       1.0  0.48570687048052713  0.2046082906154112  0.7538526059174018  1.0000
  O   O16       1.0  0.9857051212607288  0.7953907624902855  0.24614812315985554  1.0000
