data_image0
_chemical_formula_structural       Cd4H36C32N4O28
_chemical_formula_sum              "Cd4 H36 C32 N4 O28"
_cell_length_a       9.501898157363268
_cell_length_b       10.063344829091351
_cell_length_c       11.278005726979497
_cell_angle_alpha    90.00003605662675
_cell_angle_beta     111.0199954427731
_cell_angle_gamma    90.00043913020811

_space_group_name_H-M_alt    "P 1"
_space_group_IT_number       1

loop_
  _space_group_symop_operation_xyz
  'x, y, z'

loop_
  _atom_site_type_symbol
  _atom_site_label
  _atom_site_symmetry_multiplicity
  _atom_site_fract_x
  _atom_site_fract_y
  _atom_site_fract_z
  _atom_site_occupancy
  Cd  Cd1       1.0  0.3861387550026905  0.6226144736818923  0.046393425403003584  1.0000
  Cd  Cd2       1.0  0.6138582470494924  0.12261269609275158  0.4536039000913874  1.0000
  Cd  Cd3       1.0  0.6138594109338554  0.3773860173011201  0.9536059370732486  1.0000
  Cd  Cd4       1.0  0.38614104424248546  0.8773858074845932  0.5463984630624807  1.0000
  H   H1        1.0  0.2667108019101008  0.7205934630476989  0.2367538519797208  1.0000
  H   H2        1.0  0.7332916526342643  0.2205943971059624  0.26324783821650033  1.0000
  H   H3        1.0  0.7332896175368404  0.27940802164967943  0.7632479659735052  1.0000
  H   H4        1.0  0.2667098942545821  0.7794060938902021  0.7367543210009017  1.0000
  H   H5        1.0  0.44382250434320986  0.7148445464409291  0.30909124981301517  1.0000
  H   H6        1.0  0.5561810242981126  0.21484614235117047  0.19090810227279317  1.0000
  H   H7        1.0  0.5561790411578471  0.2851559445558607  0.6909126823478288  1.0000
  H   H8        1.0  0.44382052258594473  0.7851533549396024  0.8090940569428894  1.0000
  H   H9        1.0  0.32196789569682954  0.3596797998483652  0.05557299519681181  1.0000
  H   H10       1.0  0.678033645111782  0.8596809787070542  0.4444284954258959  1.0000
  H   H11       1.0  0.6780302702349275  0.6403196974292554  0.9444263672777209  1.0000
  H   H12       1.0  0.3219679024661701  0.14031851858340613  0.5555727773180692  1.0000
  H   H13       1.0  0.3037278529358716  0.417499518783039  0.1760166177554368  1.0000
  H   H14       1.0  0.6962742460955411  0.9174997497368904  0.32398418716479677  1.0000
  H   H15       1.0  0.696272567195379  0.5824999785032433  0.8239843137226258  1.0000
  H   H16       1.0  0.3037261747296042  0.082499747549079  0.6760158578415413  1.0000
  H   H17       1.0  0.9888665270744496  0.6891195600211688  0.5499984971606577  1.0000
  H   H18       1.0  0.011135497147130004  0.1891203994316584  0.9500036136304857  1.0000
  H   H19       1.0  0.011130512104500698  0.31087993725196117  0.4499996375762478  1.0000
  H   H20       1.0  0.9888671778775161  0.8108790978629797  0.04999800037938225  1.0000
  H   H21       1.0  0.874058365517861  0.6071899828452487  0.14914525821235702  1.0000
  H   H22       1.0  0.1259441229555307  0.10718859681734468  0.3508563794680128  1.0000
  H   H23       1.0  0.1259386736706674  0.3928115018386649  0.8508528765280018  1.0000
  H   H24       1.0  0.8740562971709309  0.8928099067635458  0.6491445520083231  1.0000
  H   H25       1.0  0.5954925742868654  0.4755399834270761  0.35746061293566816  1.0000
  H   H26       1.0  0.4045044478562687  0.9755379865243511  0.14253780071685174  1.0000
  H   H27       1.0  0.404504465595565  0.5244615012565249  0.6425366353329665  1.0000
  H   H28       1.0  0.595498226479279  0.024462504475984297  0.85746469976646  1.0000
  H   H29       1.0  0.8601882237710824  0.5973623661377729  0.655264183486352  1.0000
  H   H30       1.0  0.1398072798005572  0.09735809441767879  0.844734129408934  1.0000
  H   H31       1.0  0.13981107099515813  0.4026371311434005  0.3447337473106415  1.0000
  H   H32       1.0  0.8601920128744142  0.902639415453649  0.15526646079977266  1.0000
  H   H33       1.0  0.7255129601930718  0.47026793129845873  0.5857053013630633  1.0000
  H   H34       1.0  0.2744805012350326  0.9702632042821833  0.9142934865360741  1.0000
  H   H35       1.0  0.27448520643736873  0.5297325596842342  0.4142931746414717  1.0000
  H   H36       1.0  0.7255210456490246  0.02973629300858959  0.0857086726796084  1.0000
  C   C1        1.0  0.9163359488234379  0.6473935777335884  0.45966248160819845  1.0000
  C   C2        1.0  0.08366467172806578  0.14739166727568428  0.040339499612528584  1.0000
  C   C3        1.0  0.08366109036030879  0.35260691324493365  0.540335653130434  1.0000
  C   C4        1.0  0.9163391307480708  0.8526088237285168  0.9596624556649686  1.0000
  C   C5        1.0  0.9468649610219302  0.6566380891742937  0.34792886047553384  1.0000
  C   C6        1.0  0.0531402584761409  0.15664001316360293  0.152074517915743  1.0000
  C   C7        1.0  0.0531320781570201  0.34336140809883625  0.6520692742613718  1.0000
  C   C8        1.0  0.9468624165533014  0.8433604778364273  0.8479270960958515  1.0000
  C   C9        1.0  0.8484567293619351  0.6009683320687031  0.23590200652009943  1.0000
  C   C10       1.0  0.1515445709784515  0.10096706869374118  0.26410015476248816  1.0000
  C   C11       1.0  0.1515391823846883  0.3990341463164241  0.7640957869560836  1.0000
  C   C12       1.0  0.8484547210122102  0.8990324285886756  0.735901321921389  1.0000
  C   C13       1.0  0.7137798794139343  0.5384031617046716  0.23359835976732757  1.0000
  C   C14       1.0  0.2862196908862771  0.03840286890650191  0.2664023565305058  1.0000
  C   C15       1.0  0.2862182872117103  0.4615963355726364  0.7664001162354805  1.0000
  C   C16       1.0  0.7137818560073654  0.9615986157950474  0.73359980268863  1.0000
  C   C17       1.0  0.6927498740708986  0.527608505942723  0.35073604332751523  1.0000
  C   C18       1.0  0.3072495935286809  0.027608281359995598  0.14926286254406307  1.0000
  C   C19       1.0  0.30724716581152467  0.4723929787408777  0.6492612049411192  1.0000
  C   C20       1.0  0.6927530815055505  0.9723932033454262  0.8507387514692508  1.0000
  C   C21       1.0  0.08869540249222749  0.7278459192655757  0.3522240754609171  1.0000
  C   C22       1.0  0.9113150127248775  0.22784705849892362  0.1477818017235749  1.0000
  C   C23       1.0  0.9113027634491077  0.2721555654228212  0.6477752870170619  1.0000
  C   C24       1.0  0.08869104533854968  0.7721534325133204  0.8522199496140174  1.0000
  C   C25       1.0  0.7573856491402466  0.5730102234489537  0.5746683356043647  1.0000
  C   C26       1.0  0.24260961892770894  0.07300774222693458  0.9253307792063338  1.0000
  C   C27       1.0  0.24261251748539786  0.42698927382835455  0.4253301403984437  1.0000
  C   C28       1.0  0.7573908012035417  0.9269917550593548  0.07467015227172881  1.0000
  C   C29       1.0  0.6296910323147031  0.6636615333269661  0.5783600703268376  1.0000
  C   C30       1.0  0.3703039859012237  0.16366096190426296  0.9216345856366812  1.0000
  C   C31       1.0  0.37030600616556336  0.336336970241085  0.42163895088005887  1.0000
  C   C32       1.0  0.6296964376995007  0.8363385353804632  0.07836191348278729  1.0000
  N   N1        1.0  0.7912139535526777  0.5821762421689982  0.45768049474433076  1.0000
  N   N2        1.0  0.2087849113892801  0.08217622702142079  0.04232003228398899  1.0000
  N   N3        1.0  0.20878421307776313  0.41782424881370156  0.5423179812602114  1.0000
  N   N4        1.0  0.7912177629462605  0.9178242639789146  0.9576824681993229  1.0000
  O   O1        1.0  0.6081890563187784  0.49408348490086235  0.13051817887019004  1.0000
  O   O2        1.0  0.3918092720792927  0.9940815576283839  0.36948064043807693  1.0000
  O   O3        1.0  0.3918079835684409  0.5059189934881233  0.8694790694001782  1.0000
  O   O4        1.0  0.6081911473580632  0.005917939658211  0.6305211775117029  1.0000
  O   O5        1.0  0.09956427620828381  0.7641658536819094  0.24875926611564128  1.0000
  O   O6        1.0  0.9004431089552868  0.2641640069777508  0.25124305396668933  1.0000
  O   O7        1.0  0.9004361446216507  0.2358346373094591  0.7512407788924235  1.0000
  O   O8        1.0  0.09955731464543761  0.7358354903069754  0.7487534451527722  1.0000
  O   O9        1.0  0.1876136216376096  0.7416210587452737  0.46365958615269415  1.0000
  O   O10       1.0  0.8123924131622077  0.24162438835859484  0.036349406162827315  1.0000
  O   O11       1.0  0.8123845435954566  0.2583774448272678  0.5363406627918295  1.0000
  O   O12       1.0  0.1876091337314278  0.7583770963429544  0.9636527530563086  1.0000
  O   O13       1.0  0.5956041302542019  0.6542192565834669  0.6756252021543858  1.0000
  O   O14       1.0  0.40439417853175297  0.1542128991926006  0.8243713312815328  1.0000
  O   O15       1.0  0.4043951624351437  0.34578123440402914  0.3243753880594937  1.0000
  O   O16       1.0  0.5956062443559134  0.8457826232708782  0.17562605430275366  1.0000
  O   O17       1.0  0.5648802111151311  0.7419513400048174  0.48517191322618186  1.0000
  O   O18       1.0  0.435116816293771  0.2419499526191302  0.01482282596841599  1.0000
  O   O19       1.0  0.43511908227289814  0.2580501446877577  0.5148277905176994  1.0000
  O   O20       1.0  0.5648824805589427  0.7580505383664969  0.985172445415152  1.0000
  O   O21       1.0  0.36095388508346815  0.674278188440958  0.2393004243532459  1.0000
  O   O22       1.0  0.6390469988702917  0.1742764552310305  0.26069633139053383  1.0000
  O   O23       1.0  0.639047662508851  0.3257242899656704  0.760700848395899  1.0000
  O   O24       1.0  0.3609545487076602  0.8257230420594369  0.7393049413534313  1.0000
  O   O25       1.0  0.26671640972540445  0.43008264375697536  0.0822901874353903  1.0000
  O   O26       1.0  0.7332858106466772  0.9300842011809607  0.41771066118028694  1.0000
  O   O27       1.0  0.7332840104058462  0.5699168535293069  0.9177107440426722  1.0000
  O   O28       1.0  0.26671573831427514  0.06991430240348961  0.5822888386185099  1.0000
