data_image0
_chemical_formula_structural       Zn4H29C37S3N7O22
_chemical_formula_sum              "Zn4 H29 C37 S3 N7 O22"
_cell_length_a       13.084040721831506
_cell_length_b       19.139448984195404
_cell_length_c       19.25963727452794
_cell_angle_alpha    84.87969838991609
_cell_angle_beta     84.81771009454953
_cell_angle_gamma    83.7871807934466

_space_group_name_H-M_alt    "P 1"
_space_group_IT_number       1

loop_
  _space_group_symop_operation_xyz
  'x, y, z'

loop_
  _atom_site_type_symbol
  _atom_site_label
  _atom_site_symmetry_multiplicity
  _atom_site_fract_x
  _atom_site_fract_y
  _atom_site_fract_z
  _atom_site_occupancy
  Zn  Zn1       1.0  0.575883460757531  0.5539148388653672  0.42910675089702716  1.0000
  Zn  Zn2       1.0  0.5622442407716124  0.43740404299333596  0.5618701326961002  1.0000
  Zn  Zn3       1.0  0.38677805460251596  0.459065011537497  0.45544028710172313  1.0000
  Zn  Zn4       1.0  0.41372695284035643  0.5773579067415681  0.5626828313899281  1.0000
  H   H1        1.0  0.07449040877498453  0.4789965207002708  0.4799960629174933  1.0000
  H   H2        1.0  0.3714942934373014  0.4273303478022256  0.1085629638840189  1.0000
  H   H3        1.0  0.5255875541040639  0.7760911412192827  0.5754880402331962  1.0000
  H   H4        1.0  0.3718764845818185  0.5584195147840206  0.7907493694506514  1.0000
  H   H5        1.0  0.07446026528059244  0.6086293967207793  0.5622314650331077  1.0000
  H   H6        1.0  0.5878905127200086  0.22614846004128708  0.5876813394829198  1.0000
  H   H7        1.0  0.602816464245855  0.5626302360128009  0.22131230581577196  1.0000
  H   H8        1.0  0.49236971987111416  0.9146553649457589  0.34688267076479207  1.0000
  H   H9        1.0  0.7077857567730065  0.46441602124808395  0.8806034530201855  1.0000
  H   H10       1.0  0.39640042242513124  0.24034936836172702  0.4163618333270236  1.0000
  H   H11       1.0  0.3540513853338325  0.4314985258149876  0.23949150453377396  1.0000
  H   H12       1.0  0.9215116152319354  0.6540356255797307  0.6128422320873383  1.0000
  H   H13       1.0  0.5286904642705041  0.9072719274689691  0.5667097572947952  1.0000
  H   H14       1.0  0.9965597452501671  0.40128139402727925  0.48845612936253957  1.0000
  H   H15       1.0  0.9312385556145629  0.3140597240819076  0.43583548181287307  1.0000
  H   H16       1.0  0.8151386109475498  0.3687010128721795  0.42183493618230017  1.0000
  H   H17       1.0  0.8326462187959862  0.32429320226646047  0.5060852138543979  1.0000
  H   H18       1.0  0.6570197667543382  0.12350616258223819  0.6300416957079803  1.0000
  H   H19       1.0  0.3925331031508321  0.5499372483351834  0.919880876997759  1.0000
  H   H20       1.0  0.6900968133867879  0.9898404846201315  0.5682148709810662  1.0000
  H   H21       1.0  0.5878308805838942  0.9902800240522466  0.6350117784633156  1.0000
  H   H22       1.0  0.7122310264325693  0.010013056224153202  0.6544201485586071  1.0000
  H   H23       1.0  0.6663808317318715  0.6005997094534195  0.11552334181340027  1.0000
  H   H24       1.0  0.7857667240277452  0.49357485163037057  0.10185432520796668  1.0000
  H   H25       1.0  0.7928395485927525  0.5592884795591572  0.029707452105427024  1.0000
  H   H26       1.0  0.7240603956417075  0.48495945733520057  0.02388280496455051  1.0000
  H   H27       1.0  0.49303977642155433  0.842163396046075  0.23696802994271587  1.0000
  H   H28       1.0  0.8467738226518905  0.5155399073447953  0.7548005221586251  1.0000
  H   H29       1.0  0.42671312602422523  0.10850886031187201  0.4122926651756771  1.0000
  C   C1        1.0  0.47813475222221774  0.31805230097947396  0.5073310791017889  1.0000
  C   C2        1.0  0.4555169918903488  0.5317532426270049  0.8827870800275477  1.0000
  C   C3        1.0  0.5231659932032431  0.8793903136497363  0.520587054905036  1.0000
  C   C4        1.0  0.5138816715933745  0.9184157472481614  0.45564337101493624  1.0000
  C   C5        1.0  0.5502282689537382  0.503921099939845  0.9078279550798171  1.0000
  C   C6        1.0  0.5035993467000637  0.883278363511053  0.3960536276599739  1.0000
  C   C7        1.0  0.6335474193885631  0.4829480645214659  0.8606666865545377  1.0000
  C   C8        1.0  0.4726182052156746  0.5023616779086454  0.3147115327126215  1.0000
  C   C9        1.0  0.504752030246003  0.8101023288659094  0.40093646500421437  1.0000
  C   C10       1.0  0.6202499321386625  0.48496115249840704  0.7896428990497596  1.0000
  C   C11       1.0  0.5699687355826981  0.12522485105376555  0.5493517544445083  1.0000
  C   C12       1.0  0.570036925343615  0.5267021781121102  0.12342760724873611  1.0000
  C   C13       1.0  0.5528638506825702  0.19949247443585702  0.5494516485715195  1.0000
  C   C14       1.0  0.5528839094173393  0.5325583884563728  0.1957468134677711  1.0000
  C   C15       1.0  0.5229045746371241  0.09292951563023877  0.49774342453794407  1.0000
  C   C16       1.0  0.5006899623246497  0.4881235050328315  0.09192201135021351  1.0000
  C   C17       1.0  0.49180827052023085  0.23999112250887578  0.5028248589631943  1.0000
  C   C18       1.0  0.47769224411289474  0.49835245841948245  0.23736274400599197  1.0000
  C   C19       1.0  0.4447924028306361  0.2077656660798439  0.4523004017663155  1.0000
  C   C20       1.0  0.4123769490198157  0.45837243914196063  0.2066642170212916  1.0000
  C   C21       1.0  0.5114099355046379  0.6926662010851602  0.47708921267369664  1.0000
  C   C22       1.0  0.5028808893679085  0.5091118263734913  0.6891512995001816  1.0000
  C   C23       1.0  0.4615405432260929  0.13566612234475878  0.4501079121546566  1.0000
  C   C24       1.0  0.5214117350078596  0.8069595818125066  0.5252756212529022  1.0000
  C   C25       1.0  0.42319186055852503  0.45523105382930845  0.1349247973509833  1.0000
  C   C26       1.0  0.21134519774469854  0.5434368731894779  0.5264864626310127  1.0000
  C   C27       1.0  0.7567467516761752  0.47889126252995595  0.4879292069013985  1.0000
  C   C28       1.0  0.8725608011906872  0.4744250806963847  0.49239060050818745  1.0000
  C   C29       1.0  0.9241113584574736  0.5295964018173936  0.5098605671490334  1.0000
  C   C30       1.0  0.4443372294628106  0.5361826328559474  0.8114268492655512  1.0000
  C   C31       1.0  0.09957864288416833  0.5624321504329758  0.5338445365464892  1.0000
  C   C32       1.0  0.034468796033060314  0.5228413958189081  0.5078158833111743  1.0000
  C   C33       1.0  0.5130931780084823  0.7708889181083832  0.46601721024231324  1.0000
  C   C34       1.0  0.5246664593169045  0.510942334710606  0.7639403233961843  1.0000
  C   C35       1.0  0.8718850633125826  0.3512452058318872  0.459992563519215  1.0000
  C   C36       1.0  0.6565151399339657  0.0163695184281138  0.6144706205402314  1.0000
  C   C37       1.0  0.7432749029612395  0.5223338794824387  0.05926013331966832  1.0000
  S   S1        1.0  0.8544320928034923  0.6089452384247025  0.5336772934056667  1.0000
  S   S2        1.0  0.48821420300859597  0.7665210863930695  0.32447169068062465  1.0000
  S   S3        1.0  0.728551816626805  0.45570134531740075  0.7318362215412506  1.0000
  N   N1        1.0  0.5082766963106168  0.9925755285789323  0.4466336481536999  1.0000
  N   N2        1.0  0.9212511613432852  0.41081146673149505  0.4787834251645293  1.0000
  N   N3        1.0  0.631957717164511  0.09123639495803101  0.5977205057895887  1.0000
  N   N4        1.0  0.6482954317478189  0.5623656097717458  0.08642345354491708  1.0000
  N   N5        1.0  0.569828980160203  0.49825000111656  0.9789793824219116  1.0000
  N   N6        1.0  0.5363550034904777  0.0199340544743407  0.499102002996203  1.0000
  N   N7        1.0  0.49160509789443557  0.4860550722867456  0.020690483215759135  1.0000
  O   O1        1.0  0.4848965964528418  0.5072427238540342  0.5014303418814592  1.0000
  O   O2        1.0  0.5356815703773279  0.4521217992421711  0.6613042216159286  1.0000
  O   O3        1.0  0.40136621824778734  0.47279896156982193  0.3522811345618706  1.0000
  O   O4        1.0  0.41289140965174914  0.35453861957519445  0.46998989705764416  1.0000
  O   O5        1.0  0.4503981045183707  0.5624093758849469  0.6612209230782327  1.0000
  O   O6        1.0  0.4573682863639023  0.6709857058804118  0.5314217786668394  1.0000
  O   O7        1.0  0.24677422055466994  0.49097461284694793  0.4910790379280954  1.0000
  O   O8        1.0  0.7107193269765872  0.44259603215839866  0.5367514716861237  1.0000
  O   O9        1.0  0.7212620147286517  0.5124850645502689  0.4342599638736359  1.0000
  O   O10       1.0  0.2651129080169454  0.5811465715322371  0.5580283225813004  1.0000
  O   O11       1.0  0.8976527434943976  0.6682850044752654  0.494759307604717  1.0000
  O   O12       1.0  0.7456116308845324  0.6028080108332575  0.5379429347920065  1.0000
  O   O13       1.0  0.8844173677964735  0.6121015443698709  0.6142395987164092  1.0000
  O   O14       1.0  0.534534534304271  0.3417949830084907  0.54885109498111  1.0000
  O   O15       1.0  0.5867458982511239  0.742877445651878  0.2900393579161644  1.0000
  O   O16       1.0  0.40818849940163915  0.7207778322779603  0.34141029615527435  1.0000
  O   O17       1.0  0.4391170054255299  0.8321096859247843  0.2740102723946265  1.0000
  O   O18       1.0  0.7349627691511172  0.3805680618616876  0.7306118163735461  1.0000
  O   O19       1.0  0.7318845492201549  0.502911267721963  0.6694649588498649  1.0000
  O   O20       1.0  0.8247400874593113  0.47015029509657325  0.7748348050118848  1.0000
  O   O21       1.0  0.5423371311077148  0.5343473741881725  0.3367284266164887  1.0000
  O   O22       1.0  0.5653157101072992  0.6558086589947436  0.432808146576896  1.0000
