data_image0
_chemical_formula_structural       Co2H32C30N2O14
_chemical_formula_sum              "Co2 H32 C30 N2 O14"
_cell_length_a       9.93189788150719
_cell_length_b       9.983405596570803
_cell_length_c       11.820624107987355
_cell_angle_alpha    65.68274304748208
_cell_angle_beta     61.92443683826052
_cell_angle_gamma    65.26492663834449

_space_group_name_H-M_alt    "P 1"
_space_group_IT_number       1

loop_
  _space_group_symop_operation_xyz
  'x, y, z'

loop_
  _atom_site_type_symbol
  _atom_site_label
  _atom_site_symmetry_multiplicity
  _atom_site_fract_x
  _atom_site_fract_y
  _atom_site_fract_z
  _atom_site_occupancy
  Co  Co1       1.0  0.34668321687946957  0.7368096419188462  0.07336396808649674  1.0000
  Co  Co2       1.0  0.6533203215632637  0.26319118725060514  0.926637567983093  1.0000
  H   H1        1.0  0.8808917911088512  0.7651596425598585  0.05512968884688974  1.0000
  H   H2        1.0  0.11911276092850892  0.23483772725629856  0.9448734377091271  1.0000
  H   H3        1.0  0.29932953034954574  0.5895114576798476  0.7475168560474829  1.0000
  H   H4        1.0  0.7006765037231658  0.4104929763084683  0.2524783423939709  1.0000
  H   H5        1.0  0.8369674368506066  0.6232901271076656  0.7782228635548379  1.0000
  H   H6        1.0  0.16304010558963702  0.37670500723694994  0.22177902290741264  1.0000
  H   H7        1.0  0.9898010275440965  0.4304300383030366  0.6785989307241991  1.0000
  H   H8        1.0  0.01020829442906999  0.5695676215818394  0.32139469705152385  1.0000
  H   H9        1.0  0.14928330495597203  0.45362270104270414  0.5190206588320692  1.0000
  H   H10       1.0  0.85072418710331  0.5463805758902113  0.48097521607714094  1.0000
  H   H11       1.0  0.9874701632771873  0.616544131216152  0.5618425138426417  1.0000
  H   H12       1.0  0.012535328146462573  0.3834545537962981  0.43815475468391435  1.0000
  H   H13       1.0  0.05242300775173453  0.9374452762652011  0.1647833194472597  1.0000
  H   H14       1.0  0.9475695104308524  0.06255912633542243  0.835212716356061  1.0000
  H   H15       1.0  0.884118350632647  0.07441941510252552  0.33774041677995115  1.0000
  H   H16       1.0  0.11587762715469549  0.9255850805375232  0.6622526005678465  1.0000
  H   H17       1.0  0.23807539579745193  0.8140146173922601  0.521571783205779  1.0000
  H   H18       1.0  0.7619073623933514  0.18598379686507366  0.4784340837830073  1.0000
  H   H19       1.0  0.42488520233472815  0.5422074980041528  0.3389228674415961  1.0000
  H   H20       1.0  0.5750984694499052  0.45779554706204095  0.6610803071667705  1.0000
  H   H21       1.0  0.44493197269182605  0.6173763162607102  0.44169840627284174  1.0000
  H   H22       1.0  0.5550433963264608  0.3826277784212593  0.5583075357495275  1.0000
  H   H23       1.0  0.5313417622889529  0.6808258740983177  0.2648236662456327  1.0000
  H   H24       1.0  0.46864435626694956  0.3191725283461295  0.7351826396600174  1.0000
  H   H25       1.0  0.3571448797764702  0.45183615900121765  0.12232400018996968  1.0000
  H   H26       1.0  0.6428574971947112  0.5481646304173963  0.8776788301458255  1.0000
  H   H27       1.0  0.4843438673766584  0.430685925035668  0.16967570354114517  1.0000
  H   H28       1.0  0.5156608325376408  0.5693149438846137  0.8303245382622392  1.0000
  H   H29       1.0  0.3543615543063151  0.9425680465865371  0.8615268096758797  1.0000
  H   H30       1.0  0.6456434173130743  0.057431599314441  0.13847626720456674  1.0000
  H   H31       1.0  0.3516880513469046  0.037822893294333006  0.9465973635447467  1.0000
  H   H32       1.0  0.648315116912208  0.962170859027644  0.05341253505938678  1.0000
  C   C1        1.0  0.6643095016388397  0.7377202908291238  0.9929024459945737  1.0000
  C   C2        1.0  0.3357004131429305  0.262270122254506  0.0071051647942397015  1.0000
  C   C3        1.0  0.8407251558007683  0.7004676463688356  0.9221233817572383  1.0000
  C   C4        1.0  0.15928006369635736  0.29952740847411263  0.07788109323742283  1.0000
  C   C5        1.0  0.9345775232697944  0.7206722073059524  0.9690024701559637  1.0000
  C   C6        1.0  0.06542898076592246  0.27932636017887086  0.030998690162960037  1.0000
  C   C7        1.0  0.09983013777321756  0.6820989612005733  0.9046502736383601  1.0000
  C   C8        1.0  0.9001742904359844  0.3179031307390047  0.09534713308796221  1.0000
  C   C9        1.0  0.1706835165559042  0.6209117008875679  0.7962755988395428  1.0000
  C   C10       1.0  0.8293226661548798  0.3790880371903995  0.20372445508850484  1.0000
  C   C11       1.0  0.0768723953436563  0.5960279913238651  0.7522719861391566  1.0000
  C   C12       1.0  0.923134529256643  0.4039695104201257  0.24772682319825629  1.0000
  C   C13       1.0  0.9113773773252801  0.6392191681663562  0.8130642275699389  1.0000
  C   C14       1.0  0.08863248805808152  0.36077604567992677  0.1869350703599011  1.0000
  C   C15       1.0  0.20362278414327759  0.7045538332867877  0.9503686515533758  1.0000
  C   C16       1.0  0.796382088457875  0.295450560950691  0.049627841154283196  1.0000
  C   C17       1.0  0.06376258056229032  0.5059372325391747  0.600669128159737  1.0000
  C   C18       1.0  0.9362475557650354  0.49406495330226335  0.39932526460793144  1.0000
  C   C19       1.0  0.08835869349664445  0.9127768865392554  0.24694980825821486  1.0000
  C   C20       1.0  0.9116323418894579  0.0872286469036823  0.7530464154204353  1.0000
  C   C21       1.0  0.9945597535045039  0.9893969919949941  0.34499607095773394  1.0000
  C   C22       1.0  0.005429823895028091  0.010609698503330413  0.6549994762531597  1.0000
  C   C23       1.0  0.04640765958245659  0.959396404832887  0.4473266405754758  1.0000
  C   C24       1.0  0.9535803854007482  0.0406113640815988  0.5526708231969478  1.0000
  C   C25       1.0  0.19120814825961935  0.846869812686755  0.44438017839667765  1.0000
  C   C26       1.0  0.8087763884815542  0.1531344689365  0.5556197312115218  1.0000
  C   C27       1.0  0.2788194437302991  0.7697287275244022  0.34514496244972986  1.0000
  C   C28       1.0  0.7211672928869675  0.23027216070947523  0.6548543790355907  1.0000
  C   C29       1.0  0.4288388158902948  0.6452981255782857  0.34830931847653807  1.0000
  C   C30       1.0  0.5711485137569949  0.3547003690431437  0.6516939644767064  1.0000
  N   N1        1.0  0.22871272583157062  0.805422866774407  0.24470606035625056  1.0000
  N   N2        1.0  0.7712767036910148  0.1945803246197997  0.7552923716072757  1.0000
  O   O1        1.0  0.5921797443578355  0.8341099905665672  0.06054476295818039  1.0000
  O   O2        1.0  0.4078328889003018  0.16587455687601252  0.9394688142049716  1.0000
  O   O3        1.0  0.5894825974175645  0.6641524940647798  0.9855510358370979  1.0000
  O   O4        1.0  0.41052365972296195  0.3358473226524196  0.01444642506166359  1.0000
  O   O5        1.0  0.15732526893161478  0.5281463560918809  0.6502928209850297  1.0000
  O   O6        1.0  0.8426823231284643  0.47184883067888705  0.3497073367910276  1.0000
  O   O7        1.0  0.15082431375471822  0.7131773937405725  0.06982457076563983  1.0000
  O   O8        1.0  0.8491827587225272  0.28682360710753574  0.9301713538191407  1.0000
  O   O9        1.0  0.34322428416082545  0.7142806273352349  0.8703982372606448  1.0000
  O   O10       1.0  0.6567810090049233  0.28572270116140436  0.1295959044655105  1.0000
  O   O11       1.0  0.3730984885396109  0.4922298959059928  0.1776475987434338  1.0000
  O   O12       1.0  0.6269055935347438  0.5077733404136566  0.8223495659351129  1.0000
  O   O13       1.0  0.31194390747645445  0.9564452386007711  0.9500750563469041  1.0000
  O   O14       1.0  0.6880554056446397  0.0435543658245052  0.04992930580600331  1.0000
