data_image0
_chemical_formula_structural       Cu2H46C36Br2N6O2
_chemical_formula_sum              "Cu2 H46 C36 Br2 N6 O2"
_cell_length_a       8.610164383185571
_cell_length_b       8.604694455772512
_cell_length_c       14.242721615134588
_cell_angle_alpha    100.58040791206216
_cell_angle_beta     105.25682528981885
_cell_angle_gamma    105.04345989307781

_space_group_name_H-M_alt    "P 1"
_space_group_IT_number       1

loop_
  _space_group_symop_operation_xyz
  'x, y, z'

loop_
  _atom_site_type_symbol
  _atom_site_label
  _atom_site_symmetry_multiplicity
  _atom_site_fract_x
  _atom_site_fract_y
  _atom_site_fract_z
  _atom_site_occupancy
  Cu  Cu1       1.0  0.7091466716573933  0.2143647040598324  0.8753700054883209  1.0000
  Cu  Cu2       1.0  0.33940681804517686  0.8332497548767323  0.12491979860851636  1.0000
  H   H1        1.0  0.4951619194279002  0.7194762004221005  0.009826933512101675  1.0000
  H   H2        1.0  0.7105736549906538  0.48533208014168144  0.9902143298920619  1.0000
  H   H3        1.0  0.557206399761796  0.5925331287153242  0.8341803932757014  1.0000
  H   H4        1.0  0.7590877956958124  0.7226372319719588  0.16594355125408808  1.0000
  H   H5        1.0  0.5140340683897692  0.7803650248062938  0.498257990932366  1.0000
  H   H6        1.0  0.2812169802926761  0.0162131876770459  0.5020425541674526  1.0000
  H   H7        1.0  0.0387809443287495  0.8937264300479413  0.6740467887548148  1.0000
  H   H8        1.0  0.21941963722761668  0.3646754224608912  0.3254461750374061  1.0000
  H   H9        1.0  0.2994509059886993  0.758531658664012  0.5764259835545714  1.0000
  H   H10       1.0  0.18151982645432702  0.7235611986761584  0.4245301631395505  1.0000
  H   H11       1.0  0.3371689000752696  0.7014286829955766  0.6919247809233153  1.0000
  H   H12       1.0  0.00920402194779519  0.6453949805482468  0.3090394459489829  1.0000
  H   H13       1.0  0.37511059385231954  0.9149301340500173  0.6938403983806932  1.0000
  H   H14       1.0  0.22065632543637295  0.6808114463247609  0.3071891721193579  1.0000
  H   H15       1.0  0.7200885367419616  0.7905389399951447  0.41257993541383087  1.0000
  H   H16       1.0  0.3767289501727831  0.3079760841904999  0.5872924548621936  1.0000
  H   H17       1.0  0.9234545006712906  0.9398173662501962  0.4850568343023695  1.0000
  H   H18       1.0  0.453768308350213  0.43888316902102537  0.5147948444037665  1.0000
  H   H19       1.0  0.8915204421815589  0.7250666963637402  0.4717199093532613  1.0000
  H   H20       1.0  0.2522298740155832  0.4201046469494615  0.5277809557074489  1.0000
  H   H21       1.0  0.9600898774556581  0.937066362710816  0.9225330419368871  1.0000
  H   H22       1.0  0.015326006937719695  0.037100466016525495  0.07729909118428677  1.0000
  H   H23       1.0  0.054848407392846424  0.8102963439845612  0.859881757762359  1.0000
  H   H24       1.0  0.9506571257219817  0.19427631940359902  0.13971978491309048  1.0000
  H   H25       1.0  0.11235831934434509  0.02494918840976371  0.86717617476161  1.0000
  H   H26       1.0  0.1579592080763703  0.24495569726851582  0.13253645080734336  1.0000
  H   H27       1.0  0.5855118172663011  0.4127160359396456  0.13562238942060384  1.0000
  H   H28       1.0  0.2770144646715593  0.450078845934293  0.8636429545451489  1.0000
  H   H29       1.0  0.7734423232794256  0.38807200394050057  0.21308393949124851  1.0000
  H   H30       1.0  0.17450960444674024  0.5608198193397842  0.7864788163213132  1.0000
  H   H31       1.0  0.41060840907528734  0.20857441746868943  0.18516944956976997  1.0000
  H   H32       1.0  0.0237349671370239  0.22554786146053377  0.8146569455104637  1.0000
  H   H33       1.0  0.5124980676618235  0.0916283111506004  0.3173729129901729  1.0000
  H   H34       1.0  0.7745656796898501  0.19502939668601732  0.6826290243041342  1.0000
  H   H35       1.0  0.8198310001013596  0.12319743591477561  0.39419313415740476  1.0000
  H   H36       1.0  0.7286729536558312  0.4255071249789922  0.6056697752996241  1.0000
  H   H37       1.0  0.7385760635480735  0.0025937712925240964  0.2668202615336667  1.0000
  H   H38       1.0  0.7355734036888107  0.47146918205339017  0.7330943686574328  1.0000
  H   H39       1.0  0.8712280265483512  0.21545512533168687  0.30093890616697644  1.0000
  H   H40       1.0  0.9139415828740027  0.5703882624185397  0.6988107107947952  1.0000
  H   H41       1.0  0.6873051429163296  0.3479254799739452  0.4528554072760328  1.0000
  H   H42       1.0  0.8951885720915271  0.23455895836507074  0.546992879503115  1.0000
  H   H43       1.0  0.7607114445805365  0.44836893064495353  0.36771786375471277  1.0000
  H   H44       1.0  0.08042295035058086  0.3933567808356456  0.632041149277441  1.0000
  H   H45       1.0  0.5440322495723251  0.40271634966818226  0.35993882415530715  1.0000
  H   H46       1.0  0.042961598886542204  0.18442496150072432  0.6399947830970945  1.0000
  C   C1        1.0  0.6573540180734695  0.005359382494930302  0.9020298405202778  1.0000
  C   C2        1.0  0.10393075532822846  0.7550327500590086  0.09816937422558415  1.0000
  C   C3        1.0  0.5436859344384714  0.7807951810935378  0.9584381702924174  1.0000
  C   C4        1.0  0.8231490446526378  0.5850778826593556  0.04169005025720195  1.0000
  C   C5        1.0  0.5763347810932089  0.7206347887375204  0.8734295274525576  1.0000
  C   C6        1.0  0.8479332681888109  0.7025815964583444  0.12675069415956128  1.0000
  C   C7        1.0  0.6937130452264526  0.8502627438108592  0.7513338407936059  1.0000
  C   C8        1.0  0.09924991200784919  0.9421396287908763  0.24880760716536793  1.0000
  C   C9        1.0  0.5650301277736673  0.8163199365670551  0.6585931754344043  1.0000
  C   C10       1.0  0.15761555925078596  0.9064779527601559  0.34174844197491433  1.0000
  C   C11       1.0  0.384482928502571  0.796181382749495  0.65479935596624  1.0000
  C   C12       1.0  0.14101522359536747  0.7297472216607589  0.34602142199824465  1.0000
  C   C13       1.0  0.6118208568978645  0.8074257812151373  0.5712505632829517  1.0000
  C   C14       1.0  0.23569794599333693  0.040845609553521504  0.42891934638996776  1.0000
  C   C15       1.0  0.7812217080004871  0.8332051047011434  0.575092744283644  1.0000
  C   C16       1.0  0.2576252865363884  0.20638000080179353  0.4247966334472792  1.0000
  C   C17       1.0  0.8302827149214735  0.8217001153537283  0.4808942460003961  1.0000
  C   C18       1.0  0.33984109647040833  0.3497968164858491  0.5188853049997418  1.0000
  C   C19       1.0  0.9055205910247537  0.8706502823020658  0.6693812150818274  1.0000
  C   C20       1.0  0.2011173770978729  0.23610102743476355  0.3303447026993779  1.0000
  C   C21       1.0  0.8653872700564803  0.8789496119636129  0.7588522367435713  1.0000
  C   C22       1.0  0.1203450351845703  0.10629550343299604  0.24100567070623663  1.0000
  C   C23       1.0  0.004170838617518821  0.914869483282807  0.8574878112401974  1.0000
  C   C24       1.0  0.057766675213343915  0.14625178790819865  0.142241373109897  1.0000
  C   C25       1.0  0.5837345073878453  0.06619927681784081  0.055890919319601606  1.0000
  C   C26       1.0  0.010864917940601551  0.5278283282262778  0.9441162848773458  1.0000
  C   C27       1.0  0.6460595477882904  0.32185207924052867  0.15789054481996345  1.0000
  C   C28       1.0  0.16390911359531657  0.4884244521682461  0.8416948224106091  1.0000
  C   C29       1.0  0.5338625929642972  0.1887692895100628  0.19260972183639063  1.0000
  C   C30       1.0  0.9963513011683531  0.3413867094366553  0.8072345490698465  1.0000
  C   C31       1.0  0.6117558054621525  0.18381886121278512  0.30197931034168585  1.0000
  C   C32       1.0  0.8818884154762825  0.30982274759465883  0.6979293579449574  1.0000
  C   C33       1.0  0.7685780772275307  0.1279419467246043  0.31605734052843093  1.0000
  C   C34       1.0  0.8116173235312018  0.4524471184252051  0.6837880295366074  1.0000
  C   C35       1.0  0.6521908334918294  0.35507080237217553  0.37433267758265026  1.0000
  C   C36       1.0  0.9807484416134995  0.2780875905974937  0.62551865727373  1.0000
  Br  Br1       1.0  0.44621214632059747  0.26254465639411967  0.7921962942995647  1.0000
  Br  Br2       1.0  0.4700855632683058  0.6532789805390494  0.20828376650039354  1.0000
  N   N1        1.0  0.5940346297996513  0.9548642006570845  0.9758013981867675  1.0000
  N   N2        1.0  0.9797640813166382  0.618104356658776  0.024334633433930684  1.0000
  N   N3        1.0  0.6456773800587214  0.8582575088441546  0.8410662260093743  1.0000
  N   N4        1.0  0.01782256722249541  0.8042123959960108  0.15919073617607177  1.0000
  N   N5        1.0  0.5027793510501298  0.0293417664873488  0.11750879748968399  1.0000
  N   N6        1.0  0.9123395142234328  0.3853118907618694  0.8825261968439049  1.0000
  O   O1        1.0  0.669712761974239  0.22774157405761747  0.06884659304451901  1.0000
  O   O2        1.0  0.15919706393160743  0.600908446673124  0.9309485038900289  1.0000
