data_image0
_chemical_formula_structural       Cu8H48C32N24
_chemical_formula_sum              "Cu8 H48 C32 N24"
_cell_length_a       5.602414195
_cell_length_b       13.704666421
_cell_length_c       13.47
_cell_angle_alpha    90.0
_cell_angle_beta     90.0
_cell_angle_gamma    90.0

_space_group_name_H-M_alt    "P 1"
_space_group_IT_number       1

loop_
  _space_group_symop_operation_xyz
  'x, y, z'

loop_
  _atom_site_type_symbol
  _atom_site_label
  _atom_site_symmetry_multiplicity
  _atom_site_fract_x
  _atom_site_fract_y
  _atom_site_fract_z
  _atom_site_occupancy
  Cu  Cu1       1.0  0.1904125548146851  0.6015593336418095  0.4793994060876017  1.0000
  Cu  Cu2       1.0  0.691244857164655  0.5213348344657263  0.09732813659984879  1.0000
  Cu  Cu3       1.0  0.6912519969437909  0.978666651779861  0.4026696362286586  1.0000
  Cu  Cu4       1.0  0.190419694593821  0.8984348558190975  0.020598366740905795  1.0000
  Cu  Cu5       1.0  0.8095902662905488  0.3984467649378587  0.5205924276169256  1.0000
  Cu  Cu6       1.0  0.3087579639405789  0.4786552111876433  0.9026651818856735  1.0000
  Cu  Cu7       1.0  0.3087579639405789  0.0213343390505258  0.5973437268002968  1.0000
  Cu  Cu8       1.0  0.8095634921187767  0.10155591951274093  0.9794053452115818  1.0000
  H   H1        1.0  0.7478293917895513  0.7762151717680226  0.32338530066815  1.0000
  H   H2        1.0  0.2350022604853095  0.679543719920801  0.2751544172234617  1.0000
  H   H3        1.0  0.2350183249883742  0.8204606850386613  0.22483073496659498  1.0000
  H   H4        1.0  0.7478240369551941  0.723793611262245  0.1765998515218996  1.0000
  H   H5        1.0  0.2521734293156825  0.2238026016671313  0.6766035634743872  1.0000
  H   H6        1.0  0.7650112702886319  0.32045873026653043  0.7248418708240507  1.0000
  H   H7        1.0  0.7649952057855671  0.1795322793285834  0.7751640682999223  1.0000
  H   H8        1.0  0.2521555798678321  0.2761986234265308  0.823405345211583  1.0000
  H   H9        1.0  0.596585665333869  0.6625852626435107  0.3440415738678553  1.0000
  H   H10       1.0  0.0990108872162736  0.6520428681362915  0.1578864142538947  1.0000
  H   H11       1.0  0.0989983926027804  0.8479411058260597  0.34211135857461267  1.0000
  H   H12       1.0  0.5966392136774203  0.8374081971389274  0.1559398663697138  1.0000
  H   H13       1.0  0.4034046611578646  0.3374244843284942  0.6559561989606522  1.0000
  H   H14       1.0  0.9010097833368036  0.34795958205103267  0.8421121009651101  1.0000
  H   H15       1.0  0.900993718833746  0.1520555069335217  0.6578901262063823  1.0000
  H   H16       1.0  0.40334575797997013  0.1625803891575046  0.8440668151447639  1.0000
  H   H17       1.0  0.8325928497330608  0.6988488231515222  0.4228463251670362  1.0000
  H   H18       1.0  0.3390359823261875  0.5808612742154651  0.20209651076466165  1.0000
  H   H19       1.0  0.3390341973814017  0.9191438604224589  0.2979027468448406  1.0000
  H   H20       1.0  0.8325982045674181  0.8011417179170479  0.07715144766147118  1.0000
  H   H21       1.0  0.1674331756543737  0.30115654574967726  0.5771499628804762  1.0000
  H   H22       1.0  0.6609846882268968  0.4191411759718591  0.7978968077208606  1.0000
  H   H23       1.0  0.6609739785581823  0.08086369751414683  0.7021002227171493  1.0000
  H   H24       1.0  0.1673885520347511  0.1988446793439849  0.9228567186340015  1.0000
  H   H25       1.0  0.9907264630583086  0.8591307251344917  0.6602256867112074  1.0000
  H   H26       1.0  0.47698187013465093  0.35121394801879563  0.3627223459539692  1.0000
  H   H27       1.0  0.4769069024536847  0.1487529821868705  0.1372620638455828  1.0000
  H   H28       1.0  0.9906925491073936  0.6408838953235261  0.8397661469933198  1.0000
  H   H29       1.0  0.0092138849794523  0.1409038309054367  0.3397253155159632  1.0000
  H   H30       1.0  0.5229674026270388  0.6488038254163657  0.6372717149220506  1.0000
  H   H31       1.0  0.523020950970583  0.851208606006246  0.8627423904974023  1.0000
  H   H32       1.0  0.0093245515561193  0.3591316890762286  0.1602138084632543  1.0000
  H   H33       1.0  0.0336551339185647  0.7293136288734774  0.658829992576095  1.0000
  H   H34       1.0  0.5477138771243588  0.3367648549933264  0.2338492947290263  1.0000
  H   H35       1.0  0.5477352964617808  0.1632480449558287  0.2661217520415704  1.0000
  H   H36       1.0  0.0336212199676567  0.7706827496228357  0.841185597624353  1.0000
  H   H37       1.0  0.9664458591498359  0.27071071166789556  0.3412256867112119  1.0000
  H   H38       1.0  0.4523121482630756  0.6632361358370602  0.766159613956944  1.0000
  H   H39       1.0  0.4522942988152252  0.8367711878362698  0.7338693392724592  1.0000
  H   H40       1.0  0.9663405474075262  0.2293291863845823  0.1588366740905727  1.0000
  H   H41       1.0  0.8432489700986849  0.7860089161669634  0.5709287305122501  1.0000
  H   H42       1.0  0.3512253702620072  0.4302972300707567  0.2724996288047521  1.0000
  H   H43       1.0  0.3512200154276499  0.0696974279166938  0.2275382331106144  1.0000
  H   H44       1.0  0.8432793141600285  0.7139860029724121  0.9290616184112821  1.0000
  H   H45       1.0  0.1567449262826273  0.21392713327976765  0.4290623608017795  1.0000
  H   H46       1.0  0.6488060099597845  0.569701571724231  0.727464736451374  1.0000
  H   H47       1.0  0.6487792357880124  0.9302969958074814  0.772513734224205  1.0000
  H   H48       1.0  0.1566913779390759  0.2859785039345724  0.0709383815887179  1.0000
  C   C1        1.0  0.5056338038212473  0.7772761242606521  0.4438567186340023  1.0000
  C   C2        1.0  0.0059295865753128  0.5568066938358385  0.2764439495174429  1.0000
  C   C3        1.0  0.0059331564648772  0.9431889549820058  0.2235508537490745  1.0000
  C   C4        1.0  0.5056266640421043  0.7227209839141226  0.05613363028952989  1.0000
  C   C5        1.0  0.4943708022287723  0.22271611042812375  0.5561455085374902  1.0000
  C   C6        1.0  0.9940785893642783  0.443206701528517  0.7235619896065301  1.0000
  C   C7        1.0  0.9940660947507851  0.05680692809910681  0.7764476614699305  1.0000
  C   C8        1.0  0.49433867322264285  0.27727562884545887  0.9438693392724602  1.0000
  C   C9        1.0  0.21808990864875  0.8074942986603874  0.5454328136599855  1.0000
  C   C10       1.0  0.7200574358818912  0.4562300028272972  0.30641202672605766  1.0000
  C   C11       1.0  0.720018167096626  0.04376027708934772  0.19358203414996208  1.0000
  C   C12       1.0  0.21809883337267172  0.6925115656560052  0.9545649591685219  1.0000
  C   C13       1.0  0.7819146974012696  0.19252201541782915  0.45456792873051194  1.0000
  C   C14       1.0  0.2799436002785569  0.5437863112509262  0.6935694135115043  1.0000
  C   C15       1.0  0.2799632346711931  0.9562370653487093  0.8064149962880478  1.0000
  C   C16       1.0  0.7818914931190691  0.3074806690327706  0.0454394951744632  1.0000
  C   C17       1.0  0.6789287381491107  0.7260636409765271  0.3797668893838164  1.0000
  C   C18       1.0  0.1779250810997937  0.6209914009259805  0.22522123236822716  1.0000
  C   C19       1.0  0.1779357907685011  0.8790035182133951  0.2747817371937629  1.0000
  C   C20       1.0  0.6789251682595392  0.7739276297705047  0.12020861172977249  1.0000
  C   C21       1.0  0.3210990721831095  0.2739424576031412  0.6202249443207108  1.0000
  C   C22       1.0  0.8220830948397975  0.3790110492613509  0.7747772828507777  1.0000
  C   C23       1.0  0.822079524950226  0.12099601326006143  0.7252204899777297  1.0000
  C   C24       1.0  0.3210580184530585  0.22605803781205225  0.8797951002227151  1.0000
  C   C25       1.0  0.0101688304393548  0.7947358706455319  0.6127134372680061  1.0000
  C   C26       1.0  0.5128039270220341  0.3898971223270493  0.2931937639198239  1.0000
  C   C27       1.0  0.5127717980159119  0.1100953466250019  0.2068040089086836  1.0000
  C   C28       1.0  0.0102009594454842  0.7052626968861875  0.8872984409799543  1.0000
  C   C29       1.0  0.9898036466045355  0.20526512018486193  0.3872999257609493  1.0000
  C   C30       1.0  0.48721138869669295  0.6101126246449624  0.7068047512991811  1.0000
  C   C31       1.0  0.48721138869669295  0.8898976177422429  0.7932130660727521  1.0000
  C   C32       1.0  0.9897911519910423  0.294733915873401  0.1127045285820358  1.0000
  N   N1        1.0  0.3182270960242732  0.7339383310043459  0.49078396436525645  1.0000
  N   N2        1.0  0.820142859858649  0.5102254797887866  0.2319101707498135  1.0000
  N   N3        1.0  0.8201392899690773  0.9897708987075264  0.2680861172976989  1.0000
  N   N4        1.0  0.3182395906377664  0.7660726410613281  0.0092078693392708  1.0000
  N   N5        1.0  0.68175252079876  0.2660830908231588  0.509218262806236  1.0000
  N   N6        1.0  0.1798813805839998  0.489784996861694  0.7680757238307336  1.0000
  N   N7        1.0  0.1798474666330847  0.010232281158273801  0.7319175946547887  1.0000
  N   N8        1.0  0.6817471659644028  0.233913026521229  0.9907951002227193  1.0000
  N   N9        1.0  0.5198026955234809  0.87249259724247  0.466358574610247  1.0000
  N   N10       1.0  0.0193023929034908  0.5347565402080933  0.373243504083149  1.0000
  N   N11       1.0  0.0192970380691406  0.9652420273236191  0.126756495916851  1.0000
  N   N12       1.0  0.5197937707995521  0.6275074296461796  0.0336325167037828  1.0000
  N   N13       1.0  0.4802322545878823  0.1275069342309791  0.5336369710467679  1.0000
  N   N14       1.0  0.9806790088643211  0.46524007255148814  0.6267572383073484  1.0000
  N   N15       1.0  0.9806897185330286  0.034750207365149804  0.8732472160356366  1.0000
  N   N16       1.0  0.4802108352504603  0.3724789676148533  0.9663689680772051  1.0000
  N   N17       1.0  0.3349627383271354  0.8918020785440037  0.531829250185595  1.0000
  N   N18       1.0  0.8358682234132786  0.4696509788912024  0.3923860430586501  1.0000
  N   N19       1.0  0.8358468040758638  0.030343679096255  0.1076154417223449  1.0000
  N   N20       1.0  0.3349502437136422  0.6082030560939276  0.9681648106904248  1.0000
  N   N21       1.0  0.6650829214529352  0.1082156948911575  0.4681685226429124  1.0000
  N   N22       1.0  0.1641149632993191  0.5303514712961288  0.6076050482553796  1.0000
  N   N23       1.0  0.1641488772502271  0.969653663341802  0.89238307349666  1.0000
  N   N24       1.0  0.6650561472811631  0.39178698955944213  0.0318337045285801  1.0000
