data_image0
_chemical_formula_structural       U4H24C32N4O22
_chemical_formula_sum              "U4 H24 C32 N4 O22"
_cell_length_a       8.576283266050702
_cell_length_b       9.88791069676509
_cell_length_c       11.824846390294226
_cell_angle_alpha    78.40628054527826
_cell_angle_beta     80.70456722783064
_cell_angle_gamma    83.5126439699093

_space_group_name_H-M_alt    "P 1"
_space_group_IT_number       1

loop_
  _space_group_symop_operation_xyz
  'x, y, z'

loop_
  _atom_site_type_symbol
  _atom_site_label
  _atom_site_symmetry_multiplicity
  _atom_site_fract_x
  _atom_site_fract_y
  _atom_site_fract_z
  _atom_site_occupancy
  U   U1        1.0  0.18627226073941466  0.5825241727816818  0.0358078528103292  1.0000
  U   U2        1.0  0.8137277843138122  0.4174765592541761  0.9641925669781487  1.0000
  U   U3        1.0  0.7053874771921828  0.6942650881393678  0.5140806048906369  1.0000
  U   U4        1.0  0.2946111925880217  0.3057377359151161  0.48591794755030554  1.0000
  H   H1        1.0  0.7829500404754981  0.3801198708368931  0.2329165765723005  1.0000
  H   H2        1.0  0.2170475455876897  0.6198818833324042  0.7670856575430492  1.0000
  H   H3        1.0  0.8670832200480518  0.447143687172215  0.3347955736803243  1.0000
  H   H4        1.0  0.1329178139845411  0.5528591146884525  0.6652043974221942  1.0000
  H   H5        1.0  0.6072802487705999  0.7474750928479853  0.21502029487190547  1.0000
  H   H6        1.0  0.3927207844460908  0.2525277270221198  0.7849779820098063  1.0000
  H   H7        1.0  0.7077550573102941  0.773755926578602  0.06999249122473832  1.0000
  H   H8        1.0  0.2922449865190799  0.22624483247140156  0.9300053872325337  1.0000
  H   H9        1.0  0.4516736401994876  0.7670489923308426  0.7529167491402761  1.0000
  H   H10       1.0  0.5483276821255245  0.23295071966376218  0.2470819941009594  1.0000
  H   H11       1.0  0.39575119133910863  0.9259910087211344  0.894032144583001  1.0000
  H   H12       1.0  0.604249046045048  0.07400766040244383  0.10596773900142863  1.0000
  H   H13       1.0  0.614683040598095  0.07396946873919322  0.909421930965273  1.0000
  H   H14       1.0  0.3853158227368851  0.9260312653888509  0.09057862660282719  1.0000
  H   H15       1.0  0.876116551218942  0.041068250394040724  0.7917935274631347  1.0000
  H   H16       1.0  0.12388250444696777  0.9589304208217234  0.20820649390091017  1.0000
  H   H17       1.0  0.09749990891211265  0.9576473752064847  0.7284631684095046  1.0000
  H   H18       1.0  0.9025016065597316  0.042350255866402606  0.2715367328484817  1.0000
  H   H19       1.0  0.3465278922311086  0.9192719027464665  0.5936416260198174  1.0000
  H   H20       1.0  0.653472537483978  0.08072470346483131  0.406357721360557  1.0000
  H   H21       1.0  0.33911936489266026  0.7962093486524184  0.4290999962576621  1.0000
  H   H22       1.0  0.6608811615998178  0.20378621259565938  0.5709003536862838  1.0000
  H   H23       1.0  0.08291653932835169  0.7190204576512049  0.4048084091641257  1.0000
  H   H24       1.0  0.9170826131149425  0.28097716860133926  0.5951926147634978  1.0000
  C   C1        1.0  0.9139482723942507  0.687293128926193  0.23365489356415736  1.0000
  C   C2        1.0  0.08605167547364091  0.31270865707759316  0.7663436765503492  1.0000
  C   C3        1.0  0.8147786458731686  0.6004183699405774  0.18145747418478217  1.0000
  C   C4        1.0  0.18522139918005814  0.39958236209528064  0.8185429456037029  1.0000
  C   C5        1.0  0.775805641129331  0.46870210490379116  0.27637169361592123  1.0000
  C   C6        1.0  0.22419421159296601  0.531300690044347  0.7236292623766188  1.0000
  C   C7        1.0  0.616999379448117  0.4794200257688602  0.3517595585741518  1.0000
  C   C8        1.0  0.38299801224439983  0.5205838363363072  0.6482389761932411  1.0000
  C   C9        1.0  0.6668536079358206  0.6940280502824125  0.14510836916637257  1.0000
  C   C10       1.0  0.33314634034001495  0.3059737267166654  0.8548910480585337  1.0000
  C   C11       1.0  0.5476597846663794  0.6165294591470674  0.10668346209418188  1.0000
  C   C12       1.0  0.4523414416971434  0.38347127980132023  0.8933159728042811  1.0000
  C   C13       1.0  0.5424740672137602  0.8304089479650331  0.7628517718076182  1.0000
  C   C14       1.0  0.45752607502480214  0.16959073010288966  0.23715049765483798  1.0000
  C   C15       1.0  0.5129198837152343  0.9192992774080228  0.8428156534840099  1.0000
  C   C16       1.0  0.48708153701896617  0.08069935360449423  0.15718748076240985  1.0000
  C   C17       1.0  0.6338161311198434  0.9973975340700181  0.8528430184965571  1.0000
  C   C18       1.0  0.3661839143413346  0.0026031889611247004  0.1471582484023273  1.0000
  C   C19       1.0  0.7811189955272084  0.9795862444152452  0.7858704421479176  1.0000
  C   C20       1.0  0.2188811454875079  0.020413460666830505  0.2141292859833399  1.0000
  C   C21       1.0  0.8026975481504977  0.8874716953847968  0.7076933520042558  1.0000
  C   C22       1.0  0.19730268923365915  0.11252697373878118  0.2923065315801736  1.0000
  C   C23       1.0  0.9554376490018015  0.8644915959249605  0.6340998405256287  1.0000
  C   C24       1.0  0.044563770100602106  0.13550707110642432  0.36589990527918564  1.0000
  C   C25       1.0  0.09666814645972006  0.90727632442912  0.6548560844842369  1.0000
  C   C26       1.0  0.9033332726426834  0.09272234260226504  0.34514366132057017  1.0000
  C   C27       1.0  0.23634307473012234  0.8839244174787526  0.5809322108448286  1.0000
  C   C28       1.0  0.7636572586155239  0.11607322469103562  0.41906698108236645  1.0000
  C   C29       1.0  0.23264609090281843  0.8165629158880211  0.4888261613231322  1.0000
  C   C30       1.0  0.7673542424428278  0.18343472628177449  0.5111730306040699  1.0000
  C   C31       1.0  0.08961907119729061  0.7739672955293387  0.4744904987350864  1.0000
  C   C32       1.0  0.9103811657789149  0.22603138259895428  0.5255085377389364  1.0000
  N   N1        1.0  0.6824161775089905  0.816682222760811  0.6944423444260084  1.0000
  N   N2        1.0  0.317582781787479  0.18331748441345758  0.3055575214848645  1.0000
  N   N3        1.0  0.9532711862424391  0.7982147823209831  0.5444785481087067  1.0000
  N   N4        1.0  0.046729147919101904  0.20178284183937487  0.4555223380393017  1.0000
  O   O1        1.0  0.21225383605047204  0.428869262673878  0.14530203978643647  1.0000
  O   O2        1.0  0.7877462085948039  0.5711314783666952  0.8546975328916417  1.0000
  O   O3        1.0  0.1697993575679959  0.7404854097310437  0.9270761230521387  1.0000
  O   O4        1.0  0.8302007838546713  0.25951428634631685  0.07292445218951832  1.0000
  O   O5        1.0  0.8173926709649422  0.5338432556300108  0.564416736581002  1.0000
  O   O6        1.0  0.18260491305850485  0.4661585435628697  0.43558126198233543  1.0000
  O   O7        1.0  0.5941554504333837  0.854369112415775  0.46054399208874497  1.0000
  O   O8        1.0  0.40584085713418017  0.14563368880892114  0.5394573772426483  1.0000
  O   O9        1.0  0.051669656846975366  0.7110373029414989  0.18138601740175628  1.0000
  O   O10       1.0  0.9483305805371813  0.28896136618207896  0.8186138661826661  1.0000
  O   O11       1.0  0.8543691046122531  0.7302428336244875  0.32711248919953567  1.0000
  O   O12       1.0  0.14563084366358234  0.2697589433745834  0.6728869280253704  1.0000
  O   O13       1.0  0.5801373675328988  0.583028777253951  0.4029305861109764  1.0000
  O   O14       1.0  0.4198600241596182  0.41697508485121676  0.5970679486564165  1.0000
  O   O15       1.0  0.5243105382096117  0.38499428395914514  0.36140902652135054  1.0000
  O   O16       1.0  0.4756868559305972  0.6150095241177173  0.638594590908454  1.0000
  O   O17       1.0  0.40872064739129843  0.6726932482260964  0.09824335677915035  1.0000
  O   O18       1.0  0.5912794940313618  0.3273064478512637  0.9017572184625068  1.0000
  O   O19       1.0  0.5955391944608621  0.49603131977049497  0.08486468098993077  1.0000
  O   O20       1.0  0.4044609469618051  0.5039683763068654  0.9151358942517263  1.0000
  O   O21       1.0  0.9073519676074256  0.5586949915532886  0.08245272877840648  1.0000
  O   O22       1.0  0.09264699209699502  0.44130470661625776  0.9175479842428658  1.0000
