data_image0
_chemical_formula_structural       Cu2H20C16S2N6
_chemical_formula_sum              "Cu2 H20 C16 S2 N6"
_cell_length_a       5.710516983579705
_cell_length_b       9.04109053918687
_cell_length_c       9.643688106778882
_cell_angle_alpha    71.98316725702499
_cell_angle_beta     79.83477624023881
_cell_angle_gamma    89.340588161869

_space_group_name_H-M_alt    "P 1"
_space_group_IT_number       1

loop_
  _space_group_symop_operation_xyz
  'x, y, z'

loop_
  _atom_site_type_symbol
  _atom_site_label
  _atom_site_symmetry_multiplicity
  _atom_site_fract_x
  _atom_site_fract_y
  _atom_site_fract_z
  _atom_site_occupancy
  Cu  Cu1       1.0  0.3897817235814927  0.8492071482584578  0.54508569396981  1.0000
  Cu  Cu2       1.0  0.6102077055707653  0.15078789774012344  0.45491012864381014  1.0000
  H   H1        1.0  0.7215775483927586  0.8645429521117619  0.7370714291640964  1.0000
  H   H2        1.0  0.2784050112805972  0.1354555795573305  0.26292388252880267  1.0000
  H   H3        1.0  0.943688209138905  0.6732942709212109  0.9147657418627517  1.0000
  H   H4        1.0  0.056312901327260106  0.32671353590570373  0.08522304824462877  1.0000
  H   H5        1.0  0.4096096221227797  0.22058147118055865  0.9018972205411089  1.0000
  H   H6        1.0  0.5904027381120046  0.7794136751587502  0.098099762810044  1.0000
  H   H7        1.0  0.6195440338259602  0.2378689545035115  0.742474364084714  1.0000
  H   H8        1.0  0.3804788086495348  0.7621298791034619  0.2575278565471706  1.0000
  H   H9        1.0  0.7323373671194915  0.0341409495472575  0.9546338620752052  1.0000
  H   H10       1.0  0.26767445885352714  0.9658592240818891  0.045376129103836156  1.0000
  H   H11       1.0  0.7402818788496078  0.16801437540130587  0.055097980718578306  1.0000
  H   H12       1.0  0.2597233817417647  0.8319927494544219  0.9449093558811583  1.0000
  H   H13       1.0  0.951576486696318  0.18872986613241946  0.8910055027913156  1.0000
  H   H14       1.0  0.048433703427612315  0.81127144340617  0.10900323350610831  1.0000
  H   H15       1.0  0.2499056625365057  0.5717085207251031  0.5778885184254392  1.0000
  H   H16       1.0  0.7500977876855259  0.42828542707733425  0.4221085473181958  1.0000
  H   H17       1.0  0.15401100759464015  0.4267449076704608  0.7515406216438761  1.0000
  H   H18       1.0  0.8459872702839776  0.5732513633790218  0.24845615331896204  1.0000
  H   H19       1.0  0.3752891731111916  0.3834557400287366  0.6190177059256641  1.0000
  H   H20       1.0  0.6247123151792026  0.6165382857158833  0.38098261354209473  1.0000
  C   C1        1.0  0.05870918393521411  0.11430704853410842  0.5912496910132176  1.0000
  C   C2        1.0  0.9412522400438733  0.8856961730577382  0.4087480055957258  1.0000
  C   C3        1.0  0.6274309963659874  0.4295081326146359  0.8246769486169397  1.0000
  C   C4        1.0  0.3725800101316707  0.5704940227789947  0.17531900114117602  1.0000
  C   C5        1.0  0.49394024145227183  0.5347044532285637  0.7297265919333852  1.0000
  C   C6        1.0  0.5060586422861135  0.46530234705925017  0.2702689257621742  1.0000
  C   C7        1.0  0.6912609489648389  0.7390885840002069  0.7650422678440449  1.0000
  C   C8        1.0  0.3087280803778967  0.26092265066947823  0.23494439035635384  1.0000
  C   C9        1.0  0.8143072290068006  0.6343031619362945  0.8610168825963527  1.0000
  C   C10       1.0  0.1856995275450473  0.3656980913744548  0.13899008321575929  1.0000
  C   C11       1.0  0.5970809347484975  0.2574513638457177  0.8511686177306997  1.0000
  C   C12       1.0  0.4029298878899681  0.7425508710899961  0.14883043625250286  1.0000
  C   C13       1.0  0.7644823904412519  0.1570989669123364  0.9434227254477888  1.0000
  C   C14       1.0  0.23552438576115264  0.8429034769357955  0.056584905467062255  1.0000
  C   C15       1.0  0.3099135632008655  0.47674222990164594  0.6644346897654003  1.0000
  C   C16       1.0  0.6900915008849678  0.5232529895801646  0.3355659958070092  1.0000
  S   S1        1.0  0.2987656677604065  0.054596977746769  0.6594903397161147  1.0000
  S   S2        1.0  0.7012179565338955  0.9453994661017264  0.34051487443092293  1.0000
  N   N1        1.0  0.8853834243407733  0.15588432226223867  0.5414221932205405  1.0000
  N   N2        1.0  0.1146119942955224  0.844110016851019  0.4585909916446979  1.0000
  N   N3        1.0  0.7842188812668525  0.4797540635882456  0.8901399839050866  1.0000
  N   N4        1.0  0.21577636772443756  0.5202479713502157  0.10985317237762618  1.0000
  N   N5        1.0  0.5304096050931478  0.689889083613771  0.6992832222334826  1.0000
  N   N6        1.0  0.46958531781559293  0.3101118933574298  0.3007144426549715  1.0000
