data_image0
_chemical_formula_structural       Cu6H20C32O24
_chemical_formula_sum              "Cu6 H20 C32 O24"
_cell_length_a       5.035543346383538
_cell_length_b       10.422726936893119
_cell_length_c       15.36881950563707
_cell_angle_alpha    90.00587415431934
_cell_angle_beta     90.62042731126748
_cell_angle_gamma    89.99881410954208

_space_group_name_H-M_alt    "P 1"
_space_group_IT_number       1

loop_
  _space_group_symop_operation_xyz
  'x, y, z'

loop_
  _atom_site_type_symbol
  _atom_site_label
  _atom_site_symmetry_multiplicity
  _atom_site_fract_x
  _atom_site_fract_y
  _atom_site_fract_z
  _atom_site_occupancy
  Cu  Cu1       1.0  0.499452128584103  0.5001519449364693  0.4998732732402402  1.0000
  Cu  Cu2       1.0  0.49944925421613845  0.9998481039763902  0.9998726585555815  1.0000
  Cu  Cu3       1.0  0.4005192852490254  0.8660537983448644  0.4873134382676554  1.0000
  Cu  Cu4       1.0  0.5996891823609758  0.36609570751264897  0.012705409492568301  1.0000
  Cu  Cu5       1.0  0.5997025877829502  0.13390758509149234  0.5126984521582756  1.0000
  Cu  Cu6       1.0  0.4005520468047976  0.6339510673194511  0.9873209407014514  1.0000
  H   H1        1.0  0.2730220105365575  0.35922340957009163  0.6136175599589676  1.0000
  H   H2        1.0  0.7266543410424332  0.8590000985041895  0.8862532218625744  1.0000
  H   H3        1.0  0.7266544869657708  0.6409807043684381  0.38625565696646197  1.0000
  H   H4        1.0  0.2730240813601412  0.1407866583954132  0.11362194792481968  1.0000
  H   H5        1.0  0.1062694841408316  0.491512763505753  0.5972192782091952  1.0000
  H   H6        1.0  0.8931695481523789  0.9912442149261053  0.9027805541018026  1.0000
  H   H7        1.0  0.8932017480469411  0.5087431722989635  0.4027864872913014  1.0000
  H   H8        1.0  0.1063056877139275  0.0084917033420453  0.0972245733237642  1.0000
  H   H9        1.0  0.3770198786001018  0.033244896576043494  0.7320967385223724  1.0000
  H   H10       1.0  0.623073455998295  0.5332125283478247  0.7679156929436389  1.0000
  H   H11       1.0  0.6230412295795206  0.9667491084794974  0.2679113756737337  1.0000
  H   H12       1.0  0.37698274644938584  0.466793951660037  0.23211906495826895  1.0000
  H   H13       1.0  0.40039854240519196  0.8024826816862782  0.7751674369950337  1.0000
  H   H14       1.0  0.5996094283096909  0.30243555771930625  0.7248732848040476  1.0000
  H   H15       1.0  0.5996117572920454  0.1975247585275213  0.2248734927146856  1.0000
  H   H16       1.0  0.40038646932352867  0.6975680459717565  0.27518185521107336  1.0000
  H   H17       1.0  0.10185643652055629  0.6463511797850855  0.7006751835247799  1.0000
  H   H18       1.0  0.8981903871855864  0.1463483836468882  0.7993675610680812  1.0000
  H   H19       1.0  0.8981993563663477  0.3536332340219559  0.2993712834756082  1.0000
  H   H20       1.0  0.10188327781075657  0.8536763266262141  0.2006790377799135  1.0000
  C   C1        1.0  0.8924973580056772  0.7880693482953163  0.6259567568735562  1.0000
  C   C2        1.0  0.1076277119109506  0.2880982538234846  0.874043557852694  1.0000
  C   C3        1.0  0.1076414050826742  0.21186517049681436  0.3740460663136389  1.0000
  C   C4        1.0  0.8925409508190684  0.7119648297545993  0.1259562343118006  1.0000
  C   C5        1.0  0.8660586774360582  0.9211462650483496  0.6058086127179649  1.0000
  C   C6        1.0  0.134150695858466  0.42121174802240086  0.8941546208543016  1.0000
  C   C7        1.0  0.13415472476388857  0.0787633051635979  0.3941615686766794  1.0000
  C   C8        1.0  0.866092354748048  0.5788666841188999  0.1058196867889762  1.0000
  C   C9        1.0  0.0509886526394681  0.009371431658479402  0.6432907230330187  1.0000
  C   C10       1.0  0.9491318852355805  0.509407490352487  0.8567047670086224  1.0000
  C   C11       1.0  0.9491286299360979  0.9905832346677527  0.35670153250350717  1.0000
  C   C12       1.0  0.050998750266515507  0.4906354458317281  0.1433032059546733  1.0000
  C   C13       1.0  0.2385903389638315  0.9639451227499195  0.7041660165177674  1.0000
  C   C14       1.0  0.7615084906118099  0.46394425446538884  0.7958505479628926  1.0000
  C   C15       1.0  0.7614683280670818  0.0360364106397171  0.2958550936637465  1.0000
  C   C16       1.0  0.23857765890464583  0.5360842921803126  0.2041798744389993  1.0000
  C   C17       1.0  0.25418389852929124  0.8353855919176211  0.727645454161653  1.0000
  C   C18       1.0  0.7458592266392401  0.33537625933786336  0.772381360054105  1.0000
  C   C19       1.0  0.7458326780639907  0.16459690203161162  0.2723864106535743  1.0000
  C   C20       1.0  0.2541669597382636  0.6646465318648538  0.22765968620227986  1.0000
  C   C21       1.0  0.08567473754576578  0.7484846211327109  0.6866317689357118  1.0000
  C   C22       1.0  0.9143793943809726  0.2484839399070893  0.8133895738566749  1.0000
  C   C23       1.0  0.9143715589075967  0.2514892378501513  0.3134022648474257  1.0000
  C   C24       1.0  0.08570486028201431  0.7515494037441641  0.1866382320126547  1.0000
  C   C25       1.0  0.7348840450572354  0.6874874161578077  0.5822664711194179  1.0000
  C   C26       1.0  0.26511775118229514  0.18760325355712126  0.9177753229677279  1.0000
  C   C27       1.0  0.26515017856758755  0.3123837829847247  0.41777202616510317  1.0000
  C   C28       1.0  0.7349363947547474  0.8125346701494108  0.08226137624236432  1.0000
  C   C29       1.0  0.0732262105730399  0.14742903555755757  0.6175209005208443  1.0000
  C   C30       1.0  0.926936689403277  0.6474206342099791  0.882496081579248  1.0000
  C   C31       1.0  0.9269001809400167  0.8525544158948224  0.382494848069001  1.0000
  C   C32       1.0  0.07318726004785958  0.3526021554344467  0.1175326646444077  1.0000
  O   O1        1.0  0.8074632274143738  0.569993056281035  0.5853586802068236  1.0000
  O   O2        1.0  0.19273449362046338  0.07006794585365839  0.9146445015906506  1.0000
  O   O3        1.0  0.19277674696507321  0.42992419220793465  0.4146468339356915  1.0000
  O   O4        1.0  0.807541542221074  0.9300210417924073  0.0853521715243915  1.0000
  O   O5        1.0  0.5173647077901647  0.7102584349170941  0.5392805902710194  1.0000
  O   O6        1.0  0.48239678429666094  0.2103165061704146  0.9609086126919876  1.0000
  O   O7        1.0  0.4824060911685066  0.2896521149730019  0.4609062980924747  1.0000
  O   O8        1.0  0.5174138427347615  0.7897744183135273  0.0392753188336172  1.0000
  O   O9        1.0  0.6792418477130227  0.9611293800812605  0.5496774155415096  1.0000
  O   O10       1.0  0.3211828443955014  0.4612096151161608  0.9502255256099303  1.0000
  O   O11       1.0  0.3211605037593372  0.03877442720027349  0.4502290749068222  1.0000
  O   O12       1.0  0.6792611159759473  0.5388784049969074  0.049683877530178194  1.0000
  O   O13       1.0  0.8946935332297841  0.20614232096423277  0.5716133476062453  1.0000
  O   O14       1.0  0.1055207739003023  0.7061593327550355  0.9283550544635872  1.0000
  O   O15       1.0  0.10550605790579938  0.7938286533803592  0.4283541320131832  1.0000
  O   O16       1.0  0.8946519069629632  0.29385577860556106  0.0716434641002337  1.0000
  O   O17       1.0  0.2806944010609271  0.2081864222615266  0.6407813022051984  1.0000
  O   O18       1.0  0.7193593986742357  0.7081353017769132  0.8592875666310035  1.0000
  O   O19       1.0  0.7192946959699712  0.7918354128292148  0.359297865013687  1.0000
  O   O20       1.0  0.2806474808881561  0.2918404802301851  0.14079433186608267  1.0000
  O   O21       1.0  0.28901548450187414  0.45548703727762074  0.6024183562718193  1.0000
  O   O22       1.0  0.7104925729244868  0.9553079525114615  0.8974026881065027  1.0000
  O   O23       1.0  0.7105212923703945  0.544679656151615  0.3974173989554401  1.0000
  O   O24       1.0  0.2890463324023642  0.04452197651077228  0.102429167646612  1.0000
