data_image0
_chemical_formula_structural       Cu4H32C48N12O32
_chemical_formula_sum              "Cu4 H32 C48 N12 O32"
_cell_length_a       8.141824715
_cell_length_b       11.1058483852717
_cell_length_c       14.252910658935116
_cell_angle_alpha    94.61893965445985
_cell_angle_beta     89.99829203398443
_cell_angle_gamma    90.00028501763441

_space_group_name_H-M_alt    "P 1"
_space_group_IT_number       1

loop_
  _space_group_symop_operation_xyz
  'x, y, z'

loop_
  _atom_site_type_symbol
  _atom_site_label
  _atom_site_symmetry_multiplicity
  _atom_site_fract_x
  _atom_site_fract_y
  _atom_site_fract_z
  _atom_site_occupancy
  Cu  Cu1       1.0  0.9186881187211071  0.19418421818470935  0.1485087836432655  1.0000
  Cu  Cu2       1.0  0.4186478673545153  0.305910881300548  0.3515090204095586  1.0000
  Cu  Cu3       1.0  0.0813764459813697  0.8058445744812772  0.851453794213441  1.0000
  Cu  Cu4       1.0  0.5813331735194894  0.6942484549176413  0.6485561361550509  1.0000
  H   H1        1.0  0.0174984943944594  0.1346106311038753  0.7008255689900409  1.0000
  H   H2        1.0  0.5175241185059747  0.36539722430197225  0.7991265045437572  1.0000
  H   H3        1.0  0.9824678128060216  0.8654570454509453  0.29913113982487255  1.0000
  H   H4        1.0  0.4824630684725761  0.6345539492935117  0.20081624844032578  1.0000
  H   H5        1.0  0.8270737245018296  0.1273967324684548  0.41835199084270863  1.0000
  H   H6        1.0  0.3270969319952357  0.3726061720076571  0.08167099210278649  1.0000
  H   H7        1.0  0.1728667835834585  0.8725836735122954  0.5817154622184332  1.0000
  H   H8        1.0  0.6729013079288251  0.6274135375465876  0.9183015142401343  1.0000
  H   H9        1.0  0.1875512935527084  0.04124960895558161  0.2177626737731444  1.0000
  H   H10       1.0  0.6875762648151635  0.45879491590899585  0.2822490066880974  1.0000
  H   H11       1.0  0.8124223826113095  0.9587015348984734  0.7821863918021776  1.0000
  H   H12       1.0  0.3124588179348819  0.5413346129228955  0.7178134932301532  1.0000
  H   H13       1.0  0.4527565570374676  0.9658362149614419  0.16200713986361848  1.0000
  H   H14       1.0  0.9527699463093384  0.5341446188041346  0.33801264145110815  1.0000
  H   H15       1.0  0.5472195759535339  0.0341285089480863  0.837936501869251  1.0000
  H   H16       1.0  0.047235656176575005  0.4658582223261831  0.662087855814228  1.0000
  H   H17       1.0  0.3276043595148436  0.08900939983214329  0.8888432184870182  1.0000
  H   H18       1.0  0.8276305720247025  0.4110073139724122  0.6111466216943953  1.0000
  H   H19       1.0  0.6723766860460856  0.9110194126614674  0.1111151509755217  1.0000
  H   H20       1.0  0.1723983706721413  0.5889958807504954  0.3888788258750537  1.0000
  H   H21       1.0  0.0677257728417189  0.1650100684374394  0.959684473684504  1.0000
  H   H22       1.0  0.5677251832915005  0.33504528471527817  0.5403514009831126  1.0000
  H   H23       1.0  0.9322429897584285  0.8350060376135318  0.04028569146165489  1.0000
  H   H24       1.0  0.4322595407781975  0.6650326405667286  0.45973156925666087  1.0000
  H   H25       1.0  0.041275132900104004  0.43027701631245213  0.11503156946611878  1.0000
  H   H26       1.0  0.541265679762816  0.0697404442746787  0.3849706181082482  1.0000
  H   H27       1.0  0.958833644337389  0.5696945577064199  0.8849925057551857  1.0000
  H   H28       1.0  0.4588197647610741  0.930326276052213  0.6149972538411745  1.0000
  H   H29       1.0  0.1233598564099267  0.3747485561643202  0.20329698102936794  1.0000
  H   H30       1.0  0.6234144103449992  0.12523724736812622  0.2967115495861491  1.0000
  H   H31       1.0  0.8767304979737317  0.6251860398123624  0.7967120397627595  1.0000
  H   H32       1.0  0.37678525722268574  0.8748003970873554  0.7032901977162354  1.0000
  C   C1        1.0  0.0742690459869877  0.18977892775286878  0.4352592776386358  1.0000
  C   C2        1.0  0.5742975053464221  0.3102122430315433  0.0647608308608199  1.0000
  C   C3        1.0  0.9257033992718251  0.8101484942633161  0.5647380467696976  1.0000
  C   C4        1.0  0.4257363501615288  0.6898505466363289  0.9352741383955135  1.0000
  C   C5        1.0  0.20818306441231732  0.221016148568232  0.4994214320294859  1.0000
  C   C6        1.0  0.7082067425511198  0.2789587882761566  0.0005919987792139991  1.0000
  C   C7        1.0  0.7917672720391807  0.7788759864531798  0.500585505415458  1.0000
  C   C8        1.0  0.2917927238707422  0.7211023070397006  0.9994190044103631  1.0000
  C   C9        1.0  0.18226227890989583  0.19047899286517378  0.5954616230974494  1.0000
  C   C10       1.0  0.6822835150482762  0.30950606058009816  0.9045352615241384  1.0000
  C   C11       1.0  0.8177064817623434  0.8094755297790999  0.4045374788084644  1.0000
  C   C12       1.0  0.31772209349263386  0.6905117761735298  0.0954511542994823  1.0000
  C   C13       1.0  0.033464478929083406  0.14921499869389268  0.6268256292707832  1.0000
  C   C14       1.0  0.5334932346463503  0.35077109359439623  0.8731425572406194  1.0000
  C   C15       1.0  0.9664821751989335  0.8508001676521671  0.373152192014757  1.0000
  C   C16       1.0  0.4665013212143592  0.6491917773421392  0.1268107855787903  1.0000
  C   C17       1.0  0.9044247769954055  0.13059533764187853  0.5630202612553532  1.0000
  C   C18       1.0  0.4044808658256471  0.36939422927013504  0.9369776210148544  1.0000
  C   C19       1.0  0.09548625665556901  0.8694241703315342  0.43699503042820703  1.0000
  C   C20       1.0  0.5955357970942075  0.6305631323164889  0.0629943040787637  1.0000
  C   C21       1.0  0.9270390308281621  0.1461641729184961  0.4678611059409974  1.0000
  C   C22       1.0  0.42706960779290887  0.3538333610010511  0.0321510005195762  1.0000
  C   C23       1.0  0.0729260441160733  0.853815541202614  0.532161398332498  1.0000
  C   C24       1.0  0.5729581085151523  0.6461826426072079  0.9678409079964183  1.0000
  C   C25       1.0  0.08319141896151191  0.2090550119437538  0.3332716909530759  1.0000
  C   C26       1.0  0.5832102003603836  0.2909261955068629  0.1667533769894902  1.0000
  C   C27       1.0  0.9168436664167529  0.790854402469904  0.6667118232743974  1.0000
  C   C28       1.0  0.41685681613298436  0.7091319782515484  0.8333023379880586  1.0000
  C   C29       1.0  0.2238786755482991  0.0523643465904584  0.1458295402310625  1.0000
  C   C30       1.0  0.7238787932765548  0.4476259935409601  0.3541750782398907  1.0000
  C   C31       1.0  0.7760962287894628  0.9476039510809001  0.8541227552898147  1.0000
  C   C32       1.0  0.2761034756456553  0.5523825122556473  0.645873870996965  1.0000
  C   C33       1.0  0.3741461862564037  0.0083554231093572  0.11249292340654898  1.0000
  C   C34       1.0  0.8741360524763094  0.49163490710825647  0.3875137992614768  1.0000
  C   C35       1.0  0.6258262619011177  0.9916174144655798  0.8874547585707262  1.0000
  C   C36       1.0  0.1258241075130186  0.5083662958483117  0.6125508081536424  1.0000
  C   C37       1.0  0.4194849785646539  0.0210771113048764  0.0188252920684562  1.0000
  C   C38       1.0  0.9194722658578555  0.47893401588855516  0.4811785849535538  1.0000
  C   C39       1.0  0.5804837849850273  0.9789165034182544  0.9811237526569627  1.0000
  C   C40       1.0  0.08047438412840079  0.5210907106296574  0.5188798475701687  1.0000
  C   C41       1.0  0.3042579927906033  0.07610708808436331  0.962542243926471  1.0000
  C   C42       1.0  0.8042478556569392  0.423907779356405  0.5374558945434272  1.0000
  C   C43       1.0  0.6957181400196292  0.9239018704429398  0.03741061364368648  1.0000
  C   C44       1.0  0.1957233595648162  0.576101659535901  0.46258680135210284  1.0000
  C   C45       1.0  0.15739175739463454  0.11973385558683698  0.0012110029633731994  1.0000
  C   C46       1.0  0.6573832367353063  0.38027726499738884  0.4987942768566923  1.0000
  C   C47       1.0  0.8425880597058042  0.8802687464145434  0.9987484538476181  1.0000
  C   C48       1.0  0.3425990325897743  0.6197312771498601  0.5012469569908617  1.0000
  N   N1        1.0  0.3132244467153171  0.2034303382570073  0.6653669169915446  1.0000
  N   N2        1.0  0.8132577167066445  0.29656923825325515  0.8346161862491925  1.0000
  N   N3        1.0  0.686752912852981  0.7965667477852492  0.3346125248917176  1.0000
  N   N4        1.0  0.1867736848499248  0.703442301457315  0.16536420363277668  1.0000
  N   N5        1.0  0.74531472296497  0.0960494181973743  0.5965873566832797  1.0000
  N   N6        1.0  0.2453760118745052  0.4039473458073671  0.9034173121775312  1.0000
  N   N7        1.0  0.25457543014339734  0.9039898941733  0.4034439678780756  1.0000
  N   N8        1.0  0.7546222274433275  0.5960009657135431  0.0965575274120312  1.0000
  N   N9        1.0  0.1178466634463931  0.1097138804685613  0.09222551838638542  1.0000
  N   N10       1.0  0.6178268978856848  0.3902882032683692  0.4077798703335134  1.0000
  N   N11       1.0  0.8821392948601742  0.8902679576030367  0.9077297700803512  1.0000
  N   N12       1.0  0.3821320349975608  0.6097302592528209  0.5922655222582945  1.0000
  O   O1        1.0  0.9691352501042232  0.16080870333014016  0.2813835663574906  1.0000
  O   O2        1.0  0.4691117753620375  0.3391409395946993  0.2186282054534701  1.0000
  O   O3        1.0  0.030925628579829802  0.839082700176391  0.7185868390881325  1.0000
  O   O4        1.0  0.5308864609731787  0.6608567722151193  0.7814102131979723  1.0000
  O   O5        1.0  0.198095340659421  0.27171238679965626  0.3000195712835918  1.0000
  O   O6        1.0  0.6981392788089522  0.22830224475893598  0.2000076889059841  1.0000
  O   O7        1.0  0.8019643086996595  0.7282005914620269  0.6999747009289551  1.0000
  O   O8        1.0  0.30200880109634204  0.771829123827537  0.8000479155218372  1.0000
  O   O9        1.0  0.34270237333198855  0.2702728862649764  0.4760903522753068  1.0000
  O   O10       1.0  0.8427008395437808  0.22966589327640458  0.0239256183298124  1.0000
  O   O11       1.0  0.6572983188503444  0.729555894991833  0.5239376880402631  1.0000
  O   O12       1.0  0.1573084538329681  0.7703880809526069  0.976062466091548  1.0000
  O   O13       1.0  0.4223581922854934  0.2797451725018405  0.6568683163545472  1.0000
  O   O14       1.0  0.922393224671623  0.2202535337001876  0.843107713645999  1.0000
  O   O15       1.0  0.5775933737479875  0.7202780315037458  0.3431296773530192  1.0000
  O   O16       1.0  0.07761729875111459  0.7797319706621407  0.15683658943598996  1.0000
  O   O17       1.0  0.30718627089309797  0.1364842295508097  0.7314350645797346  1.0000
  O   O18       1.0  0.8072482248173571  0.3635072332940439  0.7685439984165896  1.0000
  O   O19       1.0  0.6927640684444469  0.8634822184521623  0.2685262306286518  1.0000
  O   O20       1.0  0.19280528445117542  0.6365187237341985  0.23144505485338127  1.0000
  O   O21       1.0  0.724362827252712  0.0964260874011629  0.6829262374594053  1.0000
  O   O22       1.0  0.22442083989033532  0.4035779067423347  0.8170782040017315  1.0000
  O   O23       1.0  0.27549293572568706  0.9036168549096075  0.3171018171064901  1.0000
  O   O24       1.0  0.7755356397313165  0.5963875619004851  0.18289916413435484  1.0000
  O   O25       1.0  0.6351457518739352  0.0678633614890813  0.5374980460100076  1.0000
  O   O26       1.0  0.1352221355003778  0.43213334964200106  0.9625178452352401  1.0000
  O   O27       1.0  0.36472720560480815  0.9321786179845547  0.4625425744884595  1.0000
  O   O28       1.0  0.8647920700218564  0.5678040588402027  0.0374696099368066  1.0000
  O   O29       1.0  0.02008630851102571  0.3848490961915799  0.1695992340932193  1.0000
  O   O30       1.0  0.5201114170454418  0.11513683291580891  0.33038264335927175  1.0000
  O   O31       1.0  0.9800015891669888  0.615118890847043  0.8304189929361883  1.0000
  O   O32       1.0  0.4800243862887754  0.8848677145874575  0.6695474731924236  1.0000
