data_image0
_chemical_formula_structural       Cs4H40C20Cl4O20
_chemical_formula_sum              "Cs4 H40 C20 Cl4 O20"
_cell_length_a       6.726816374018022
_cell_length_b       8.721078092201509
_cell_length_c       15.370532758389404
_cell_angle_alpha    90.00077476042094
_cell_angle_beta     89.99973623966163
_cell_angle_gamma    90.0000377283466

_space_group_name_H-M_alt    "P 1"
_space_group_IT_number       1

loop_
  _space_group_symop_operation_xyz
  'x, y, z'

loop_
  _atom_site_type_symbol
  _atom_site_label
  _atom_site_symmetry_multiplicity
  _atom_site_fract_x
  _atom_site_fract_y
  _atom_site_fract_z
  _atom_site_occupancy
  Cs  Cs1       1.0  0.0268657010235245  0.5098959629245953  0.023701180990507005  1.0000
  Cs  Cs2       1.0  0.47313359495329627  0.4901051434368996  0.5237008927402869  1.0000
  Cs  Cs3       1.0  0.526865605572752  0.9901049033913051  0.9762986580996156  1.0000
  Cs  Cs4       1.0  0.9731324211101225  0.0098957283282743  0.47629875290730445  1.0000
  H   H1        1.0  0.9183744173632961  0.5795691116952993  0.4394148379424294  1.0000
  H   H2        1.0  0.5816225123986313  0.42043179137156966  0.9394141476091704  1.0000
  H   H3        1.0  0.41837662801174963  0.9204319513450943  0.5605855170035525  1.0000
  H   H4        1.0  0.0816222782957325  0.07957003032368701  0.0605856327840044  1.0000
  H   H5        1.0  0.6357693793608091  0.9504074136468572  0.2501030079392024  1.0000
  H   H6        1.0  0.8642265772124277  0.0495901435347292  0.7501047488098964  1.0000
  H   H7        1.0  0.13576927004786657  0.5495935073862838  0.7498966126995015  1.0000
  H   H8        1.0  0.3642261496887614  0.4504095268644973  0.24989511529066993  1.0000
  H   H9        1.0  0.4002557654662696  0.6117574708006684  0.1333519199714885  1.0000
  H   H10       1.0  0.09974385867958091  0.38823362456389526  0.6333515958415744  1.0000
  H   H11       1.0  0.9002582271353247  0.8882401431714654  0.8666465195188379  1.0000
  H   H12       1.0  0.5997439311409779  0.11176361965509328  0.3666487987792949  1.0000
  H   H13       1.0  0.7737456052977125  0.7212575589851866  0.21067915025895453  1.0000
  H   H14       1.0  0.7262567141249576  0.278741355917802  0.7106803310855767  1.0000
  H   H15       1.0  0.2737452772056486  0.7787399914228672  0.7893195430027049  1.0000
  H   H16       1.0  0.22625418579138315  0.2212582451674407  0.2893204603683373  1.0000
  H   H17       1.0  0.12472463177086011  0.5365500421162607  0.3338257644874859  1.0000
  H   H18       1.0  0.3752728744566057  0.4634503972839992  0.83382546716701  1.0000
  H   H19       1.0  0.6247263030648541  0.9634485800890219  0.666175179486487  1.0000
  H   H20       1.0  0.875273513360007  0.03655157196000399  0.16617437478339528  1.0000
  H   H21       1.0  0.4856487398013273  0.6377211421816114  0.33646916191418097  1.0000
  H   H22       1.0  0.0143517116707983  0.36227821330971466  0.8364694596551558  1.0000
  H   H23       1.0  0.98565183832784  0.8622776613502194  0.6635297568844791  1.0000
  H   H24       1.0  0.514350979208551  0.13772357459379236  0.163531106273517  1.0000
  H   H25       1.0  0.5149223852345273  0.8136576589058392  0.3948132662299956  1.0000
  H   H26       1.0  0.9850779888961583  0.1863444790235533  0.8948132159622875  1.0000
  H   H27       1.0  0.0149224361314282  0.686339761452217  0.6051852956129267  1.0000
  H   H28       1.0  0.48508045874051936  0.31366098536362597  0.1051890081220321  1.0000
  H   H29       1.0  0.32538911078954413  0.9519820420732686  0.28042302907312694  1.0000
  H   H30       1.0  0.1746089596115326  0.048014836737181106  0.780423186381448  1.0000
  H   H31       1.0  0.8253928326491008  0.548017827585582  0.7195762111963974  1.0000
  H   H32       1.0  0.6746093927694332  0.4519847384222259  0.21957966045707172  1.0000
  H   H33       1.0  0.9940664931088322  0.857293148966562  0.2736941851958861  1.0000
  H   H34       1.0  0.5059366471839227  0.14270611467726005  0.7736934586402668  1.0000
  H   H35       1.0  0.49406671337009567  0.6427056587939434  0.726304716720378  1.0000
  H   H36       1.0  0.0059349019295637994  0.3572956690056799  0.22630777476485522  1.0000
  H   H37       1.0  0.2127064343398573  0.8206400283939246  0.1479223492180424  1.0000
  H   H38       1.0  0.28729600904754454  0.17935255939691064  0.647922641851423  1.0000
  H   H39       1.0  0.7127044099414449  0.6793574913608038  0.8520777676757305  1.0000
  H   H40       1.0  0.787291955904891  0.3206447790696173  0.3520786777511375  1.0000
  C   C1        1.0  0.07766967714545099  0.6566935628513448  0.3447426170273076  1.0000
  C   C2        1.0  0.4223292003389362  0.34330598896559644  0.844741950218733  1.0000
  C   C3        1.0  0.5776713601131789  0.8433061823512986  0.6552577707437309  1.0000
  C   C4        1.0  0.9223300582333493  0.15669600392130426  0.1552577973404965  1.0000
  C   C5        1.0  0.4177532994556046  0.750406897164446  0.3501705555201227  1.0000
  C   C6        1.0  0.08224849385686642  0.24959393011816644  0.8501704994389885  1.0000
  C   C7        1.0  0.9177534723267728  0.7495941655556423  0.6498291500782756  1.0000
  C   C8        1.0  0.5822480033638868  0.2504090385542098  0.1498305808942746  1.0000
  C   C9        1.0  0.38942240357707897  0.8385738834535558  0.2654646859819749  1.0000
  C   C10       1.0  0.11057731144089898  0.16142149372992518  0.7654645443326444  1.0000
  C   C11       1.0  0.8894230920808893  0.6614260183849437  0.7345350764408352  1.0000
  C   C12       1.0  0.6105760021402914  0.3385780492340161  0.2345364791630047  1.0000
  C   C13       1.0  0.044216010546030304  0.7400044714313266  0.2578943228189416  1.0000
  C   C14       1.0  0.45578378445708984  0.2599930193796069  0.7578929469963  1.0000
  C   C15       1.0  0.5442167041180355  0.7599929636605296  0.7421054814539049  1.0000
  C   C16       1.0  0.9557823101243771  0.2400078436683089  0.2421067334538236  1.0000
  C   C17       1.0  0.2402466058166297  0.754807143602683  0.20793755439901676  1.0000
  C   C18       1.0  0.259752230356284  0.24519030836481187  0.7079390601275719  1.0000
  C   C19       1.0  0.7402482454455493  0.7451938299009626  0.7920599048789683  1.0000
  C   C20       1.0  0.7597502410387803  0.25481274951479077  0.2920636159365344  1.0000
  Cl  Cl1       1.0  0.535375271984563  0.6042409994654959  0.017102043912210308  1.0000
  Cl  Cl2       1.0  0.9646246327467907  0.39576134816888947  0.5171016964146773  1.0000
  Cl  Cl3       1.0  0.035372999796905405  0.8957587244627161  0.982896476915137  1.0000
  Cl  Cl4       1.0  0.46462441813437744  0.10423951932902749  0.4828986168957385  1.0000
  O   O1        1.0  0.23081767375842333  0.7345091145869844  0.3946837777486891  1.0000
  O   O2        1.0  0.26918067611710944  0.2654916223883106  0.8946834691838603  1.0000
  O   O3        1.0  0.7308213037821574  0.7654907075633731  0.6053163028186503  1.0000
  O   O4        1.0  0.769182128757109  0.23451029355896943  0.1053172361731143  1.0000
  O   O5        1.0  0.9051173047538298  0.6619345380001959  0.3944199812688964  1.0000
  O   O6        1.0  0.594883073545482  0.3380675905652665  0.8944173285380403  1.0000
  O   O7        1.0  0.4051189689767938  0.8380653717474046  0.6055817014569131  1.0000
  O   O8        1.0  0.09488243513525418  0.1619342377924866  0.10558242525599583  1.0000
  O   O9        1.0  0.5755939256118766  0.8592887305028469  0.22092350746915912  1.0000
  O   O10       1.0  0.9244112587708244  0.1407058408881383  0.7209219260968213  1.0000
  O   O11       1.0  0.07559358664815359  0.640713306943084  0.7790762338809927  1.0000
  O   O12       1.0  0.4244089577367093  0.35929385975734357  0.2790784678758413  1.0000
  O   O13       1.0  0.30778827378638607  0.6035664053110068  0.18438404441394599  1.0000
  O   O14       1.0  0.1922122978095331  0.3964293410533628  0.6843848991211559  1.0000
  O   O15       1.0  0.8077897950611472  0.8964323088644688  0.8156158817546738  1.0000
  O   O16       1.0  0.6922099291718667  0.10356909627179792  0.3156153100228281  1.0000
  O   O17       1.0  0.900144179952946  0.6632440642325437  0.2058949710161571  1.0000
  O   O18       1.0  0.5998567034347463  0.33675359046687686  0.7058942499887664  1.0000
  O   O19       1.0  0.4001423647766842  0.8367535497056124  0.7941054204888972  1.0000
  O   O20       1.0  0.0998555610742784  0.16324709375017926  0.2941061444202191  1.0000
