data_image0
_chemical_formula_structural       Zn16H24C96S16O68F8
_chemical_formula_sum              "Zn16 H24 C96 S16 O68 F8"
_cell_length_a       19.67676807630884
_cell_length_b       19.753040016961794
_cell_length_c       33.39166767612347
_cell_angle_alpha    78.94673351401495
_cell_angle_beta     79.17090257696309
_cell_angle_gamma    63.95122628727006

_space_group_name_H-M_alt    "P 1"
_space_group_IT_number       1

loop_
  _space_group_symop_operation_xyz
  'x, y, z'

loop_
  _atom_site_type_symbol
  _atom_site_label
  _atom_site_symmetry_multiplicity
  _atom_site_fract_x
  _atom_site_fract_y
  _atom_site_fract_z
  _atom_site_occupancy
  Zn  Zn1       1.0  0.0560317316812373  0.4008050789176991  0.4784046512344986  1.0000
  Zn  Zn2       1.0  0.9843350923388956  0.4833937839450112  0.560503454513281  1.0000
  Zn  Zn3       1.0  0.0588731382463337  0.5611373486104227  0.48230422225273634  1.0000
  Zn  Zn4       1.0  0.9004003603547376  0.5552219466973582  0.47954093069566983  1.0000
  Zn  Zn5       1.0  0.6938789152043654  0.34904240271080056  0.2716979782298026  1.0000
  Zn  Zn6       1.0  0.6907043391866453  0.18828577339406383  0.2667757037455446  1.0000
  Zn  Zn7       1.0  0.7687888686386657  0.2665021679061113  0.1899448874503946  1.0000
  Zn  Zn8       1.0  0.8483978566724063  0.19454760753681896  0.2717815982521472  1.0000
  Zn  Zn9       1.0  0.2659062071920673  0.7663902412283575  0.6895043034717221  1.0000
  Zn  Zn10      1.0  0.3496806141821338  0.6959589552003321  0.7711511876559385  1.0000
  Zn  Zn11      1.0  0.1927135639609432  0.8488714527292627  0.7709842841826742  1.0000
  Zn  Zn12      1.0  0.1912474200558094  0.6886495494743414  0.7677183542231703  1.0000
  Zn  Zn13      1.0  0.5590068771598666  0.06191617987737158  0.9832258421081408  1.0000
  Zn  Zn14      1.0  0.40144031575875516  0.054141490363733225  0.9774944317519856  1.0000
  Zn  Zn15      1.0  0.5571947019572646  0.9010901376523321  0.979005786891136  1.0000
  Zn  Zn16      1.0  0.48104394071285844  0.9837074490502644  0.060040480408176236  1.0000
  H   H1        1.0  0.7485769091036047  0.4525191194588558  0.3503649225294794  1.0000
  H   H2        1.0  0.0010779271987431001  0.2981702068793767  0.39974103007730116  1.0000
  H   H3        1.0  0.2006123659813994  0.7004183765699781  0.5992676130625583  1.0000
  H   H4        1.0  0.0494062062061218  0.5497117652835615  0.6506756401750948  1.0000
  H   H5        1.0  0.650739596590597  0.15122487023387535  0.04943184209756174  1.0000
  H   H6        1.0  0.5993221758969867  0.09872589587803302  0.20050546773492778  1.0000
  H   H7        1.0  0.29928554320359524  0.00010175374637096776  0.8997710298047181  1.0000
  H   H8        1.0  0.451109432571144  0.7490859139374779  0.8499857407581713  1.0000
  H   H9        1.0  0.32737311716032014  0.5402051217704978  0.39781180335180727  1.0000
  H   H10       1.0  0.42241387300209965  0.20963318682032653  0.3523342864441403  1.0000
  H   H11       1.0  0.7544767723027164  0.5408776385925833  0.684456130167469  1.0000
  H   H12       1.0  0.4956260325604874  0.7089254059398727  0.5657984483909075  1.0000
  H   H13       1.0  0.0413485971257401  0.2540801764439067  0.6838385550304339  1.0000
  H   H14       1.0  0.20879850773923184  0.9957264470702114  0.5660522981664046  1.0000
  H   H15       1.0  0.7438666038315702  0.8168960110218678  0.3873538174680391  1.0000
  H   H16       1.0  0.0053933737669425  0.9328483387409534  0.3626558983421049  1.0000
  H   H17       1.0  0.7085434463229062  0.495795438279366  0.06619082828963495  1.0000
  H   H18       1.0  0.5412578357337238  0.7542687727506419  0.18411489417687224  1.0000
  H   H19       1.0  0.1490498596572252  0.07628182267406912  0.21941593897741998  1.0000
  H   H20       1.0  0.10054117910415529  0.1740937173312957  0.030556875369086415  1.0000
  H   H21       1.0  0.5066617607805597  0.43247785016188794  0.8627358197243922  1.0000
  H   H22       1.0  0.2442542685399474  0.31782151206535053  0.8872267038217743  1.0000
  H   H23       1.0  0.9221624569120976  0.7097928100130916  0.8522507740188559  1.0000
  H   H24       1.0  0.8279671721837758  0.04048970059496782  0.897580868716112  1.0000
  C   C1        1.0  0.0615975094476653  0.31649647549293297  0.5619228362325615  1.0000
  C   C2        1.0  0.06923281447380701  0.5701320579406685  0.568559679193207  1.0000
  C   C3        1.0  0.1837653128375933  0.4401790381393127  0.4384965748705838  1.0000
  C   C4        1.0  0.9362476647805241  0.6840489455380168  0.43878404227865525  1.0000
  C   C5        1.0  0.9308861110833033  0.4306523985436073  0.4313039878104163  1.0000
  C   C6        1.0  0.8168907921564782  0.5608504346696606  0.5625766365498848  1.0000
  C   C7        1.0  0.5660594042737087  0.30958431625516875  0.3112203005414571  1.0000
  C   C8        1.0  0.682298433348805  0.18016676432350215  0.18068554475259901  1.0000
  C   C9        1.0  0.6896363640060842  0.4333100534872186  0.18814237991902164  1.0000
  C   C10       1.0  0.935231532878568  0.18793773371038464  0.18948995209974134  1.0000
  C   C11       1.0  0.8184669333102121  0.31974513762909845  0.3191129250367055  1.0000
  C   C12       1.0  0.8128523003475153  0.06549990611233618  0.311405443674019  1.0000
  C   C13       1.0  0.4331641300937791  0.6894856379606081  0.6877324488050292  1.0000
  C   C14       1.0  0.31798834035321016  0.8203442331875621  0.8186993870505859  1.0000
  C   C15       1.0  0.18834158864016357  0.9332600443764533  0.6878568033950856  1.0000
  C   C16       1.0  0.06576940380697491  0.8096111525139806  0.8113318877745498  1.0000
  C   C17       1.0  0.18073838762317965  0.6799580124080079  0.6814371302879039  1.0000
  C   C18       1.0  0.3142820482255573  0.5661722109376867  0.8113669953072673  1.0000
  C   C19       1.0  0.436901522192187  0.1841293973515121  0.9384078553324001  1.0000
  C   C20       1.0  0.43265499186286865  0.9290472387178923  0.9308405222217006  1.0000
  C   C21       1.0  0.6840879319235996  0.9409422784057853  0.9389644202739476  1.0000
  C   C22       1.0  0.5606594822670203  0.8168143064570971  0.0622037588866391  1.0000
  C   C23       1.0  0.5678025716523223  0.06974671285613013  0.06928095396774842  1.0000
  C   C24       1.0  0.31464616568607073  0.06197740128920507  0.0601244204771021  1.0000
  C   C25       1.0  0.9008461837384942  0.40373694693830947  0.40241769776359604  1.0000
  C   C26       1.0  0.8487692649696257  0.34694925640052077  0.34772675894792127  1.0000
  C   C27       1.0  0.8294987761362621  0.4458694457707251  0.3876677074149982  1.0000
  C   C28       1.0  0.9201691699515494  0.30484022197055793  0.3624271551603115  1.0000
  C   C29       1.0  0.804129717656771  0.41832064107623523  0.3610956659995423  1.0000
  C   C30       1.0  0.9455228282858172  0.3323757181913792  0.3890134072643718  1.0000
  C   C31       1.0  0.09857505587106628  0.5990785955591279  0.5967102116763741  1.0000
  C   C32       1.0  0.1513745593755473  0.6510946126043821  0.6532441753977737  1.0000
  C   C33       1.0  0.1416814395685293  0.6419502047030292  0.5832411997411029  1.0000
  C   C34       1.0  0.10830866861743262  0.6082047798357378  0.6666937275325111  1.0000
  C   C35       1.0  0.16739261162587132  0.6673348069480481  0.6107030756013074  1.0000
  C   C36       1.0  0.0825906369321174  0.5828322469303231  0.6392378592881371  1.0000
  C   C37       1.0  0.3048866491735183  0.4544472493830938  0.40071548896572295  1.0000
  C   C38       1.0  0.4450250984603912  0.29533098210805514  0.3492224187474733  1.0000
  C   C39       1.0  0.25832164344094366  0.4157891163286891  0.41388436123102684  1.0000
  C   C40       1.0  0.4916165013095863  0.33391683201544714  0.3360029141547329  1.0000
  C   C41       1.0  0.3769674566838006  0.3394662349735498  0.37287275292724337  1.0000
  C   C42       1.0  0.3730381176269972  0.41025524854877904  0.377121408096535  1.0000
  C   C43       1.0  0.7257738605748472  0.5759358043446242  0.6301593524396196  1.0000
  C   C44       1.0  0.5242206837838168  0.6738692944633936  0.620126501477344  1.0000
  C   C45       1.0  0.7427941438023212  0.585190856021015  0.5875170108963346  1.0000
  C   C46       1.0  0.5072525807960916  0.6647875756532072  0.6627836961731648  1.0000
  C   C47       1.0  0.6041163572329465  0.6413595296187039  0.6083117510014944  1.0000
  C   C48       1.0  0.6458936197596614  0.6084336579044987  0.6419563673165103  1.0000
  C   C49       1.0  0.0764030538997815  0.2253942585467711  0.6296601747592376  1.0000
  C   C50       1.0  0.1738337651825361  0.024391436794196888  0.6202264088665927  1.0000
  C   C51       1.0  0.0857438876979728  0.2424339197777102  0.5869803591547794  1.0000
  C   C52       1.0  0.16442467216951678  0.007376947787115321  0.662877917913427  1.0000
  C   C53       1.0  0.1416178663021199  0.10407414841644418  0.6082137971317465  1.0000
  C   C54       1.0  0.10867070105369689  0.1457056882548642  0.6416953725248007  1.0000
  C   C55       1.0  0.8425479073814233  0.8011992940166693  0.3972382133062026  1.0000
  C   C56       1.0  0.906592654388092  0.9484320249968831  0.3529580230808307  1.0000
  C   C57       1.0  0.9111287957915054  0.7582202374093754  0.41392871203021997  1.0000
  C   C58       1.0  0.8379560929870777  0.9913143908059967  0.33625571957556116  1.0000
  C   C59       1.0  0.9081893371261387  0.8788727388527562  0.3751355771732535  1.0000
  C   C60       1.0  0.8412165501750125  0.8705252276500771  0.3749248376607215  1.0000
  C   C61       1.0  0.6536664145301359  0.15261587035539761  0.1513995277320603  1.0000
  C   C62       1.0  0.5964961705586447  0.09724117816311664  0.09855151461125192  1.0000
  C   C63       1.0  0.6669383442668462  0.16641468948613172  0.10833690375088176  1.0000
  C   C64       1.0  0.5831433481529872  0.08350238633423855  0.1416130250232044  1.0000
  C   C65       1.0  0.6392526273327447  0.13949686204701817  0.08260948592489831  1.0000
  C   C66       1.0  0.6108598491001871  0.11040541952632306  0.16733064356519384  1.0000
  C   C67       1.0  0.6740314152691056  0.5245273105426235  0.12040030453265169  1.0000
  C   C68       1.0  0.5757618650731616  0.7255380617440819  0.12991604075711646  1.0000
  C   C69       1.0  0.6647715235649514  0.5074071124532156  0.16307030194871433  1.0000
  C   C70       1.0  0.5851526352801882  0.7427081822377986  0.08725273237858033  1.0000
  C   C71       1.0  0.608320625586991  0.645822483006825  0.14189150095933206  1.0000
  C   C72       1.0  0.6415120093911855  0.6042546092683879  0.10839593263382596  1.0000
  C   C73       1.0  0.0821067640908524  0.12380386963757667  0.1777981687262269  1.0000
  C   C74       1.0  0.1677891554582516  0.12623182327313737  0.0719764443171087  1.0000
  C   C75       1.0  0.009663594151980702  0.16291599676778654  0.1649302490306397  1.0000
  C   C76       1.0  0.2402603708022824  0.08721398587238838  0.0847626942531079  1.0000
  C   C77       1.0  0.1101960480287971  0.1395467209772789  0.1060402248581624  1.0000
  C   C78       1.0  0.13978576086724806  0.11052768884409403  0.14374927997621975  1.0000
  C   C79       1.0  0.3457496043136317  0.8496687327200905  0.8475287623114625  1.0000
  C   C80       1.0  0.4046958356757742  0.8995421660184066  0.9021868821252924  1.0000
  C   C81       1.0  0.3043246728815419  0.9205428198048862  0.8623536691573152  1.0000
  C   C82       1.0  0.44606089166342144  0.8286452056230047  0.8874033198304687  1.0000
  C   C83       1.0  0.33288473215267084  0.9448853362335186  0.8889272009818754  1.0000
  C   C84       1.0  0.4175173565399461  0.8043004798668819  0.8608255439808802  1.0000
  C   C85       1.0  0.40782106715911237  0.4486801206725913  0.8528871913196738  1.0000
  C   C86       1.0  0.34325599585481825  0.3016498621361878  0.8968948923836494  1.0000
  C   C87       1.0  0.33937863019472303  0.4918358242884083  0.8361036004371486  1.0000
  C   C88       1.0  0.4117536584427057  0.2585020710566468  0.9136752224704168  1.0000
  C   C89       1.0  0.3419627866614334  0.3711277440120995  0.8747323094370145  1.0000
  C   C90       1.0  0.4089922494222691  0.3792939233777161  0.8750891769069328  1.0000
  C   C91       1.0  0.9447474097865866  0.7955032373616718  0.8493640810766223  1.0000
  C   C92       1.0  0.8050184246351932  0.9549991747722756  0.9006938338787265  1.0000
  C   C93       1.0  0.9913919939270671  0.834023788799769  0.8360824877958561  1.0000
  C   C94       1.0  0.7583314295165309  0.9165609476692179  0.9140485555552972  1.0000
  C   C95       1.0  0.8729680714918331  0.9106425256666878  0.8770513516512963  1.0000
  C   C96       1.0  0.8766795011118163  0.8398634498114105  0.8729510088583012  1.0000
  S   S1        1.0  0.2979277502159833  0.3259168674759819  0.3975537060144489  1.0000
  S   S2        1.0  0.4521183817140653  0.42373646883827826  0.35241388879929764  1.0000
  S   S3        1.0  0.6615091494929501  0.6332151353724242  0.5620275322258124  1.0000
  S   S4        1.0  0.5885496450626917  0.6167224959352919  0.6882457969539288  1.0000
  S   S5        1.0  0.1336907158699674  0.16136054544211487  0.5618173120593895  1.0000
  S   S6        1.0  0.11649883117210891  0.08839730209742669  0.6880846393798876  1.0000
  S   S7        1.0  0.9735397060855749  0.8023958576818587  0.4023566183151955  1.0000
  S   S8        1.0  0.7757973767637482  0.9469081865500681  0.34770419214273574  1.0000
  S   S9        1.0  0.6163185307731496  0.5884388484570806  0.18826223753909938  1.0000
  S   S10       1.0  0.6335948624929061  0.6617075125612784  0.06203309837341214  1.0000
  S   S11       1.0  0.012109701948873  0.18326760936748338  0.11155827227352691  1.0000
  S   S12       1.0  0.237890458957132  0.06688647930911175  0.138159404565279  1.0000
  S   S13       1.0  0.27684642206873616  0.44777815119424974  0.847451286560208  1.0000
  S   S14       1.0  0.47410615672932016  0.30274259301681644  0.9024024189326454  1.0000
  S   S15       1.0  0.9520554999877859  0.9239891642535483  0.8522691786697507  1.0000
  S   S16       1.0  0.7975434439425513  0.8266293070921337  0.8977812118709494  1.0000
  O   O1        1.0  0.00044608418055960033  0.4991485616603129  0.5000994598058099  1.0000
  O   O2        1.0  0.0778732464204523  0.3154183824955581  0.5228620175121391  1.0000
  O   O3        1.0  0.0321198124216693  0.5310651456809623  0.5859532579847198  1.0000
  O   O4        1.0  0.1551182085282008  0.5064749642040454  0.4495015274698986  1.0000
  O   O5        1.0  0.026913095840683396  0.37496310845029507  0.580868919365713  1.0000
  O   O6        1.0  0.1540354011309262  0.392005143066264  0.4466705863822611  1.0000
  O   O7        1.0  0.0834869362205097  0.5867047311921496  0.530176173524559  1.0000
  O   O8        1.0  0.0035154977204783  0.6573871295105675  0.44946382939487256  1.0000
  O   O9        1.0  0.8879644593004556  0.4948334910494409  0.44342468003067387  1.0000
  O   O10       1.0  0.889904224558471  0.6526996659416183  0.44764141481238795  1.0000
  O   O11       1.0  0.9973007119578483  0.3862553829574366  0.4412692188966432  1.0000
  O   O12       1.0  0.8759340839854489  0.5261468184207769  0.5814400438745722  1.0000
  O   O13       1.0  0.8152011548268803  0.5771164313742215  0.5235423938700309  1.0000
  O   O14       1.0  0.749162885245717  0.25040242897097165  0.25027475181631337  1.0000
  O   O15       1.0  0.595916006156692  0.3576492638356683  0.30337334425964  1.0000
  O   O16       1.0  0.6652487428337821  0.16256129646421158  0.21887717364376877  1.0000
  O   O17       1.0  0.7260831194026807  0.3748405029180476  0.16928530302709532  1.0000
  O   O18       1.0  0.5944085968059057  0.2436303091227643  0.29976598433870544  1.0000
  O   O19       1.0  0.6722671062153224  0.43434020893422354  0.22717275919442415  1.0000
  O   O20       1.0  0.7207646043979139  0.21832495422457746  0.16520303055988708  1.0000
  O   O21       1.0  0.877394418019641  0.22347792191187224  0.16923720813678497  1.0000
  O   O22       1.0  0.8607205909570794  0.2547063088347911  0.3079251476687332  1.0000
  O   O23       1.0  0.934137945430365  0.1725304688318517  0.22840460853603164  1.0000
  O   O24       1.0  0.7525894536897723  0.3645394209795543  0.3085337596077693  1.0000
  O   O25       1.0  0.7462889022081498  0.0917431719419284  0.29978924838111703  1.0000
  O   O26       1.0  0.858734871974427  0.09732213130077141  0.303501771780347  1.0000
  O   O27       1.0  0.25022782399523186  0.7500841982625274  0.7499041838681322  1.0000
  O   O28       1.0  0.3742655837129121  0.7237819317240906  0.668747413666182  1.0000
  O   O29       1.0  0.36351542950962573  0.7553657610814993  0.8077338506603624  1.0000
  O   O30       1.0  0.1713748143409362  0.9343465455088735  0.7268769031792602  1.0000
  O   O31       1.0  0.4346935343012319  0.6739995165849563  0.7268128750010234  1.0000
  O   O32       1.0  0.2233749459171506  0.8747655801123099  0.6689352480756059  1.0000
  O   O33       1.0  0.2522331333741832  0.8620800151732337  0.8077223677373624  1.0000
  O   O34       1.0  0.0950377402824074  0.858151521172708  0.8027957335511431  1.0000
  O   O35       1.0  0.1663464505046903  0.6634547480136774  0.7198135821465996  1.0000
  O   O36       1.0  0.09483396249486731  0.7430965131318672  0.8005428774738448  1.0000
  O   O37       1.0  0.2179698587367299  0.7189109235118494  0.6640608904425703  1.0000
  O   O38       1.0  0.36017446117627827  0.5980681844934279  0.8029839760622721  1.0000
  O   O39       1.0  0.24729040864643545  0.5924460772857644  0.8003814454390508  1.0000
  O   O40       1.0  0.5000606006766546  0.00029730125243085576  0.9997112573123488  1.0000
  O   O41       1.0  0.5032162203394251  0.15834961986340093  0.950247216033688  1.0000
  O   O42       1.0  0.3877757601384176  0.9947788912591734  0.9409796404460238  1.0000
  O   O43       1.0  0.654667704451569  0.8925311655545373  0.9472201424592015  1.0000
  O   O44       1.0  0.3914952943133372  0.15177147124470025  0.9459398389814595  1.0000
  O   O45       1.0  0.6554309569775967  0.007104449669732601  0.9501841413897623  1.0000
  O   O46       1.0  0.4978080422967395  0.8868473290825419  0.942499170788743  1.0000
  O   O47       1.0  0.5788330955942698  0.8156880905705391  0.023232697960615747  1.0000
  O   O48       1.0  0.5291249746673685  0.03180078663255157  0.0847711770118096  1.0000
  O   O49       1.0  0.5237808469798962  0.8754008627934768  0.08094416938421031  1.0000
  O   O50       1.0  0.5849554179705052  0.08721792973232567  0.0310925772950768  1.0000
  O   O51       1.0  0.31576514874077344  0.07649252403546576  0.021167157424727596  1.0000
  O   O52       1.0  0.3724182607215525  0.027003556605308256  0.0804415524490807  1.0000
  O   O53       1.0  0.2862637502300487  0.5249647607250125  0.4096958839038507  1.0000
  O   O54       1.0  0.46347724312078503  0.2248235693714875  0.3402249841213845  1.0000
  O   O55       1.0  0.7795394583439759  0.5403400385396822  0.6563439488518981  1.0000
  O   O56       1.0  0.4705264390123816  0.7093713016324015  0.5939049285753697  1.0000
  O   O57       1.0  0.0409109889559645  0.27897391056995957  0.6556477293124774  1.0000
  O   O58       1.0  0.2092811195466737  0.9708114000962951  0.5942399856919067  1.0000
  O   O59       1.0  0.7854384888574443  0.7785029743665889  0.402094148392429  1.0000
  O   O60       1.0  0.9634909705370095  0.9713684821485628  0.3481872634836947  1.0000
  O   O61       1.0  0.70965154624718  0.47098286302593106  0.09441207514073108  1.0000
  O   O62       1.0  0.5400671562630989  0.7790935688197748  0.15590005949692914  1.0000
  O   O63       1.0  0.09438108689209912  0.10195518618977674  0.21776880422050482  1.0000
  O   O64       1.0  0.15525345760833184  0.14809248002592315  0.0320232433261793  1.0000
  O   O65       1.0  0.465014403789354  0.4712485183969975  0.8481904319828004  1.0000
  O   O66       1.0  0.2861716123707083  0.27896069406967433  0.9015541628942003  1.0000
  O   O67       1.0  0.9633530977915186  0.7249453838757064  0.8404423884617814  1.0000
  O   O68       1.0  0.7867159801998226  0.025531654851100517  0.9095996799333433  1.0000
  F   F1        1.0  0.7822847377937235  0.515480539631362  0.3988114247515427  1.0000
  F   F2        1.0  0.9674532553083495  0.2352960465696158  0.3512550243707793  1.0000
  F   F3        1.0  0.1600676430967027  0.6602672813921588  0.5427140555314125  1.0000
  F   F4        1.0  0.0899612740126443  0.5897767083918809  0.7072219580289242  1.0000
  F   F5        1.0  0.7075409182073358  0.20679058745503207  0.09004736251286263  1.0000
  F   F6        1.0  0.5424422257554012  0.04322489466339626  0.1598919670346604  1.0000
  F   F7        1.0  0.23447572449109083  0.9683665662938028  0.8512082745623603  1.0000
  F   F8        1.0  0.5159479820920296  0.7808778611802725  0.8985318015491828  1.0000
