data_image0
_chemical_formula_structural       Cu4H28C44I4N8O4
_chemical_formula_sum              "Cu4 H28 C44 I4 N8 O4"
_cell_length_a       4.2660814862673915
_cell_length_b       13.87971151284468
_cell_length_c       17.59136921205215
_cell_angle_alpha    90.00025008376484
_cell_angle_beta     90.00009149684622
_cell_angle_gamma    97.58769672809292

_space_group_name_H-M_alt    "P 1"
_space_group_IT_number       1

loop_
  _space_group_symop_operation_xyz
  'x, y, z'

loop_
  _atom_site_type_symbol
  _atom_site_label
  _atom_site_symmetry_multiplicity
  _atom_site_fract_x
  _atom_site_fract_y
  _atom_site_fract_z
  _atom_site_occupancy
  Cu  Cu1       1.0  0.8250823752887158  0.4914172836962577  0.5593650864214936  1.0000
  Cu  Cu2       1.0  0.674916759065489  0.008580729391880497  0.05936562664955859  1.0000
  Cu  Cu3       1.0  0.17492353379778072  0.5085811933114142  0.4406328963947104  1.0000
  Cu  Cu4       1.0  0.32507604672019125  0.9914199400380351  0.9406334930889244  1.0000
  H   H1        1.0  0.4858144071604256  0.43284783775268193  0.7002402506819296  1.0000
  H   H2        1.0  0.014188883827394187  0.06714931383928047  0.2002392215253863  1.0000
  H   H3        1.0  0.5142059924938707  0.567146264343904  0.2997594375114475  1.0000
  H   H4        1.0  0.9858022160519083  0.9328528112502423  0.7997598982152498  1.0000
  H   H5        1.0  0.2179967239040507  0.7656002277114025  0.8467438603700472  1.0000
  H   H6        1.0  0.28199904599206593  0.7343988988515447  0.3467423762292512  1.0000
  H   H7        1.0  0.7820088665405436  0.23439752246535753  0.1532563962871762  1.0000
  H   H8        1.0  0.7180004707725087  0.2656010377877464  0.6532567435093313  1.0000
  H   H9        1.0  0.5831942289456647  0.8550615560804001  0.7527963123918155  1.0000
  H   H10       1.0  0.9168041915355328  0.6449372497898549  0.25279457580302284  1.0000
  H   H11       1.0  0.4168046505225504  0.14493692688866125  0.24720451272589372  1.0000
  H   H12       1.0  0.08319564388852999  0.3550634136921145  0.747206249318623  1.0000
  H   H13       1.0  0.6128747972727311  0.7939749979253604  0.6206433395473283  1.0000
  H   H14       1.0  0.8871134006198319  0.7060237614075147  0.12064180052722412  1.0000
  H   H15       1.0  0.38712396954131373  0.20602857488643878  0.3793557801973364  1.0000
  H   H16       1.0  0.11288047377083638  0.2939739986892106  0.8793578876670622  1.0000
  H   H17       1.0  0.25915208505678317  0.645984487246508  0.579281822233135  1.0000
  H   H18       1.0  0.2408396142301753  0.8540145136919645  0.0792807318139666  1.0000
  H   H19       1.0  0.7408440199075984  0.3540183607203885  0.42072013981266565  1.0000
  H   H20       1.0  0.7591542601680387  0.14598324640980556  0.9207206617620686  1.0000
  H   H21       1.0  0.31204536795307547  0.6271326077867483  0.9178455546702011  1.0000
  H   H22       1.0  0.18796072207498335  0.8728676580492588  0.4178462129439566  1.0000
  H   H23       1.0  0.687953398866  0.37287096502841166  0.082154701995627  1.0000
  H   H24       1.0  0.8120408192479257  0.12713154976806604  0.5821529067937805  1.0000
  H   H25       1.0  0.6625249145210289  0.35172385209223467  0.9408962297019912  1.0000
  H   H26       1.0  0.8374742938798577  0.1482742381451843  0.440895040977381  1.0000
  H   H27       1.0  0.3374785387186066  0.648279716754267  0.0591040269647749  1.0000
  H   H28       1.0  0.16252021780969264  0.8517249756234475  0.5591035102983639  1.0000
  C   C1        1.0  0.6483616868588554  0.49588497334623566  0.7184345410612494  1.0000
  C   C2        1.0  0.8516358733501261  0.0041125284942467  0.21843343196574244  1.0000
  C   C3        1.0  0.35164529084268276  0.5041105943349674  0.2815662840530919  1.0000
  C   C4        1.0  0.14835756973945274  0.9958895946109434  0.7815656877753627  1.0000
  C   C5        1.0  0.659278686680139  0.52744260085295  0.7955349062836917  1.0000
  C   C6        1.0  0.8407201116719207  0.9725564577007189  0.29553483133368996  1.0000
  C   C7        1.0  0.3407245605441246  0.47255515130142084  0.2044630765307289  1.0000
  C   C8        1.0  0.15928238560181274  0.027444930626153094  0.7044631514868129  1.0000
  C   C9        1.0  0.029835755626358103  0.6552339052819742  0.7663616012241903  1.0000
  C   C10       1.0  0.47016292140595783  0.8447676514120059  0.2663600032515774  1.0000
  C   C11       1.0  0.970165467049618  0.3447645757010774  0.23363865543340268  1.0000
  C   C12       1.0  0.5298398945297791  0.1552344637592283  0.733640253412574  1.0000
  C   C13       1.0  0.22722204158326048  0.740650273708155  0.788088351090046  1.0000
  C   C14       1.0  0.27277352837839425  0.759349232912079  0.2880875172758621  1.0000
  C   C15       1.0  0.7727848234741612  0.25935038382250036  0.21191304249359186  1.0000
  C   C16       1.0  0.7272230078820457  0.24064925204299203  0.7119138763019635  1.0000
  C   C17       1.0  0.4294998824978933  0.7898414211103668  0.7357014228238513  1.0000
  C   C18       1.0  0.07049319973977924  0.7101585046115273  0.2357009070082299  1.0000
  C   C19       1.0  0.5704972910614217  0.21015851751661774  0.2642988338354257  1.0000
  C   C20       1.0  0.9295063170348498  0.28984143203448537  0.7643004865726796  1.0000
  C   C21       1.0  0.44431339240165346  0.7557643949816107  0.6603826139443287  1.0000
  C   C22       1.0  0.05568029853026244  0.7442379927923709  0.16038220905196712  1.0000
  C   C23       1.0  0.5556794133865421  0.24423627444998883  0.3396170742547398  1.0000
  C   C24       1.0  0.9443221987510028  0.25576339553953886  0.8396174791502915  1.0000
  C   C25       1.0  0.2494195853793144  0.6735684518653642  0.6371966317889531  1.0000
  C   C26       1.0  0.25057560645947763  0.8264323431652084  0.13719488221634896  1.0000
  C   C27       1.0  0.7505819559385641  0.3264307559486069  0.36280135102762057  1.0000
  C   C28       1.0  0.7494225230431297  0.17356977596627834  0.8628025321439452  1.0000
  C   C29       1.0  0.037176743050707686  0.6227672009473223  0.6892305412585884  1.0000
  C   C30       1.0  0.46281827153125477  0.8772324480428819  0.1892290516951007  1.0000
  C   C31       1.0  0.9628265041735488  0.3772305512070416  0.3107674415558321  1.0000
  C   C32       1.0  0.5371771961116352  0.12276894623698094  0.8107689311239952  1.0000
  C   C33       1.0  0.39577169459998623  0.5722379069512653  0.9538011777638005  1.0000
  C   C34       1.0  0.10422395322159873  0.9277647618927246  0.4538008536161016  1.0000
  C   C35       1.0  0.6042267535671327  0.4277649390262609  0.0461990789007203  1.0000
  C   C36       1.0  0.8957732203377162  0.0722351767342602  0.5461994030431754  1.0000
  C   C37       1.0  0.4884961256002924  0.48841032415452174  0.9224595469152205  1.0000
  C   C38       1.0  0.011502419113966796  0.011588874032604196  0.42245946298945825  1.0000
  C   C39       1.0  0.5114919937723669  0.5115903492490971  0.0775412782040732  1.0000
  C   C40       1.0  0.9885021027231246  0.9884117854756621  0.5775396567513766  1.0000
  C   C41       1.0  0.591745222137483  0.41631247790040493  0.9674957337984581  1.0000
  C   C42       1.0  0.9082537901449539  0.08369013261283698  0.467496057480382  1.0000
  C   C43       1.0  0.40825695649686367  0.5836881835972318  0.03250509132365661  1.0000
  C   C44       1.0  0.09174604527157008  0.9163105308640948  0.5325030622595079  1.0000
  I   I1        1.0  0.2600842318140977  0.37433914667542456  0.544198243128129  1.0000
  I   I2        1.0  0.239918954188127  0.12565998972869605  0.04420091663849491  1.0000
  I   I3        1.0  0.7399260450410095  0.6256585995259483  0.45579973968769844  1.0000
  I   I4        1.0  0.7600765134673252  0.8743414045595653  0.9557999084835203  1.0000
  N   N1        1.0  0.836006182691662  0.5417307317188147  0.6664495057335104  1.0000
  N   N2        1.0  0.6639858320043571  0.9582653871133925  0.166449310372272  1.0000
  N   N3        1.0  0.16399972641242036  0.4582677453006239  0.33355245630677643  1.0000
  N   N4        1.0  0.33600399327718833  0.0417338306323032  0.8335520832054473  1.0000
  N   N5        1.0  0.8402849581706846  0.6048557598862131  0.8194325900804245  1.0000
  N   N6        1.0  0.6597093650452236  0.895143443922663  0.319432176443236  1.0000
  N   N7        1.0  0.1597192450295281  0.3951441727945023  0.1805699404226004  1.0000
  N   N8        1.0  0.34028983307744903  0.10485576588571624  0.6805692171363661  1.0000
  O   O1        1.0  0.4667556280394507  0.4700145048278301  0.8437089610100301  1.0000
  O   O2        1.0  0.03324551958593959  0.02998640629999729  0.3437089489774721  1.0000
  O   O3        1.0  0.5332431387796247  0.5299890679873298  0.156291295655798  1.0000
  O   O4        1.0  0.9667543158330999  0.9700142571786113  0.656290739223003  1.0000
