data_image0
_chemical_formula_structural       Ca4H20C28N4O20
_chemical_formula_sum              "Ca4 H20 C28 N4 O20"
_cell_length_a       7.879045606627234
_cell_length_b       9.993866086050978
_cell_length_c       11.288608479342672
_cell_angle_alpha    90.00033311910553
_cell_angle_beta     104.31480172219372
_cell_angle_gamma    90.00007635383821

_space_group_name_H-M_alt    "P 1"
_space_group_IT_number       1

loop_
  _space_group_symop_operation_xyz
  'x, y, z'

loop_
  _atom_site_type_symbol
  _atom_site_label
  _atom_site_symmetry_multiplicity
  _atom_site_fract_x
  _atom_site_fract_y
  _atom_site_fract_z
  _atom_site_occupancy
  Ca  Ca1       1.0  0.5159624601321795  0.8436407492060384  0.8993276249942852  1.0000
  Ca  Ca2       1.0  0.9840405068731783  0.343640645944653  0.10067296005843224  1.0000
  Ca  Ca3       1.0  0.4840385432093441  0.1563585020378255  0.1006731608976423  1.0000
  Ca  Ca4       1.0  0.0159591883327224  0.6563606065223481  0.8993267130825301  1.0000
  H   H1        1.0  0.8161175361129622  0.937031983364001  0.535247490829228  1.0000
  H   H2        1.0  0.6838766165451131  0.4370329831971631  0.4647467239589673  1.0000
  H   H3        1.0  0.183880849234356  0.0629682684877721  0.46475195510382145  1.0000
  H   H4        1.0  0.3161204606629012  0.5629672686502188  0.5352516092174042  1.0000
  H   H5        1.0  0.5050367498909978  0.27558693861251266  0.4889144322276167  1.0000
  H   H6        1.0  0.9949633396135624  0.7755889706110681  0.5110888518847858  1.0000
  H   H7        1.0  0.49496163545448  0.7244123126254962  0.5110850137025835  1.0000
  H   H8        1.0  0.005036355590490899  0.22441128124216894  0.48891082125331303  1.0000
  H   H9        1.0  0.5313697284251758  0.29319250269566066  0.7146247335903835  1.0000
  H   H10       1.0  0.9686317358468628  0.7931930037939025  0.2853788782907145  1.0000
  H   H11       1.0  0.46862996677888435  0.7068077491575693  0.2853749395477152  1.0000
  H   H12       1.0  0.03136795763607839  0.2068052468347474  0.7146216803933072  1.0000
  H   H13       1.0  0.1913178163556992  0.9146055437561242  0.7305534728126801  1.0000
  H   H14       1.0  0.3086808708028386  0.4146063770527705  0.2694461052416557  1.0000
  H   H15       1.0  0.808681878848361  0.0853947080971054  0.2694462003254188  1.0000
  H   H16       1.0  0.6913188226837901  0.5853938748034153  0.7305544534480787  1.0000
  H   H17       1.0  0.3275404611526582  0.9158430964434601  0.6466747891692249  1.0000
  H   H18       1.0  0.1724595404263667  0.41584434282865596  0.3533250231606003  1.0000
  H   H19       1.0  0.6724579241928197  0.08415615479454891  0.3533246567609751  1.0000
  H   H20       1.0  0.8275401564969656  0.5841569096354035  0.6466737644287264  1.0000
  C   C1        1.0  0.7189787619464096  0.13122484496125963  0.8924973019812299  1.0000
  C   C2        1.0  0.7810325891411977  0.6312259627693207  0.10750454568145065  1.0000
  C   C3        1.0  0.28102224311439267  0.8687754068934267  0.10750259836191839  1.0000
  C   C4        1.0  0.21896841591959762  0.3687742890853656  0.8924953546616976  1.0000
  C   C5        1.0  0.7687311430851551  0.011097558263117004  0.7036825968977283  1.0000
  C   C6        1.0  0.7312719076523706  0.5110958776476124  0.2963163157735735  1.0000
  C   C7        1.0  0.23126724054473868  0.9889026935916049  0.2963177345869639  1.0000
  C   C8        1.0  0.2687277858324109  0.48890337359480185  0.7036842429133046  1.0000
  C   C9        1.0  0.6895028016772784  0.1141448975989334  0.7557524932992835  1.0000
  C   C10       1.0  0.8105019371472794  0.6141439554748302  0.2442481207667271  1.0000
  C   C11       1.0  0.3104968935286222  0.8858563548680752  0.244247179841679  1.0000
  C   C12       1.0  0.1894977580549337  0.3858552957646353  0.7557515523685154  1.0000
  C   C13       1.0  0.8628219462958454  0.8955563672787861  0.775642302813111  1.0000
  C   C14       1.0  0.6371799108553942  0.3955547160946296  0.22435392382883623  1.0000
  C   C15       1.0  0.1371764373358957  0.10444488518970735  0.22435802867443747  1.0000
  C   C16       1.0  0.3628210942035607  0.6044445351462855  0.7756459765114555  1.0000
  C   C17       1.0  0.753360817543971  0.0145662583306603  0.5776212036250072  1.0000
  C   C18       1.0  0.7466383147024942  0.5145684352865131  0.4223779328080184  1.0000
  C   C19       1.0  0.24663887594081754  0.9854329929117539  0.4223793550618709  1.0000
  C   C20       1.0  0.2533600689255593  0.4854308159544443  0.5776223986738173  1.0000
  C   C21       1.0  0.581545407468475  0.2031547627767623  0.5528266428763189  1.0000
  C   C22       1.0  0.9184531102619714  0.7031542863488768  0.4471733436156313  1.0000
  C   C23       1.0  0.41845428773558524  0.7968454890764746  0.44717303026178706  1.0000
  C   C24       1.0  0.08154527508350638  0.2968449648891323  0.5528261023145616  1.0000
  C   C25       1.0  0.5939489211367074  0.21144827201903377  0.6777019749673627  1.0000
  C   C26       1.0  0.9060535550276966  0.7114489521580084  0.32229962606957224  1.0000
  C   C27       1.0  0.4060507740673528  0.7885519798342032  0.3222976981707433  1.0000
  C   C28       1.0  0.09394614017451629  0.2885502990814572  0.6777000470656773  1.0000
  N   N1        1.0  0.6621937227971555  0.10745994160271981  0.5029909172309885  1.0000
  N   N2        1.0  0.8378005142441082  0.6074597109036687  0.49700695545865864  1.0000
  N   N3        1.0  0.3378046625520098  0.8925413108628322  0.4970085287049244  1.0000
  N   N4        1.0  0.1621965612446274  0.39253954033288346  0.502992263266492  1.0000
  O   O1        1.0  0.8002822674811155  0.8463154116164944  0.8603038138154488  1.0000
  O   O2        1.0  0.6997207110941234  0.3463102616655577  0.139695900949647  1.0000
  O   O3        1.0  0.19971742600367284  0.1536838396259199  0.13969674487142916  1.0000
  O   O4        1.0  0.30028029224371267  0.6536869883507778  0.8603048849365605  1.0000
  O   O5        1.0  0.9959150928925239  0.8458308430137436  0.7473781991618864  1.0000
  O   O6        1.0  0.5040826547857478  0.3458322398000888  0.2526152907239165  1.0000
  O   O7        1.0  0.0040846023115364  0.1541694088394863  0.2526214739762196  1.0000
  O   O8        1.0  0.4959170421338897  0.6541670114364279  0.7473834968596903  1.0000
  O   O9        1.0  0.619325078366728  0.07007146554558827  0.9480087678019588  1.0000
  O   O10       1.0  0.8806716388173467  0.5700723200922084  0.05199023127883608  1.0000
  O   O11       1.0  0.3806785446901201  0.9299287863149603  0.05199247250292418  1.0000
  O   O12       1.0  0.1193293662434485  0.4299279317624851  0.9480096690643123  1.0000
  O   O13       1.0  0.8413129096021663  0.2096391650019598  0.9394255691144763  1.0000
  O   O14       1.0  0.6587000370523127  0.7096528477839641  0.06057872481746069  1.0000
  O   O15       1.0  0.1586894087502202  0.7903610868482929  0.0605727873304431  1.0000
  O   O16       1.0  0.34130227614963365  0.2903484046888991  0.9394222882852289  1.0000
  O   O17       1.0  0.3134437465950626  0.938318154650318  0.7307496975909514  1.0000
  O   O18       1.0  0.1865563361334281  0.4383188563059124  0.26925112867291995  1.0000
  O   O19       1.0  0.6865572584657398  0.0616820972043683  0.26925020275219674  1.0000
  O   O20       1.0  0.8134433590724723  0.561682396161089  0.7307485444680423  1.0000
