data_image0
_chemical_formula_structural       Al4H10C38O20
_chemical_formula_sum              "Al4 H10 C38 O20"
_cell_length_a       6.694881915089227
_cell_length_b       19.568390069005503
_cell_length_c       21.374377129152613
_cell_angle_alpha    86.66392268930183
_cell_angle_beta     89.42653204596635
_cell_angle_gamma    89.50477094001207

_space_group_name_H-M_alt    "P 1"
_space_group_IT_number       1

loop_
  _space_group_symop_operation_xyz
  'x, y, z'

loop_
  _atom_site_type_symbol
  _atom_site_label
  _atom_site_symmetry_multiplicity
  _atom_site_fract_x
  _atom_site_fract_y
  _atom_site_fract_z
  _atom_site_occupancy
  Al  Al1       1.0  0.7570396315273057  0.2649510690630237  0.2621793484059863  1.0000
  Al  Al2       1.0  0.24295970086231478  0.7350490366695083  0.7378198026408141  1.0000
  Al  Al3       1.0  0.25599921055149366  0.2648776326588802  0.2621825947159521  1.0000
  Al  Al4       1.0  0.7440016035812176  0.7351224802326681  0.7378151465390272  1.0000
  H   H1        1.0  0.3392438634002416  0.9560771580513076  0.9822241783471737  1.0000
  H   H2        1.0  0.6607554984725609  0.04392192156024069  0.0177754909006822  1.0000
  H   H3        1.0  0.21674330988530235  0.09504790822606415  0.9639962425496618  1.0000
  H   H4        1.0  0.7832590267300503  0.9049516837705767  0.03600338971411788  1.0000
  H   H5        1.0  0.8706066694877351  0.05243182647195968  0.9014957855180721  1.0000
  H   H6        1.0  0.12939265415980833  0.9475687888610477  0.09850380835899127  1.0000
  H   H7        1.0  0.509003156611378  0.17572684656487064  0.2587743192412688  1.0000
  H   H8        1.0  0.4909992294855812  0.8242717077773776  0.7412281709928618  1.0000
  H   H9        1.0  0.003986694519994701  0.35273918243919394  0.2745559869285826  1.0000
  H   H10       1.0  0.9960142225756244  0.6472588528368843  0.7254479382209664  1.0000
  C   C1        1.0  0.5074061368325075  0.3487570419163503  0.17459624928707737  1.0000
  C   C2        1.0  0.49259473226689465  0.651241021039908  0.8254020604161452  1.0000
  C   C3        1.0  0.5014682843010618  0.3452619246776222  0.34437551868838767  1.0000
  C   C4        1.0  0.49853106957237253  0.6547371595472881  0.6556232146517472  1.0000
  C   C5        1.0  0.005978395259099003  0.17771496041961393  0.34766142063329397  1.0000
  C   C6        1.0  0.994019451387743  0.8222851404605862  0.6523386722514741  1.0000
  C   C7        1.0  0.011264100311720399  0.18481461505057686  0.1804514517070146  1.0000
  C   C8        1.0  0.98873669233717  0.815186519348593  0.8195467072546305  1.0000
  C   C9        1.0  0.9280699591033326  0.029775799081285487  0.9457562808223867  1.0000
  C   C10       1.0  0.07192637306023637  0.9702248180804603  0.05424285696130229  1.0000
  C   C11       1.0  0.12063128387551807  0.05233906296501797  0.9795015342361921  1.0000
  C   C12       1.0  0.8793695549980001  0.9476605310993376  0.020497636003966587  1.0000
  C   C13       1.0  0.012507555337975903  0.13758884309800115  0.13144885854828198  1.0000
  C   C14       1.0  0.9874916933444524  0.862413833703705  0.8685478271112428  1.0000
  C   C15       1.0  0.8111843868609299  0.02395530277527059  0.0094662536507144  1.0000
  C   C16       1.0  0.18881494552868364  0.976044802957261  0.990532897396086  1.0000
  C   C17       1.0  0.0032260210287802004  0.04796499435208549  0.044417343480780885  1.0000
  C   C18       1.0  0.9967718008772553  0.9520356253553146  0.9555813204188081  1.0000
  C   C19       1.0  0.009033405583338098  0.09638297383781948  0.09086917165159747  1.0000
  C   C20       1.0  0.9909658638402165  0.9036191864433715  0.9091284750392459  1.0000
  C   C21       1.0  0.9948191647295063  0.8758924274805578  0.6031910672909503  1.0000
  C   C22       1.0  0.005177190689472897  0.12410868082820765  0.39681225695388617  1.0000
  C   C23       1.0  0.9967479024262287  0.9236353136359622  0.5633883552431269  1.0000
  C   C24       1.0  0.0032468533168952007  0.07636989199773579  0.4366143059893303  1.0000
  C   C25       1.0  0.9989280798828376  0.975895394836371  0.5199232931884693  1.0000
  C   C26       1.0  0.0010697088265060996  0.024108775927558695  0.4800817461999997  1.0000
  C   C27       1.0  0.5072938299860112  0.39525888102657086  0.11978177619161558  1.0000
  C   C28       1.0  0.4927114781148987  0.6047407206747407  0.8802159723962362  1.0000
  C   C29       1.0  0.5048207009035365  0.4353855007781532  0.07349777414429329  1.0000
  C   C30       1.0  0.49518313568174926  0.5646125741894535  0.9264981839291405  1.0000
  C   C31       1.0  0.501670266483984  0.4795438048258446  0.023074628875860998  1.0000
  C   C32       1.0  0.4983335748436772  0.5204537628479782  0.9769204184134562  1.0000
  C   C33       1.0  0.4993824310039087  0.39269747892409157  0.39346797936375555  1.0000
  C   C34       1.0  0.5006183831288027  0.6073026339674639  0.6065297618912238  1.0000
  C   C35       1.0  0.4994692383947381  0.43407797716562146  0.4344478383646971  1.0000
  C   C36       1.0  0.5005375299654418  0.5659226532023282  0.5655489181380061  1.0000
  C   C37       1.0  0.4997724217840726  0.47925307517640886  0.4793325716568899  1.0000
  C   C38       1.0  0.5002358698014504  0.5207465293095268  0.5206646971166151  1.0000
  O   O1        1.0  0.33205009180215933  0.32694341244722114  0.32495352139649464  1.0000
  O   O2        1.0  0.6679492533292118  0.6730561813781575  0.6750456547739033  1.0000
  O   O3        1.0  0.6777740092620236  0.3308984114717503  0.19613744305445374  1.0000
  O   O4        1.0  0.32222833609539253  0.6691006709244218  0.8038617463790556  1.0000
  O   O5        1.0  0.8402504333418789  0.20331110119838056  0.20051699978571233  1.0000
  O   O6        1.0  0.15975188653203526  0.7966890050120977  0.7994821394006093  1.0000
  O   O7        1.0  0.6728981032952673  0.3270708578911509  0.32469293694269646  1.0000
  O   O8        1.0  0.3270997815768268  0.6729277072675969  0.6753072313128567  1.0000
  O   O9        1.0  0.8353643511301386  0.19824236286139296  0.328159495032537  1.0000
  O   O10       1.0  0.1646364662595587  0.8017582527105843  0.6718400929142944  1.0000
  O   O11       1.0  0.3366821695533985  0.33094072198227303  0.19631906349614772  1.0000
  O   O12       1.0  0.6633186573210706  0.6690588790021224  0.803678702882429  1.0000
  O   O13       1.0  0.5075407969564195  0.22467853480173258  0.26341217954533386  1.0000
  O   O14       1.0  0.4924600546588493  0.77532054735547  0.7365870158184149  1.0000
  O   O15       1.0  0.17684984279880211  0.19797148997429298  0.3280150728384327  1.0000
  O   O16       1.0  0.8231480173324853  0.8020275940116474  0.6719836664319414  1.0000
  O   O17       1.0  0.18035928203482138  0.20333546536417654  0.20024233845159498  1.0000
  O   O18       1.0  0.8196430210976615  0.7966651550601326  0.7997563076572758  1.0000
  O   O19       1.0  0.005528425952910298  0.3059120457318158  0.2621086758849883  1.0000
  O   O20       1.0  0.9944724169202884  0.6940875460258553  0.7378909623090234  1.0000
