data_image0
_chemical_formula_structural       Sr8H92C124N20O76
_chemical_formula_sum              "Sr8 H92 C124 N20 O76"
_cell_length_a       13.661552554491227
_cell_length_b       16.191103743220893
_cell_length_c       26.860637313418703
_cell_angle_alpha    107.5443553130471
_cell_angle_beta     103.24522101846664
_cell_angle_gamma    89.98987078640461

_space_group_name_H-M_alt    "P 1"
_space_group_IT_number       1

loop_
  _space_group_symop_operation_xyz
  'x, y, z'

loop_
  _atom_site_type_symbol
  _atom_site_label
  _atom_site_symmetry_multiplicity
  _atom_site_fract_x
  _atom_site_fract_y
  _atom_site_fract_z
  _atom_site_occupancy
  Sr  Sr1       1.0  0.7035795069250811  0.9593389674887901  0.7662337912034403  1.0000
  Sr  Sr2       1.0  0.20386687225877154  0.8066659333915567  0.7662283689405953  1.0000
  Sr  Sr3       1.0  0.6811907528998377  0.5741726479094852  0.18746639104838886  1.0000
  Sr  Sr4       1.0  0.18110440050166693  0.6137115070243482  0.18744744883676392  1.0000
  Sr  Sr5       1.0  0.4776379095732752  0.6903996331734773  0.2690557310357988  1.0000
  Sr  Sr6       1.0  0.9776938630849727  0.5791386183900896  0.2691910000762121  1.0000
  Sr  Sr7       1.0  0.9745149311808634  0.9009778437672011  0.8386588196487637  1.0000
  Sr  Sr8       1.0  0.47459803436506587  0.937468827332232  0.83873248571998  1.0000
  H   H1        1.0  0.6631928014042645  0.9378369675665752  0.954557486524422  1.0000
  H   H2        1.0  0.16311783251051537  0.016499432530046872  0.954545040495475  1.0000
  H   H3        1.0  0.8470066728489911  0.7576243917443364  0.871074745860895  1.0000
  H   H4        1.0  0.3470623271491462  0.11313383598883307  0.8711138313310939  1.0000
  H   H5        1.0  0.8762731638952845  0.6871356819772528  0.9431473508130637  1.0000
  H   H6        1.0  0.3762558507868975  0.25572946001342695  0.9431543117002475  1.0000
  H   H7        1.0  0.9923263234987091  0.7599861764622632  0.15030575108871602  1.0000
  H   H8        1.0  0.4924281760373574  0.39043582888971423  0.15030014083027507  1.0000
  H   H9        1.0  0.9327864850552032  0.8283994392040411  0.0784336590728145  1.0000
  H   H10       1.0  0.4330341879692837  0.2500396966327187  0.07854374734722568  1.0000
  H   H11       1.0  0.7614636911863996  0.5516146678813598  0.06912035718809756  1.0000
  H   H12       1.0  0.26105857994896553  0.5171649137419152  0.06906675392464479  1.0000
  H   H13       1.0  0.6148065637966412  0.3070083218604864  0.19250708487968637  1.0000
  H   H14       1.0  0.11440338304237227  0.8857476440457149  0.1925342522309776  1.0000
  H   H15       1.0  0.5904745215158301  0.1494996671644913  0.1800462457216625  1.0000
  H   H16       1.0  0.09005689666118143  0.030730895990736005  0.1799775399140842  1.0000
  H   H17       1.0  0.9056755885569957  0.31796565609997174  0.29847177574101386  1.0000
  H   H18       1.0  0.4054018199287128  0.9808232524729023  0.298356108613703  1.0000
  H   H19       1.0  0.587003872877176  0.07636032374298193  0.25879275122272816  1.0000
  H   H20       1.0  0.0864231574933996  0.18279777742630188  0.2586071694045629  1.0000
  H   H21       1.0  0.5370141058105061  0.9214103385181572  0.24407918099110043  1.0000
  H   H22       1.0  0.03662519832955981  0.3230488300483286  0.24387593472420113  1.0000
  H   H23       1.0  0.7799381427572173  0.8425453509244817  0.16789853189384724  1.0000
  H   H24       1.0  0.27984298254544626  0.3256616798321019  0.1679198946888718  1.0000
  H   H25       1.0  0.09458096736229753  0.2147535807848157  0.8719504151162099  1.0000
  H   H26       1.0  0.595003791894584  0.6570128140677622  0.8719119798098658  1.0000
  H   H27       1.0  0.08923722281167565  0.3597310814427955  0.8580472139162865  1.0000
  H   H28       1.0  0.5894491820687692  0.4981613740227572  0.8582078984433393  1.0000
  H   H29       1.0  0.8011868510655519  0.13972559357439698  0.7655131642682774  1.0000
  H   H30       1.0  0.30179016982724965  0.6256279878303912  0.7653167051697025  1.0000
  H   H31       1.0  0.9278235570638386  0.7605126889628051  0.36954911042210625  1.0000
  H   H32       1.0  0.42804540040410194  0.6092535183043637  0.3696149463399223  1.0000
  H   H33       1.0  0.7219463649179333  0.6768053449158558  0.4793038392319957  1.0000
  H   H34       1.0  0.22174158136598274  0.8023119848645874  0.47931974034950287  1.0000
  H   H35       1.0  0.6580737272738588  0.6355159057837199  0.380373740676184  1.0000
  H   H36       1.0  0.15813471333319032  0.7449975637171633  0.380368491661116  1.0000
  H   H37       1.0  0.0374260452301272  0.7291674024055652  0.651670263350539  1.0000
  H   H38       1.0  0.5367794121587508  0.9225753799105972  0.6517366362773273  1.0000
  H   H39       1.0  0.8025082019667097  0.9042646148188282  0.6437137290271338  1.0000
  H   H40       1.0  0.3023686306453044  0.7390775784931448  0.643758006598425  1.0000
  H   H41       1.0  0.7736149933560484  0.8592143476008118  0.5443193188467461  1.0000
  H   H42       1.0  0.27358889395895153  0.6847022619495603  0.5443460398234378  1.0000
  H   H43       1.0  0.11317172354446113  0.5337086902247421  0.7564651734195778  1.0000
  H   H44       1.0  0.6128783728312258  0.2223101968156912  0.7565271005942549  1.0000
  H   H45       1.0  0.06935079233005582  0.3836564927526496  0.7550740108506774  1.0000
  H   H46       1.0  0.5691853299225259  0.3710066549911558  0.7551564248839426  1.0000
  H   H47       1.0  0.8865459736422495  0.629291820935947  0.8415817373268126  1.0000
  H   H48       1.0  0.3862125445353329  0.2120788467515806  0.8416528105192569  1.0000
  H   H49       1.0  0.33991655561427353  0.5315377323445105  0.9753440061040806  1.0000
  H   H50       1.0  0.839880226601693  0.44375171695664034  0.9754977816781149  1.0000
  H   H51       1.0  0.4243629588293061  0.4525003529744253  0.9536765365418205  1.0000
  H   H52       1.0  0.9239232747750848  0.5011406454486007  0.9536197077642187  1.0000
  H   H53       1.0  0.44013668997606464  0.5589391526291009  0.9486615577597561  1.0000
  H   H54       1.0  0.9401627954187151  0.38978524913670043  0.9487863384095406  1.0000
  H   H55       1.0  0.49609221657942026  0.6813266223562238  0.03595698045494091  1.0000
  H   H56       1.0  0.9965573974937882  0.35509476393887246  0.03609653939770397  1.0000
  H   H57       1.0  0.5510411573581209  0.6527279715403083  0.094939044059366  1.0000
  H   H58       1.0  0.051589687709167706  0.4427934581839422  0.0949906547692052  1.0000
  H   H59       1.0  0.4167476639668806  0.6499690485980449  0.0728574764713414  1.0000
  H   H60       1.0  0.9173060821876361  0.4233109993458228  0.073104430141214  1.0000
  H   H61       1.0  0.5351068723341897  0.42601368232551823  0.014357687470010209  1.0000
  H   H62       1.0  0.0347310968494767  0.588641880262955  0.014185485862299172  1.0000
  H   H63       1.0  0.0075909812081676135  0.9169742111143933  0.010451767683740334  1.0000
  H   H64       1.0  0.5077136708533276  0.09335408007852661  0.010539617182750805  1.0000
  H   H65       1.0  0.8646209433454147  0.13890197589385173  0.0007150600519594155  1.0000
  H   H66       1.0  0.364676208498345  0.8619327528614418  0.001038684853497806  1.0000
  H   H67       1.0  0.9582968782097582  0.11017053196165703  0.9626763057666423  1.0000
  H   H68       1.0  0.4586280949177281  0.8521349415584397  0.963130523552799  1.0000
  H   H69       1.0  0.8381235133988268  0.05136895168209319  0.9390440676984753  1.0000
  H   H70       1.0  0.33863938713677305  0.8874428114017406  0.939269505952268  1.0000
  H   H71       1.0  0.8441270964266749  0.04896502766712269  0.06253562241515448  1.0000
  H   H72       1.0  0.34442173869519616  0.013604658021421303  0.0626648752515351  1.0000
  H   H73       1.0  0.9562370537969825  0.9963922308440799  0.07846059010725527  1.0000
  H   H74       1.0  0.45647853228520324  0.0821399816288277  0.0785517087505525  1.0000
  H   H75       1.0  0.9645835112462179  0.10934648400530017  0.08610523081830478  1.0000
  H   H76       1.0  0.46493353244675006  0.9769203377722562  0.0863530555022436  1.0000
  H   H77       1.0  0.5684973545265707  0.5230385681030751  0.2853334943136119  1.0000
  H   H78       1.0  0.0687516285918122  0.7625481537123306  0.2853697086735423  1.0000
  H   H79       1.0  0.45849943792965325  0.4988189500249973  0.2856277159292375  1.0000
  H   H80       1.0  0.9589168529446966  0.7872565732747033  0.2858987818638212  1.0000
  H   H81       1.0  0.5111843553950662  0.8317281567902483  0.4019670017730305  1.0000
  H   H82       1.0  0.011435607022079405  0.570464945438097  0.4020690257077391  1.0000
  H   H83       1.0  0.44727718911679665  0.841437375872033  0.34739956604639843  1.0000
  H   H84       1.0  0.947441472026057  0.5062860434967931  0.3474903683137782  1.0000
  H   H85       1.0  0.7523013134676974  0.8045530608062846  0.7006443694838679  1.0000
  H   H86       1.0  0.25211333722618434  0.8962533885405577  0.7006951072720754  1.0000
  H   H87       1.0  0.6565274292916499  0.7523232885122156  0.7019606885111785  1.0000
  H   H88       1.0  0.156269553905318  0.9497323620190697  0.7021201543370807  1.0000
  H   H89       1.0  0.6996565234651441  0.08112936738415033  0.6881066327311203  1.0000
  H   H90       1.0  0.1994511833873815  0.6067755023471973  0.6881315450395107  1.0000
  H   H91       1.0  0.6628876233944326  0.9902668107938054  0.6453574677825529  1.0000
  H   H92       1.0  0.1630696811781505  0.6548764313541681  0.6453181984279013  1.0000
  C   C1        1.0  0.7106401333848923  0.8833735051193514  0.9519659576015512  1.0000
  C   C2        1.0  0.21065885549332117  0.06831017746790012  0.9519814888989657  1.0000
  C   C3        1.0  0.7331729827650122  0.8903600161245181  0.8625748313800871  1.0000
  C   C4        1.0  0.23329161559977515  0.9719820742356333  0.8626160995978367  1.0000
  C   C5        1.0  0.7520619012855787  0.851111034079686  0.9076541383450801  1.0000
  C   C6        1.0  0.2521748220839584  0.056243606204091544  0.9077037221116554  1.0000
  C   C7        1.0  0.8124849913883097  0.7808840137609109  0.9050972932246921  1.0000
  C   C8        1.0  0.312577457224002  0.12390432746625638  0.9051411282334173  1.0000
  C   C9        1.0  0.8292300746854763  0.7418743813240666  0.9456207909751555  1.0000
  C   C10       1.0  0.32934396991884546  0.20343692231910643  0.9456704949838155  1.0000
  C   C11       1.0  0.785841826393046  0.7710237389332519  0.9896647418097118  1.0000
  C   C12       1.0  0.2859611305851787  0.2183179193049509  0.9897092931413453  1.0000
  C   C13       1.0  0.7280548770204761  0.8434889192982808  0.9921737525365515  1.0000
  C   C14       1.0  0.22806040077278314  0.14840371543142067  0.9921888130100881  1.0000
  C   C15       1.0  0.9131264984285609  0.6147019310616315  0.16013610983333848  1.0000
  C   C16       1.0  0.4129299316069678  0.5455924832586803  0.16000010262875014  1.0000
  C   C17       1.0  0.8800964571370002  0.652349263969093  0.11491824499594826  1.0000
  C   C18       1.0  0.37990889117552484  0.4625186637035838  0.114938614521968  1.0000
  C   C19       1.0  0.9287438335314276  0.7295607834229118  0.11663533300871617  1.0000
  C   C20       1.0  0.4287135747786124  0.38706944214890626  0.11667352382568907  1.0000
  C   C21       1.0  0.8953651234000902  0.7675772979809138  0.07629529547953952  1.0000
  C   C22       1.0  0.39543710045808217  0.3086379220537053  0.0763773997593162  1.0000
  C   C23       1.0  0.8129214635801959  0.7299903803068161  0.033085222212079726  1.0000
  C   C24       1.0  0.31298482300655917  0.3028386416022713  0.033129148753808096  1.0000
  C   C25       1.0  0.768708685614179  0.6502293274677414  0.03103263313862929  1.0000
  C   C26       1.0  0.2685705547348931  0.38049671486576386  0.031056882423442303  1.0000
  C   C27       1.0  0.8003692996151343  0.6117787831609576  0.0713110186978696  1.0000
  C   C28       1.0  0.30008214057665583  0.4592631769832067  0.07132313379897681  1.0000
  C   C29       1.0  0.7793289093009294  0.4176061651533374  0.2498943332568615  1.0000
  C   C30       1.0  0.2791423141732849  0.8326737174045675  0.249935768761496  1.0000
  C   C31       1.0  0.7625849137451793  0.3231177748171347  0.24527117718278643  1.0000
  C   C32       1.0  0.2622378867548747  0.9224753999284445  0.2452644985947003  1.0000
  C   C33       1.0  0.6734506190090741  0.2746261359517348  0.21278033779719863  1.0000
  C   C34       1.0  0.1730105165954257  0.9384230307129826  0.21280755739859814  1.0000
  C   C35       1.0  0.6599119132534524  0.1863826061465871  0.20602766178329546  1.0000
  C   C36       1.0  0.15943988631318726  0.019891282578953482  0.20600920167289163  1.0000
  C   C37       1.0  0.7341749758006914  0.14293599648636499  0.23160583036566607  1.0000
  C   C38       1.0  0.2337194549576083  0.08893083733298816  0.2315258424514965  1.0000
  C   C39       1.0  0.8214098592337821  0.19374131044975942  0.265954497063035  1.0000
  C   C40       1.0  0.3209859813247817  0.0725098476013528  0.2658830522694515  1.0000
  C   C41       1.0  0.8363979953400857  0.281711507459704  0.2721812418654324  1.0000
  C   C42       1.0  0.33600707972497185  0.9908105487027327  0.27214905640379067  1.0000
  C   C43       1.0  0.7118249390550417  0.048749304479755964  0.2215798536048794  1.0000
  C   C44       1.0  0.211383044288155  0.17307878710837338  0.2214729355618061  1.0000
  C   C45       1.0  0.6287044472286142  0.02523960440517928  0.23807719671471264  1.0000
  C   C46       1.0  0.12817939535385392  0.21310910357278354  0.23787810107562282  1.0000
  C   C47       1.0  0.6012000407751402  0.9386793579483309  0.23052429842797298  1.0000
  C   C48       1.0  0.10080510078397958  0.29215266239555143  0.23034067746501558  1.0000
  C   C49       1.0  0.6561419675356321  0.8722262361023353  0.20588128290900437  1.0000
  C   C50       1.0  0.15583589465920517  0.3340258598901329  0.20578796602026017  1.0000
  C   C51       1.0  0.7381065225896251  0.8938042432436645  0.18819698752301406  1.0000
  C   C52       1.0  0.23782014427068535  0.29471775748778123  0.1881397047316682  1.0000
  C   C53       1.0  0.7647117353014109  0.9805423583680479  0.19568953208442244  1.0000
  C   C54       1.0  0.26436795923078904  0.21544164874819668  0.1956460057228142  1.0000
  C   C55       1.0  0.9476115843044398  0.08420473707280256  0.8329647094289498  1.0000
  C   C56       1.0  0.4482386622290591  0.7485678431598543  0.8327427711609943  1.0000
  C   C57       1.0  0.9470741973530963  0.1688481412954914  0.8208853758259522  1.0000
  C   C58       1.0  0.44751315675936365  0.6518964022420165  0.8208184793544576  1.0000
  C   C59       1.0  0.029452248898749638  0.2301704969117534  0.8452673516488076  1.0000
  C   C60       1.0  0.5297854393801843  0.6149457537862233  0.8453129468357332  1.0000
  C   C61       1.0  0.02661983167924123  0.31087287607014935  0.836762885727765  1.0000
  C   C62       1.0  0.52681501575168  0.5257581387224802  0.8369354664374882  1.0000
  C   C63       1.0  0.9438656556593942  0.3315989086846897  0.8019860512892477  1.0000
  C   C64       1.0  0.4440370242966126  0.4702593945303875  0.8022030340096222  1.0000
  C   C65       1.0  0.8660066087900162  0.2655937840191384  0.7739971663368763  1.0000
  C   C66       1.0  0.3663012379320207  0.5082688995392389  0.7741122511042349  1.0000
  C   C67       1.0  0.8656120412799667  0.18677923297119733  0.7848154745475212  1.0000
  C   C68       1.0  0.36607825774675723  0.5979032770605242  0.7847636682796448  1.0000
  C   C69       1.0  0.7531135604694228  0.6659841533302285  0.3080113574475689  1.0000
  C   C70       1.0  0.2532143929390572  0.6423061038848843  0.3080094790127035  1.0000
  C   C71       1.0  0.7888772447590073  0.6943634663655162  0.3680554806870687  1.0000
  C   C72       1.0  0.28899616259226246  0.6738767266355622  0.36804366992143395  1.0000
  C   C73       1.0  0.8813485722765294  0.7420728350065459  0.3929820501374905  1.0000
  C   C74       1.0  0.3814709841747971  0.6511008294359113  0.3930048608413016  1.0000
  C   C75       1.0  0.9156552741491737  0.7662120241178767  0.44869920189380247  1.0000
  C   C76       1.0  0.4156202291458655  0.6825090765746396  0.44873918735414964  1.0000
  C   C77       1.0  0.8606470955866004  0.7418383781828338  0.481071481653629  1.0000
  C   C78       1.0  0.36048497269708696  0.7390848595481997  0.481125037849786  1.0000
  C   C79       1.0  0.7666823863427155  0.6956627905826523  0.4551471966719022  1.0000
  C   C80       1.0  0.2665684265559847  0.7593842631846498  0.4551690236675014  1.0000
  C   C81       1.0  0.7307718665757434  0.6724366221078668  0.39957060501334496  1.0000
  C   C82       1.0  0.23080386671297506  0.7271937217435962  0.399567488161864  1.0000
  C   C83       1.0  0.9383572525088582  0.8482672965447904  0.7142220812949418  1.0000
  C   C84       1.0  0.4379252979965571  0.8658410815203936  0.7142501801332345  1.0000
  C   C85       1.0  0.8879333468275165  0.7676239057061806  0.540731907639703  1.0000
  C   C86       1.0  0.38770563771948474  0.7728773156605014  0.5407940104015339  1.0000
  C   C87       1.0  0.9616417300519587  0.7315011940660056  0.572426151237238  1.0000
  C   C88       1.0  0.46116947895754384  0.8408847659941401  0.5724855624269054  1.0000
  C   C89       1.0  0.979943899635785  0.7580030039641057  0.6282991980691222  1.0000
  C   C90       1.0  0.479400720554473  0.8703140814490098  0.6283484294608854  1.0000
  C   C91       1.0  0.9220808844074924  0.8199691993183648  0.6541504046386136  1.0000
  C   C92       1.0  0.42165627956060814  0.8340541014644457  0.6541803031186575  1.0000
  C   C93       1.0  0.8473549595676461  0.8556327484655881  0.6234409970567611  1.0000
  C   C94       1.0  0.34710586139996735  0.767539247561608  0.6234801493251325  1.0000
  C   C95       1.0  0.8313906635075057  0.8302011981368693  0.5677011752417087  1.0000
  C   C96       1.0  0.3312418628173432  0.7371732465449624  0.5677426425527585  1.0000
  C   C97       1.0  0.03646550943310702  0.6832655452067656  0.8040581754748786  1.0000
  C   C98       1.0  0.5360345615793635  0.1205058399547737  0.8042323274330697  1.0000
  C   C99       1.0  0.004275322975338722  0.5915728580443298  0.7999003863363185  1.0000
  C   C100      1.0  0.5039763912129445  0.2080243717920283  0.7999964155102575  1.0000
  C   C101      1.0  0.053707683995867214  0.521289787058407  0.7747326398509883  1.0000
  C   C102      1.0  0.5534542078165359  0.25304131454184636  0.774807681051449  1.0000
  C   C103      1.0  0.028258998087586917  0.43743787506539883  0.7736597654928586  1.0000
  C   C104      1.0  0.5281135585662825  0.3358711450294294  0.7737773533123828  1.0000
  C   C105      1.0  0.9521210234450806  0.42014430966977995  0.7971664974805533  1.0000
  C   C106      1.0  0.45215234441265295  0.37685261588813285  0.7973867095196921  1.0000
  C   C107      1.0  0.9014826203931109  0.4916812857732538  0.8213199883372582  1.0000
  C   C108      1.0  0.40142217147245424  0.3295069919537356  0.8215145470931163  1.0000
  C   C109      1.0  0.926811909003071  0.5757625544866513  0.8224583174616524  1.0000
  C   C110      1.0  0.42656473207105716  0.24648733953188895  0.8225694250668525  1.0000
  C   C111      1.0  0.6285546549731507  0.7786553219343302  0.1992564521724418  1.0000
  C   C112      1.0  0.12829455140271054  0.4210221375474461  0.19924869345480542  1.0000
  C   C113      1.0  0.41853861202854153  0.5217218399978947  0.9730786660689077  1.0000
  C   C114      1.0  0.9184210566331856  0.451427616125322  0.9731439525173826  1.0000
  C   C115      1.0  0.4874011163365708  0.638233908628301  0.05961142818885182  1.0000
  C   C116      1.0  0.9878271019377324  0.4218575657497042  0.05973967845569921  1.0000
  C   C117      1.0  0.5445514062642972  0.4916120379676556  0.0440740842080913  1.0000
  C   C118      1.0  0.044334935996765495  0.5529193173559648  0.043979637705547185  1.0000
  C   C119      1.0  0.9804650418120175  0.9571170466238  0.983965379792501  1.0000
  C   C120      1.0  0.4807251680834669  0.026681962315066664  0.984074421102406  1.0000
  C   C121      1.0  0.896612372751399  0.08491980497429798  0.9753130970629087  1.0000
  C   C122      1.0  0.3969677128547319  0.8902512248358858  0.9756232539877273  1.0000
  C   C123      1.0  0.9238740514122911  0.046603098199661  0.06128391516586619  1.0000
  C   C124      1.0  0.4242045344395322  0.014715292492375895  0.061452965314181485  1.0000
  N   N1        1.0  0.8503706795203952  0.9985348588700234  0.17544384220348516  1.0000
  N   N2        1.0  0.35012921767965116  0.17724625658620136  0.17549459159449296  1.0000
  N   N3        1.0  0.6814345402463785  0.8785448223713246  0.03751455736120585  1.0000
  N   N4        1.0  0.18137744779344436  0.15873627918718108  0.0375175060973518  1.0000
  N   N5        1.0  0.6835297050181807  0.605480196981567  0.9867102774509746  1.0000
  N   N6        1.0  0.18343506086957015  0.3809945629490768  0.9867213960044481  1.0000
  N   N7        1.0  0.901492134472079  0.15551860407381918  0.2970391159365633  1.0000
  N   N8        1.0  0.4010075452432886  0.14183070939373724  0.2969655216253102  1.0000
  N   N9        1.0  0.7821292541998232  0.27730228530416656  0.7325506166546275  1.0000
  N   N10       1.0  0.28244607551327044  0.4551241442025073  0.7326462873586195  1.0000
  N   N11       1.0  0.013275775118735593  0.8172354957212633  0.47177199562140965  1.0000
  N   N12       1.0  0.5131897160779814  0.6545055515245151  0.4718741652591588  1.0000
  N   N13       1.0  0.8222235053949376  0.4815894127244105  0.8482527055007623  1.0000
  N   N14       1.0  0.322207225348862  0.3666523694833685  0.8484604362500505  1.0000
  N   N15       1.0  0.4856688247142955  0.54815468127822  0.02664903463914921  1.0000
  N   N16       1.0  0.9856987001144119  0.4788612359330386  0.026682245665192308  1.0000
  N   N17       1.0  0.9338690106111542  0.026107178504716427  0.006154503900774013  1.0000
  N   N18       1.0  0.4342746527828467  0.9799250685244161  0.0063397516678947025  1.0000
  N   N19       1.0  0.022688404417856096  0.6649478040420007  0.5468547161072195  1.0000
  N   N20       1.0  0.5222436883148021  0.8818049839080543  0.5468927188612938  1.0000
  O   O1        1.0  0.9087371826997882  0.9400828975548378  0.16466596112952203  1.0000
  O   O2        1.0  0.4086312908062482  0.2250103887180543  0.16488247806164938  1.0000
  O   O3        1.0  0.785877581852354  0.8660641874835449  0.8278249872259379  1.0000
  O   O4        1.0  0.2860594678931109  0.9615242676548375  0.8279000458536031  1.0000
  O   O5        1.0  0.8820556137503175  0.08352639595918283  0.3014606278153877  1.0000
  O   O6        1.0  0.3813675352220756  0.21826277702832897  0.3015816689712736  1.0000
  O   O7        1.0  0.6675706770563535  0.9456990354166804  0.8603129831383426  1.0000
  O   O8        1.0  0.16757561700601536  0.9144291159869126  0.8602820778997183  1.0000
  O   O9        1.0  0.6739598076734554  0.5248618251711858  0.97334980808008  1.0000
  O   O10       1.0  0.17406389430025374  0.4482213665897631  0.973314791772779  1.0000
  O   O11       1.0  0.6657728500205949  0.9571212240607849  0.04993273310710581  1.0000
  O   O12       1.0  0.16534685465032342  0.09255562564551668  0.049831211825754486  1.0000
  O   O13       1.0  0.6596097594168951  0.8281955391829641  0.060879886763359474  1.0000
  O   O14       1.0  0.15988652189996339  0.2325272587337466  0.06098616516398889  1.0000
  O   O15       1.0  0.0011446583113751895  0.638765797297495  0.1904354609810922  1.0000
  O   O16       1.0  0.5010607843129904  0.5520493321154021  0.19021377753358593  1.0000
  O   O17       1.0  0.8525512979805967  0.5624000358017085  0.1675192189737942  1.0000
  O   O18       1.0  0.3522381502367651  0.6052138500980817  0.16732679009457738  1.0000
  O   O19       1.0  0.7078048993966919  0.4506213914175489  0.22465105406356395  1.0000
  O   O20       1.0  0.2076608326842972  0.7743537989199325  0.22476562047172166  1.0000
  O   O21       1.0  0.861225965644401  0.070847786759856  0.1692685382656833  1.0000
  O   O22       1.0  0.36095839107467503  0.09873328560808399  0.169232702670115  1.0000
  O   O23       1.0  0.8640095399535427  0.45741243781303337  0.2775383143838326  1.0000
  O   O24       1.0  0.36389658376062073  0.8206306171479768  0.2775673237002323  1.0000
  O   O25       1.0  0.6246384758903145  0.6506307913563136  0.9657007064879651  1.0000
  O   O26       1.0  0.12437928747196034  0.3149536942674157  0.9657562840477993  1.0000
  O   O27       1.0  0.9845305888647006  0.19778800591959106  0.3175412947987866  1.0000
  O   O28       1.0  0.48418680168347095  0.12006878370386431  0.3173037764487248  1.0000
  O   O29       1.0  0.6801118274056465  0.7213128345939948  0.17527924438407183  1.0000
  O   O30       1.0  0.18003238379849762  0.4544885488582224  0.17539521655211132  1.0000
  O   O31       1.0  0.5562277479349831  0.7635509932198233  0.21849024347628898  1.0000
  O   O32       1.0  0.055864025876807916  0.4552767373271962  0.21840175610443424  1.0000
  O   O33       1.0  0.98525010649292  0.7432546239517207  0.8255476678442264  1.0000
  O   O34       1.0  0.4848587485316003  0.08227599667866765  0.8258699267172389  1.0000
  O   O35       1.0  0.031339303720542916  0.060320032185430236  0.8532996074654235  1.0000
  O   O36       1.0  0.5320988795343948  0.7925570417328557  0.8528690119631932  1.0000
  O   O37       1.0  0.8633399006220727  0.04011362234294325  0.8217972631205229  1.0000
  O   O38       1.0  0.36404476172320704  0.7817386717388075  0.821741814443449  1.0000
  O   O39       1.0  0.770492021543447  0.35093940593231576  0.7282549181344962  1.0000
  O   O40       1.0  0.2706362258875076  0.3772489382780151  0.72844631400298  1.0000
  O   O41       1.0  0.725230286482592  0.2119216009146285  0.7026390910430891  1.0000
  O   O42       1.0  0.2257692693312734  0.4905655825930707  0.702627208638205  1.0000
  O   O43       1.0  0.6588405178417104  0.6502375873229198  0.28741482673257923  1.0000
  O   O44       1.0  0.15890778340444459  0.6371743042911362  0.2874441795440887  1.0000
  O   O45       1.0  0.8179412163089523  0.6571921724632971  0.2798308770817926  1.0000
  O   O46       1.0  0.3180148312097232  0.623272856328974  0.279795473689191  1.0000
  O   O47       1.0  0.04421885505944093  0.8552710790114587  0.4439503440290197  1.0000
  O   O48       1.0  0.5442911143910152  0.5887500566211868  0.44402683941230947  1.0000
  O   O49       1.0  0.024360393618884826  0.8443428572000401  0.743315438814328  1.0000
  O   O50       1.0  0.5238802354685177  0.8989924671611431  0.7433188445346132  1.0000
  O   O51       1.0  0.8633250036175183  0.8755273541708347  0.7337976549795754  1.0000
  O   O52       1.0  0.3629252025844706  0.8580772026237465  0.7338189007132668  1.0000
  O   O53       1.0  0.11259645093534942  0.6927688964280208  0.7861696414907655  1.0000
  O   O54       1.0  0.6120416614258417  0.0928618319027022  0.7862930141888355  1.0000
  O   O55       1.0  0.7968858104915669  0.4077998452768483  0.8480327033607935  1.0000
  O   O56       1.0  0.29699412029292205  0.44025921730296586  0.8482422978540852  1.0000
  O   O57       1.0  0.7841981341084152  0.5483118522115548  0.8709583824279648  1.0000
  O   O58       1.0  0.28410031315856793  0.3227088439933181  0.8711692353694005  1.0000
  O   O59       1.0  0.6057436683690584  0.5076803998476364  0.08880871894344013  1.0000
  O   O60       1.0  0.10550519473515153  0.5818463873484703  0.0887071699598181  1.0000
  O   O61       1.0  0.502101789154132  0.8106916056840063  0.363164902584522  1.0000
  O   O62       1.0  0.0022100246289938033  0.552830139271606  0.36326110942483325  1.0000
  O   O63       1.0  0.5127605263332385  0.5446524690265804  0.3015990731491627  1.0000
  O   O64       1.0  0.013292588983148288  0.7574999163908204  0.301886274808382  1.0000
  O   O65       1.0  0.6777634375974131  0.8004735278263054  0.6914160845938824  1.0000
  O   O66       1.0  0.17758830815255786  0.8910843978826009  0.6913752561199971  1.0000
  O   O67       1.0  0.6962365166094457  0.018671975294502225  0.6832904932485845  1.0000
  O   O68       1.0  0.19616056237597235  0.6644052648097514  0.6832887959827332  1.0000
  O   O69       1.0  0.9934562585797123  0.9378432513900634  0.9374022866650336  1.0000
  O   O70       1.0  0.49373673415188796  0.9993790857936559  0.9375208171568516  1.0000
  O   O71       1.0  0.9937154778492853  0.6271211061036722  0.4979306010473508  1.0000
  O   O72       1.0  0.49329163278555643  0.8706310064759392  0.4979580932139811  1.0000
  O   O73       1.0  0.060798412492623306  0.8186430987251042  0.5175416550522343  1.0000
  O   O74       1.0  0.5605056995537512  0.698720974154881  0.5177266267734453  1.0000
  O   O75       1.0  0.1021885631400536  0.6490392916429997  0.5750851659412319  1.0000
  O   O76       1.0  0.6017504598072421  0.9259003973337697  0.5751163461560509  1.0000
