data_image0
_chemical_formula_structural       Hg2H40C52Br4N12
_chemical_formula_sum              "Hg2 H40 C52 Br4 N12"
_cell_length_a       7.026384451
_cell_length_b       9.09809587424068
_cell_length_c       21.5095
_cell_angle_alpha    92.26954664795095
_cell_angle_beta     90.0
_cell_angle_gamma    112.71454671335083

_space_group_name_H-M_alt    "P 1"
_space_group_IT_number       1

loop_
  _space_group_symop_operation_xyz
  'x, y, z'

loop_
  _atom_site_type_symbol
  _atom_site_label
  _atom_site_symmetry_multiplicity
  _atom_site_fract_x
  _atom_site_fract_y
  _atom_site_fract_z
  _atom_site_occupancy
  Hg  Hg1       1.0  0.40266061005733167  0.9999223551058947  0.24995481183864848  1.0000
  Hg  Hg2       1.0  0.5973376485865811  7.51367575731e-05  0.7500447277294952  1.0000
  H   H1        1.0  0.02135251465107045  0.872359223094179  0.33646821994224746  1.0000
  H   H2        1.0  0.14866314722998905  0.1271182747009973  0.1635983900281417  1.0000
  H   H3        1.0  0.9786465708851322  0.1276370761223475  0.6635317645595292  1.0000
  H   H4        1.0  0.8513358428884883  0.8728863730441532  0.8364012694033106  1.0000
  H   H5        1.0  0.7669973913591617  0.9327119291313224  0.398976624917303  1.0000
  H   H6        1.0  0.8341985479304836  0.0669969421713006  0.10102598364870369  1.0000
  H   H7        1.0  0.2330051369059517  0.0672855627321454  0.6010252392051143  1.0000
  H   H8        1.0  0.16580007645070782  0.933004127633005  0.898973150940236  1.0000
  H   H9        1.0  0.10165531691450977  0.4324048839641392  0.3580697639670092  1.0000
  H   H10       1.0  0.6687013897504597  0.567216924111456  0.14191000036286278  1.0000
  H   H11       1.0  0.8983449612512471  0.5675938005462768  0.641930260489211  1.0000
  H   H12       1.0  0.331297830945516  0.4327853383397979  0.8580914787575652  1.0000
  H   H13       1.0  0.3359002955506155  0.3453333084038306  0.29506359901522927  1.0000
  H   H14       1.0  0.9899962494221268  0.6540654746929278  0.20489987698191917  1.0000
  H   H15       1.0  0.664097366778513  0.654662990812696  0.7049363854865476  1.0000
  H   H16       1.0  0.010004760218194478  0.345940365699164  0.7951011971593046  1.0000
  H   H17       1.0  0.7567880198024993  0.4061845408642526  0.5241969657320025  1.0000
  H   H18       1.0  0.34976670624357803  0.5935159819097535  0.9757115910011009  1.0000
  H   H19       1.0  0.24321629740695974  0.593816528940053  0.47580216885693716  1.0000
  H   H20       1.0  0.6502415148498029  0.4064815099537213  0.024289808210454598  1.0000
  H   H21       1.0  0.7300946921759175  0.6712813333532353  0.5215359084532523  1.0000
  H   H22       1.0  0.058169887073319174  0.3283881806001858  0.9784544180932429  1.0000
  H   H23       1.0  0.26990416278277246  0.3287173511571808  0.47846411600296784  1.0000
  H   H24       1.0  0.9418338338213558  0.6716116965571786  0.0215451614293372  1.0000
  H   H25       1.0  0.7052616224616486  0.6513343131874123  0.3290843530083265  1.0000
  H   H26       1.0  0.053931249082410176  0.3484294198747122  0.1708945342344563  1.0000
  H   H27       1.0  0.2947343860829149  0.3486643713230038  0.6709175310912981  1.0000
  H   H28       1.0  0.9460621436255177  0.6515668793418143  0.8291054502673206  1.0000
  H   H29       1.0  0.7445555445012813  0.3907624232101909  0.32281634553201133  1.0000
  H   H30       1.0  0.3537993382286615  0.608967915737459  0.1770945702749458  1.0000
  H   H31       1.0  0.2554422529876276  0.6092398392410701  0.6771837388558524  1.0000
  H   H32       1.0  0.6461991509927499  0.3910271908321192  0.8229063240713187  1.0000
  H   H33       1.0  0.3690492399555723  0.1111403835702589  0.4139823278057122  1.0000
  H   H34       1.0  0.25810352064699055  0.8888583009401572  0.0860446614799955  1.0000
  H   H35       1.0  0.6309553078313852  0.8888583009401572  0.5860181615613556  1.0000
  H   H36       1.0  0.7418902377982235  0.1111415762172072  0.9139549180425772  1.0000
  H   H37       1.0  0.8790769924710203  0.0912923531009255  0.519216244598482  1.0000
  H   H38       1.0  0.787474984620779  0.908458260844796  0.9806127216001314  1.0000
  H   H39       1.0  0.12092590153137178  0.90870871670338  0.48078381981216717  1.0000
  H   H40       1.0  0.2125190044019334  0.0915392310186718  0.019386817968012296  1.0000
  C   C1        1.0  0.031753277758582436  0.995052777626853  0.3419465148099192  1.0000
  C   C2        1.0  0.036453767544017496  0.0044342613438886  0.1580491236176513  1.0000
  C   C3        1.0  0.9682472309846799  0.0049435215896736  0.6580539346027123  1.0000
  C   C4        1.0  0.9635460494667427  0.9955691937543137  0.8419505158365794  1.0000
  C   C5        1.0  0.8894299303533088  0.030194242722757305  0.3773280975338693  1.0000
  C   C6        1.0  0.8590874915674502  0.969422794765059  0.1226283413444591  1.0000
  C   C7        1.0  0.11057034781244812  0.9698044417876587  0.6226733216549005  1.0000
  C   C8        1.0  0.1409159987497262  0.0305794676862021  0.8773703483108475  1.0000
  C   C9        1.0  0.910380831525579  0.1903953510488492  0.3852622204804704  1.0000
  C   C10       1.0  0.7197652306202398  0.8092550805534415  0.11465851471339046  1.0000
  C   C11       1.0  0.08962004295496233  0.8096045261085152  0.6147382888638119  1.0000
  C   C12       1.0  0.2802345863905201  0.1907483745447607  0.8853420545625494  1.0000
  C   C13       1.0  0.07519270295602348  0.3062908179913748  0.35464301007019816  1.0000
  C   C14       1.0  0.7684623956995862  0.6932975959697458  0.14531806337430447  1.0000
  C   C15       1.0  0.924799862859622  0.6937066738721  0.6453565294979454  1.0000
  C   C16       1.0  0.23153742131117377  0.3067058591284564  0.8546829708124903  1.0000
  C   C17       1.0  0.20791532655824338  0.2582939343110553  0.3193710211714276  1.0000
  C   C18       1.0  0.9491213414575411  0.7411776002493937  0.1806076207615916  1.0000
  C   C19       1.0  0.7920815088786027  0.7417035575524196  0.6806308429509826  1.0000
  C   C20       1.0  0.05087907186799608  0.2588270474957568  0.819392968491563  1.0000
  C   C21       1.0  0.7596641453761348  0.3796409904420983  0.4234552747431336  1.0000
  C   C22       1.0  0.379677025660804  0.6201108161505715  0.07644809716923359  1.0000
  C   C23       1.0  0.24033328637549534  0.6203576940683178  0.5765447497130864  1.0000
  C   C24       1.0  0.6203255026043024  0.3798866757129034  0.9235523722206125  1.0000
  C   C25       1.0  0.7513350082442044  0.4588482520428627  0.4799432295300576  1.0000
  C   C26       1.0  0.2918422716917134  0.5408880501395146  0.019988242240536597  1.0000
  C   C27       1.0  0.24866871265047755  0.5411516251145017  0.5200563499925224  1.0000
  C   C28       1.0  0.708161679780467  0.4591094417239532  0.9800122271493165  1.0000
  C   C29       1.0  0.7341444959674774  0.6060876733637386  0.4781221290092219  1.0000
  C   C30       1.0  0.12754783602203895  0.393579455295793  0.0218481664161416  1.0000
  C   C31       1.0  0.26586064813426447  0.3939122037936258  0.5218793101567697  1.0000
  C   C32       1.0  0.8724573080797028  0.6064204218615714  0.9781514131064385  1.0000
  C   C33       1.0  0.7242879288594748  0.5962542992969446  0.3716206819195235  1.0000
  C   C34       1.0  0.12783055274670824  0.4034784249445948  0.1283316509078176  1.0000
  C   C35       1.0  0.27571354193585046  0.4037467705073681  0.6283807772236827  1.0000
  C   C36       1.0  0.8721671095824206  0.5965178742719317  0.8716674037722569  1.0000
  C   C37       1.0  0.7452114486167571  0.4502301852136696  0.36791435801207933  1.0000
  C   C38       1.0  0.2947964446006139  0.5494977684400908  0.1320058160575144  1.0000
  C   C39       1.0  0.25478859897150835  0.549770884590643  0.6320847765768605  1.0000
  C   C40       1.0  0.7052028715130872  0.4504961454825462  0.8679945934006881  1.0000
  C   C41       1.0  0.6376939711299341  0.1129937569237853  0.4627216175957543  1.0000
  C   C42       1.0  0.5246548288885575  0.8868236452508995  0.037220510842701095  1.0000
  C   C43       1.0  0.3623107118168034  0.8870108908213652  0.5372785067465529  1.0000
  C   C44       1.0  0.47534260286307267  0.1131750392595237  0.962779513613512  1.0000
  C   C45       1.0  0.4250929253133932  0.0633212042848399  0.4522919668059656  1.0000
  C   C46       1.0  0.3619783461813383  0.9367084890461612  0.0477294980463014  1.0000
  C   C47       1.0  0.5749119882108501  0.936681058166414  0.5477085824927528  1.0000
  C   C48       1.0  0.6380174317857196  0.0632925807581444  0.9522710312752023  1.0000
  C   C49       1.0  0.7132691431967828  0.049964751140628004  0.5105930798090696  1.0000
  C   C50       1.0  0.6631090171987493  0.9498562289748946  0.9893035472974104  1.0000
  C   C51       1.0  0.28673328965060557  0.9500410892514709  0.4894075294212996  1.0000
  C   C52       1.0  0.33688354861689607  0.0501412628885802  0.010695992270733298  1.0000
  Br  Br1       1.0  0.36214786563893137  0.7442713264263787  0.3020309286812548  1.0000
  Br  Br2       1.0  0.6185699209947656  0.2553242434164105  0.197889817382304  1.0000
  Br  Br3       1.0  0.6378385064513878  0.255716624261531  0.6979563633869573  1.0000
  Br  Br4       1.0  0.38142728017935906  0.7446768263878951  0.802110247028345  1.0000
  N   N1        1.0  0.19010312311074526  0.1057138399675992  0.31334051210468766  1.0000
  N   N2        1.0  0.08404398037406931  0.8937231078314198  0.18663708557816963  1.0000
  N   N3        1.0  0.809894308640885  0.8942848445428169  0.68665997726238  1.0000
  N   N4        1.0  0.9159578561585346  0.1062815399137236  0.8133630387641304  1.0000
  N   N5        1.0  0.7759848263240554  0.2293638973506731  0.423342139423994  1.0000
  N   N6        1.0  0.5464486580684137  0.770318735719151  0.0765503106818386  1.0000
  N   N7        1.0  0.22401462494942584  0.7706359798066913  0.5766583699202954  1.0000
  N   N8        1.0  0.45355115894234627  0.2296847193790512  0.9234502585941015  1.0000
  N   N9        1.0  0.720198684545778  0.675518807951093  0.4253787092603503  1.0000
  N   N10       1.0  0.04429929875117716  0.3241554765901071  0.07460565335392029  1.0000
  N   N11       1.0  0.2798007667276962  0.3244810692062714  0.574621800083932  1.0000
  N   N12       1.0  0.9557001525223041  0.6758444005672573  0.9253943910795144  1.0000
