data_image0
_chemical_formula_structural       Cd6H100C128N8O38
_chemical_formula_sum              "Cd6 H100 C128 N8 O38"
_cell_length_a       16.59591154123051
_cell_length_b       18.073077379709378
_cell_length_c       18.073050236925653
_cell_angle_alpha    67.62344290566551
_cell_angle_beta     72.14497214087169
_cell_angle_gamma    72.1449335118908

_space_group_name_H-M_alt    "P 1"
_space_group_IT_number       1

loop_
  _space_group_symop_operation_xyz
  'x, y, z'

loop_
  _atom_site_type_symbol
  _atom_site_label
  _atom_site_symmetry_multiplicity
  _atom_site_fract_x
  _atom_site_fract_y
  _atom_site_fract_z
  _atom_site_occupancy
  Cd  Cd1       1.0  0.49999980429046786  0.49999821808400907  0.999998894399347  1.0000
  Cd  Cd2       1.0  5.692068505399917e-06  3.0824170949025067e-06  0.49999792204966526  1.0000
  Cd  Cd3       1.0  0.5597237245086717  0.6400360975796603  0.8106409935296522  1.0000
  Cd  Cd4       1.0  0.9402739509383836  0.1893575622769816  0.3599644483192179  1.0000
  Cd  Cd5       1.0  0.44027527709554437  0.3599651697666816  0.1893566313861753  1.0000
  Cd  Cd6       1.0  0.0597215162122851  0.8106424561039275  0.6400379412419636  1.0000
  H   H1        1.0  0.8425583274083195  0.8979875825638074  0.10967564263756918  1.0000
  H   H2        1.0  0.657441852719643  0.8903252918295976  0.10201265598013255  1.0000
  H   H3        1.0  0.15744256431203496  0.10201366527173408  0.890323679503744  1.0000
  H   H4        1.0  0.3425598091332276  0.1096753382094633  0.8979872367161901  1.0000
  H   H5        1.0  0.8161879678066913  0.851246112805377  0.050907362126238906  1.0000
  H   H6        1.0  0.6838101649205512  0.9490945761744668  0.14875412261935847  1.0000
  H   H7        1.0  0.1838097510415223  0.14875512444280048  0.9490945025474954  1.0000
  H   H8        1.0  0.3161879155090688  0.050907899451758  0.8512455199414571  1.0000
  H   H9        1.0  0.9238093536832467  0.6352984722772061  0.15590092723213192  1.0000
  H   H10       1.0  0.5761903555547505  0.8441021578582307  0.36470167855787133  1.0000
  H   H11       1.0  0.0761923058235681  0.364702153302673  0.8440995211098677  1.0000
  H   H12       1.0  0.42380849500738543  0.15589969997151337  0.6352985345579467  1.0000
  H   H13       1.0  0.8115056521316432  0.6869684359610845  0.16840458642470663  1.0000
  H   H14       1.0  0.6884940071742562  0.8315951331511966  0.31303149148124726  1.0000
  H   H15       1.0  0.18849488504548617  0.3130315868739331  0.8315952908924938  1.0000
  H   H16       1.0  0.3115054076731881  0.1684042869389515  0.6869678148111544  1.0000
  H   H17       1.0  0.9751615486327835  0.7959532701064446  0.009906235121448443  1.0000
  H   H18       1.0  0.5248373397817045  0.990094194610634  0.20404741031158125  1.0000
  H   H19       1.0  0.02483913020218149  0.2040461444084656  0.9900932765784771  1.0000
  H   H20       1.0  0.4751622856050659  0.009907054340970903  0.795952262067885  1.0000
  H   H21       1.0  0.9986351228561575  0.839125364919816  0.07371324419189998  1.0000
  H   H22       1.0  0.5013632267442958  0.9262882897366326  0.16087515176491252  1.0000
  H   H23       1.0  0.0013616935859346042  0.16087711628164664  0.9262861929613845  1.0000
  H   H24       1.0  0.49863562616389595  0.0737135725522862  0.8391245057052217  1.0000
  H   H25       1.0  0.8480446555024912  0.7393237757716165  0.26528826922496757  1.0000
  H   H26       1.0  0.6519538597648591  0.7347128981280662  0.26067780291958087  1.0000
  H   H27       1.0  0.15195370355068855  0.2606774742960524  0.734711753392652  1.0000
  H   H28       1.0  0.3480464011347664  0.2652883547246815  0.739321138695132  1.0000
  H   H29       1.0  0.9611475549182844  0.6948082923528601  0.23698001707739272  1.0000
  H   H30       1.0  0.5388509592226212  0.7630213540340307  0.3051914638399181  1.0000
  H   H31       1.0  0.038851434955631696  0.30519295269760244  0.7630203860668272  1.0000
  H   H32       1.0  0.4611488101680478  0.23697929105664164  0.694807287276596  1.0000
  H   H33       1.0  0.7845793742823376  0.5893808315073698  0.15008830400019949  1.0000
  H   H34       1.0  0.7154223097903696  0.8499111020361879  0.4106179952016473  1.0000
  H   H35       1.0  0.21542003352692526  0.410618575205248  0.8499126692292402  1.0000
  H   H36       1.0  0.2845792878731288  0.15008709973965748  0.5893800544989815  1.0000
  H   H37       1.0  0.6886262444990051  0.543256661828991  0.1027221369711456  1.0000
  H   H38       1.0  0.8113757064927185  0.8972772721484217  0.45674275983764545  1.0000
  H   H39       1.0  0.31137316331025744  0.4567427448836269  0.8972788362582944  1.0000
  H   H40       1.0  0.18862560550903848  0.10272214180845647  0.5432565767432036  1.0000
  H   H41       1.0  0.7732069977491987  0.6904555237680299  0.8553994402580539  1.0000
  H   H42       1.0  0.7267929795431556  0.1446001116105933  0.3095456824443658  1.0000
  H   H43       1.0  0.22679318488469144  0.3095432740664563  0.14460099223503417  1.0000
  H   H44       1.0  0.27320516427857905  0.8553993006772699  0.6904550853775431  1.0000
  H   H45       1.0  0.865730626062138  0.7422740315875628  0.9018515337217394  1.0000
  H   H46       1.0  0.6342692272054578  0.09814864677711907  0.25772656937479593  1.0000
  H   H47       1.0  0.1342682902381753  0.257724767362987  0.09814924900950213  1.0000
  H   H48       1.0  0.36573109474021936  0.9018495382780854  0.7422740531467013  1.0000
  H   H49       1.0  0.09956472912390515  0.8266708752057353  0.9445720436841325  1.0000
  H   H50       1.0  0.40043410076312813  0.05542863839588819  0.17333053770657608  1.0000
  H   H51       1.0  0.9004353854257587  0.1733309770487637  0.055428374839209385  1.0000
  H   H52       1.0  0.5995655199315166  0.9445726016373683  0.8266702459642518  1.0000
  H   H53       1.0  0.24848515644926286  0.8108419772799279  0.8591084183566976  1.0000
  H   H54       1.0  0.2515136406774872  0.14089178431738955  0.18915890940392185  1.0000
  H   H55       1.0  0.7515139750824957  0.18915865945042756  0.14089161917025453  1.0000
  H   H56       1.0  0.7484864785642954  0.8591100768554654  0.8108403978280588  1.0000
  H   H57       1.0  0.330474430509149  0.588863967141691  0.04653221217203204  1.0000
  H   H58       1.0  0.16952518862569113  0.9534686413739236  0.41113590374401104  1.0000
  H   H59       1.0  0.6695249843382952  0.4111354529484572  0.9534670941203698  1.0000
  H   H60       1.0  0.8304742974492925  0.046533220356963084  0.5888635786070536  1.0000
  H   H61       1.0  0.1808266382621824  0.6011176095207206  0.13008931210224967  1.0000
  H   H62       1.0  0.3191714167319262  0.8699114044233268  0.3988836209233425  1.0000
  H   H63       1.0  0.8191722122999608  0.39888424830902375  0.8699109010135686  1.0000
  H   H64       1.0  0.6808274361762726  0.13009045786559167  0.6011160365467915  1.0000
  H   H65       1.0  0.9972264688659818  0.9266110852543504  0.22791719267632257  1.0000
  H   H66       1.0  0.5027732435282672  0.7720821641250167  0.07338917446765693  1.0000
  H   H67       1.0  0.0027740706572033044  0.07338894203984128  0.772082128995194  1.0000
  H   H68       1.0  0.4972255358063221  0.2279172520639889  0.9266108625895054  1.0000
  H   H69       1.0  0.04396222398302287  0.9244557676210333  0.3479500258545228  1.0000
  H   H70       1.0  0.4560380448217317  0.6520495648009186  0.07554433596643416  1.0000
  H   H71       1.0  0.9560392273305212  0.0755430335565705  0.652049500754728  1.0000
  H   H72       1.0  0.5439610131364245  0.34794862582953096  0.9244560811475323  1.0000
  H   H73       1.0  0.9618286347177758  0.6982140292047062  0.49001010584927945  1.0000
  H   H74       1.0  0.5381724424617074  0.5099902392316054  0.3017865097405234  1.0000
  H   H75       1.0  0.0381721857750321  0.3017847769901039  0.5099890402333711  1.0000
  H   H76       1.0  0.4618277401721825  0.4900085586028808  0.6982139227525647  1.0000
  H   H77       1.0  0.9162612571048925  0.6984974114662778  0.3710626090651059  1.0000
  H   H78       1.0  0.5837387712406612  0.6289382187805258  0.30150227642403127  1.0000
  H   H79       1.0  0.083737245952193  0.3015032347404656  0.6289364922895613  1.0000
  H   H80       1.0  0.4162611351157323  0.3710618090716977  0.6984972203665688  1.0000
  H   H81       1.0  0.4825978788970602  0.7981533952960262  0.6718088242250244  1.0000
  H   H82       1.0  0.017405973811996496  0.3281909013321069  0.20184693157563768  1.0000
  H   H83       1.0  0.5174061669269605  0.20184782745348426  0.32819240054929816  1.0000
  H   H84       1.0  0.982594837296574  0.6718078870259984  0.798154437089728  1.0000
  H   H85       1.0  0.7059811116611242  0.89881260860313  0.5947459297494363  1.0000
  H   H86       1.0  0.7940209702593818  0.4052533644583817  0.10118674604269272  1.0000
  H   H87       1.0  0.29402568361032166  0.1011849625516703  0.40525257596401315  1.0000
  H   H88       1.0  0.2059770295584542  0.5947466516904  0.8988149430421755  1.0000
  H   H89       1.0  0.7302571163204093  0.7500853807498942  0.7191177967117424  1.0000
  H   H90       1.0  0.769742809260748  0.2808827186214629  0.24991389123198351  1.0000
  H   H91       1.0  0.26974573125426093  0.24991278869565997  0.2808837922704796  1.0000
  H   H92       1.0  0.23025561318455345  0.7191154681078302  0.7500872566467363  1.0000
  H   H93       1.0  0.479836778429508  0.8595572605955083  0.5324441184489357  1.0000
  H   H94       1.0  0.020162629797560824  0.46755607593627235  0.14044262700502944  1.0000
  H   H95       1.0  0.5201650861272569  0.1404396933258951  0.467557089536889  1.0000
  H   H96       1.0  0.9798367733195757  0.5324433218579969  0.8595594575157645  1.0000
  H   H97       1.0  0.595758942951754  0.023837712152889896  0.567724402513768  1.0000
  H   H98       1.0  0.9042421165998106  0.43227674940713  0.9761611202568616  1.0000
  H   H99       1.0  0.404243906968972  0.9761604617518387  0.43227663082277706  1.0000
  H   H100      1.0  0.09575679266232126  0.5677220361658897  0.023841329411418127  1.0000
  C   C1        1.0  0.8993607862715007  0.767285627703245  0.13409901369370664  1.0000
  C   C2        1.0  0.6006382306156938  0.8659027140479124  0.23271437325825411  1.0000
  C   C3        1.0  0.10063771209346577  0.2327150095851422  0.865901198952322  1.0000
  C   C4        1.0  0.3993613971171328  0.13409853936287422  0.767284743475535  1.0000
  C   C5        1.0  0.8259919112516554  0.8423740350914883  0.11177804703152829  1.0000
  C   C6        1.0  0.674007199030548  0.8882234205877496  0.15762659455059236  1.0000
  C   C7        1.0  0.1740082032980084  0.15762781716301788  0.8882223714918137  1.0000
  C   C8        1.0  0.32599277620732886  0.1117790444460383  0.8423736339443478  1.0000
  C   C9        1.0  0.8772309500287604  0.6917232765383619  0.13159425055587076  1.0000
  C   C10       1.0  0.6227688512755803  0.8684065375164208  0.3082769201307939  1.0000
  C   C11       1.0  0.12276909563941268  0.3082761385345805  0.8684054362631312  1.0000
  C   C12       1.0  0.37723041722189515  0.13159348197547868  0.6917238630702369  1.0000
  C   C13       1.0  0.9829788048365556  0.7850089509824586  0.0717387924274462  1.0000
  C   C14       1.0  0.5170204927587037  0.9282620017214497  0.2149915716160961  1.0000
  C   C15       1.0  0.017019693528411012  0.21499168630593601  0.928261420218575  1.0000
  C   C16       1.0  0.4829791302820112  0.07173924277098108  0.7850086564090473  1.0000
  C   C17       1.0  0.9094321683364368  0.7496077195091075  0.2211147348171565  1.0000
  C   C18       1.0  0.5905678512593794  0.7788857236121984  0.2503934554694638  1.0000
  C   C19       1.0  0.09056682153747886  0.25039352554135524  0.7788856683270637  1.0000
  C   C20       1.0  0.40943268826380563  0.22111430368199336  0.7496058662020599  1.0000
  C   C21       1.0  0.8303057949360094  0.6699208876671535  0.028719903858629384  1.0000
  C   C22       1.0  0.6696960616916812  0.9712804720919974  0.3300774262880141  1.0000
  C   C23       1.0  0.1696952971421837  0.33007667959156345  0.9712812892178699  1.0000
  C   C24       1.0  0.3303046218354098  0.028718951341261297  0.6699209741205505  1.0000
  C   C25       1.0  0.7820146311464595  0.6125989999106239  0.08553740774552675  1.0000
  C   C26       1.0  0.7179871488313834  0.9144621843479328  0.38739990821628095  1.0000
  C   C27       1.0  0.21798604299638671  0.38740040568593054  0.91446321524576  1.0000
  C   C28       1.0  0.2820130408406882  0.08553662686407648  0.6125988573397689  1.0000
  C   C29       1.0  0.7291162054057096  0.5854395779661061  0.05884918620682103  1.0000
  C   C30       1.0  0.7708818395585337  0.9411511354079067  0.4145629249588937  1.0000
  C   C31       1.0  0.2708807433099878  0.4145622770785521  0.9411521079119108  1.0000
  C   C32       1.0  0.22911693742999253  0.0588482763219176  0.5854376677439389  1.0000
  C   C33       1.0  0.7254132002548059  0.6129869173213721  0.9761673540149612  1.0000
  C   C34       1.0  0.7745876471318738  0.02383052559437  0.3870127752206969  1.0000
  C   C35       1.0  0.27458586004939883  0.3870112777682451  0.023832507453327937  1.0000
  C   C36       1.0  0.22541126682237694  0.9761682688970053  0.6129885631562219  1.0000
  C   C37       1.0  0.7762220469615213  0.6687681534950797  0.9197658411841514  1.0000
  C   C38       1.0  0.7237778299615414  0.0802343730344219  0.3312329138776561  1.0000
  C   C39       1.0  0.22377700630450906  0.33123002821701414  0.08023568722117601  1.0000
  C   C40       1.0  0.27622017220235046  0.9197656475735412  0.6687682195615279  1.0000
  C   C41       1.0  0.8279961164120094  0.697437701653719  0.9453460271018839  1.0000
  C   C42       1.0  0.6720043280311002  0.0546547579679384  0.30256206422196635  1.0000
  C   C43       1.0  0.17200356767475  0.3025604750411616  0.054655881830044044  1.0000
  C   C44       1.0  0.3279957176370729  0.9453446571050035  0.6974376225970359  1.0000
  C   C45       1.0  0.6651326255006181  0.5879816147162416  0.9475728671916952  1.0000
  C   C46       1.0  0.8348665292724886  0.052425756503019706  0.41201861547759205  1.0000
  C   C47       1.0  0.3348645329571553  0.4120165775882896  0.05242807527950794  1.0000
  C   C48       1.0  0.16513132888750456  0.9475748679658691  0.5879834392245512  1.0000
  C   C49       1.0  0.1307997033643389  0.7137549084854697  0.04259802626962286  1.0000
  C   C50       1.0  0.36919919476591884  0.9574021219614295  0.28624584634665234  1.0000
  C   C51       1.0  0.8692001325617581  0.2862481693275996  0.9574020121969082  1.0000
  C   C52       1.0  0.6308009244758637  0.0425997392114326  0.7137534608853284  1.0000
  C   C53       1.0  0.14951238581890888  0.7739784012100657  0.966789639141602  1.0000
  C   C54       1.0  0.35048599887421267  0.03321035533766548  0.22602295417614462  1.0000
  C   C55       1.0  0.8504871049481935  0.22602346943917692  0.033208731918101406  1.0000
  C   C56       1.0  0.6495139763636643  0.966792109696115  0.7739772743187956  1.0000
  C   C57       1.0  0.23338044299650557  0.7653582324686212  0.9188563993060438  1.0000
  C   C58       1.0  0.26661784462974936  0.08114368738870328  0.23464233634863516  1.0000
  C   C59       1.0  0.7666200965266796  0.23464179482557057  0.0811429223654798  1.0000
  C   C60       1.0  0.7333810082784495  0.9188581749002152  0.7653573211214989  1.0000
  C   C61       1.0  0.29946160910605346  0.6988576991078687  0.9461501537580116  1.0000
  C   C62       1.0  0.2005369837315456  0.053849664456656385  0.3011434200559861  1.0000
  C   C63       1.0  0.7005370332628118  0.3011423343195929  0.05384913762506473  1.0000
  C   C64       1.0  0.799463270129898  0.9461515750185681  0.6988571884957577  1.0000
  C   C65       1.0  0.2800183397285068  0.6401479953959778  0.02320630490479656  1.0000
  C   C66       1.0  0.21998094466490414  0.9767930352353242  0.35985349106809394  1.0000
  C   C67       1.0  0.7199801633285786  0.35985265081076523  0.9767927964498777  1.0000
  C   C68       1.0  0.7800194555465012  0.0232076048381487  0.6401456405750208  1.0000
  C   C69       1.0  0.19637590027446084  0.6467139707992188  0.07052149985614158  1.0000
  C   C70       1.0  0.3036233843450446  0.9294785358628914  0.3532879308844413  1.0000
  C   C71       1.0  0.8036230919455178  0.3532872787104182  0.9294783476424016  1.0000
  C   C72       1.0  0.6963768742085179  0.070522712530682  0.6467115663759484  1.0000
  C   C73       1.0  0.38819673461590304  0.6904812531587154  0.8934488714829736  1.0000
  C   C74       1.0  0.11180242726386781  0.106551636902374  0.30951781010637086  1.0000
  C   C75       1.0  0.6118016925215173  0.3095169424889334  0.10655116510439197  1.0000
  C   C76       1.0  0.8881964232982682  0.8934502209273701  0.6904824030094472  1.0000
  C   C77       1.0  0.9546860342874978  0.8129515064952599  0.29178389840129165  1.0000
  C   C78       1.0  0.5453142643638387  0.7082173723738734  0.18704772989867982  1.0000
  C   C79       1.0  0.0453132389021036  0.1870485219149955  0.7082157735083853  1.0000
  C   C80       1.0  0.45468501117181864  0.2917826604955565  0.8129513863653128  1.0000
  C   C81       1.0  0.9901789514766719  0.876795457363869  0.2856872955585175  1.0000
  C   C82       1.0  0.5098209133200486  0.7143124739510256  0.12320457955023294  1.0000
  C   C83       1.0  0.009821729704356092  0.12320396161021561  0.714311660495731  1.0000
  C   C84       1.0  0.4901780053263209  0.2856863294586987  0.8767956475353311  1.0000
  C   C85       1.0  0.01601686631364169  0.8753176287671421  0.3523053827910941  1.0000
  C   C86       1.0  0.483982982511236  0.6476946170393489  0.1246822549819412  1.0000
  C   C87       1.0  0.9839845873459582  0.12468117686963606  0.6476935881724798  1.0000
  C   C88       1.0  0.5160165669558693  0.352304181353162  0.8753183526302235  1.0000
  C   C89       1.0  0.006208468078355578  0.8106061405783151  0.4263919105116896  1.0000
  C   C90       1.0  0.4937920107545964  0.5736080739931282  0.18939342620436148  1.0000
  C   C91       1.0  0.993793124893024  0.1893920522791817  0.573607250480286  1.0000
  C   C92       1.0  0.5062081765714197  0.42639073275971384  0.8106058949973655  1.0000
  C   C93       1.0  0.9698222729084235  0.7477297219609864  0.43210540474753845  1.0000
  C   C94       1.0  0.5301789690427512  0.5678942343316746  0.2522697718756176  1.0000
  C   C95       1.0  0.03017918544329489  0.2522690925941404  0.5678924549246814  1.0000
  C   C96       1.0  0.4698212182832648  0.4321045724211672  0.7477295493261092  1.0000
  C   C97       1.0  0.9441731426017768  0.7481369517526912  0.3653624887693565  1.0000
  C   C98       1.0  0.5558273817089942  0.6346378421513563  0.2518628272098055  1.0000
  C   C99       1.0  0.05582676610067238  0.2518630805587065  0.6346364523755595  1.0000
  C   C100      1.0  0.4441725246473993  0.36536218570086726  0.7481366695807877  1.0000
  C   C101      1.0  0.032594993390368546  0.8098026366248449  0.497922898646358  1.0000
  C   C102      1.0  0.46740595277960045  0.5020765667532672  0.1901983205437432  1.0000
  C   C103      1.0  0.9674053309013714  0.19019555288954135  0.5020771682294551  1.0000
  C   C104      1.0  0.5325950023328687  0.4979216177439129  0.8098021268586775  1.0000
  C   C105      1.0  0.5478800640495081  0.8028592142066556  0.6662683028593005  1.0000
  C   C106      1.0  0.9521217347103456  0.3337311351772883  0.19713972018344345  1.0000
  C   C107      1.0  0.45212454371375793  0.19713956634409163  0.33373257073728274  1.0000
  C   C108      1.0  0.04787690296640786  0.6662688893318247  0.8028606824909869  1.0000
  C   C109      1.0  0.6644491205173184  0.8554066018886386  0.6288675486087384  1.0000
  C   C110      1.0  0.8355525937885275  0.37113160526061506  0.14459094800716338  1.0000
  C   C111      1.0  0.33555605622337475  0.14458974984086126  0.3711313068730745  1.0000
  C   C112      1.0  0.16444681167467218  0.6288677969928358  0.8554105808679536  1.0000
  C   C113      1.0  0.6755764463998303  0.78167487506267  0.6899627258575048  1.0000
  C   C114      1.0  0.824423675767761  0.31003697714155  0.21832683450815438  1.0000
  C   C115      1.0  0.3244263377827252  0.21832635772125292  0.31003773786361666  1.0000
  C   C116      1.0  0.17557587135328134  0.6899618167917935  0.7816743287496875  1.0000
  C   C117      1.0  0.5420828583261325  0.9349642914319672  0.5557991490767903  1.0000
  C   C118      1.0  0.957919469760078  0.4442002537974902  0.06503509009028362  1.0000
  C   C119      1.0  0.4579235213560295  0.0650351225198449  0.44419823090576205  1.0000
  C   C120      1.0  0.042079021566706794  0.555800370113367  0.934966789492776  1.0000
  C   C121      1.0  0.4877314929142286  0.9214035644704808  0.5186505819074652  1.0000
  C   C122      1.0  0.0122701158808738  0.4813489851948916  0.0785968537250668  1.0000
  C   C123      1.0  0.5122745275325826  0.0785946155624444  0.48134846454232855  1.0000
  C   C124      1.0  0.9877277399330634  0.5186516348148231  0.9214057566227536  1.0000
  C   C125      1.0  0.5547318643152437  0.013441254609205103  0.5373318701533092  1.0000
  C   C126      1.0  0.9452687682662957  0.4626684542092221  0.9865591123433074  1.0000
  C   C127      1.0  0.4452724695165813  0.986558760418454  0.46266751209510903  1.0000
  C   C128      1.0  0.05472824618757243  0.5373303419562346  0.013442751390847715  1.0000
  N   N1        1.0  0.6024548422385507  0.7499443502548289  0.7124653240785503  1.0000
  N   N2        1.0  0.8975489009104365  0.2875342824435235  0.2500534345976462  1.0000
  N   N3        1.0  0.39754885138830076  0.2500556519533318  0.2875359002259757  1.0000
  N   N4        1.0  0.10245241109132049  0.7124651315133547  0.749945901983203  1.0000
  N   N5        1.0  0.5832186091047404  0.8678496758495697  0.6140300031189909  1.0000
  N   N6        1.0  0.9167843840339458  0.385968317632468  0.1321497974212918  1.0000
  N   N7        1.0  0.41678804450886275  0.1321485036253236  0.38596886821172643  1.0000
  N   N8        1.0  0.0832150167371353  0.6140310757026199  0.8678528427451863  1.0000
  O   O1        1.0  0.749999576611586  0.8269926568120523  0.17300886262273718  1.0000
  O   O2        1.0  0.25000074143922296  0.17301101092638047  0.8269935889247075  1.0000
  O   O3        1.0  0.8814085814990944  0.7037406252536442  0.04775008629267336  1.0000
  O   O4        1.0  0.618592994678785  0.9522502756298578  0.29625771515132726  1.0000
  O   O5        1.0  0.11859146182301569  0.2962587853601234  0.9522501561720059  1.0000
  O   O6        1.0  0.3814083220150906  0.0477491472453764  0.7037405101381679  1.0000
  O   O7        1.0  0.05065255680561622  0.7146627898857429  0.09351186469723424  1.0000
  O   O8        1.0  0.4493460485280281  0.9064894748185991  0.28533822581993457  1.0000
  O   O9        1.0  0.9493480445608785  0.2853396612124826  0.9064898556156604  1.0000
  O   O10       1.0  0.550652799688045  0.0935123785519707  0.7146625429415678  1.0000
  O   O11       1.0  0.9321318800702229  0.8191307464922345  0.2226586825610255  1.0000
  O   O12       1.0  0.5678691810431998  0.777341145517589  0.1808691705474884  1.0000
  O   O13       1.0  0.06786774766261058  0.18087050691855205  0.7773404341727568  1.0000
  O   O14       1.0  0.43213072765925625  0.22265888679380907  0.8191297705974278  1.0000
  O   O15       1.0  0.6672316601854221  0.6179171816360591  0.8707070937359302  1.0000
  O   O16       1.0  0.8327672155802404  0.12929163445037514  0.3820827084758775  1.0000
  O   O17       1.0  0.3327659921273565  0.3820816228897285  0.12929348358778733  1.0000
  O   O18       1.0  0.1672284668018733  0.8707102217103395  0.6179189358810078  1.0000
  O   O19       1.0  0.6169230146685579  0.5406502110516056  0.0011695162628271851  1.0000
  O   O20       1.0  0.8830773138002996  0.9988298183216311  0.45934760261926744  1.0000
  O   O21       1.0  0.38307351062242384  0.4593479818109572  0.9988316013274525  1.0000
  O   O22       1.0  0.1169223092404081  0.0011714261707994021  0.5406526254058831  1.0000
  O   O23       1.0  0.40259564740662057  0.7338051431820458  0.8192314667495137  1.0000
  O   O24       1.0  0.09740315098582636  0.18076820113240902  0.26619484647677877  1.0000
  O   O25       1.0  0.5974050290822885  0.2661942668736899  0.18076860059609606  1.0000
  O   O26       1.0  0.9025958482723341  0.8192330617547582  0.7338033340847329  1.0000
  O   O27       1.0  0.45080039398094834  0.6368600103626959  0.9267003124135725  1.0000
  O   O28       1.0  0.049198864974599084  0.07329775651985669  0.3631373349503376  1.0000
  O   O29       1.0  0.5491974751120877  0.36313514480049486  0.07329824632558506  1.0000
  O   O30       1.0  0.9508001295914357  0.9267034974489546  0.6368619569025281  1.0000
  O   O31       1.0  0.06494068013014241  0.869216667439261  0.49117428639017635  1.0000
  O   O32       1.0  0.4350603181816269  0.5088244588623779  0.1307844110828356  1.0000
  O   O33       1.0  0.9350596465076534  0.13078152653429953  0.5088252248399596  1.0000
  O   O34       1.0  0.5649420472683317  0.4911731206578055  0.8692147648184726  1.0000
  O   O35       1.0  0.023662456197818874  0.7509326553028756  0.5649540460424232  1.0000
  O   O36       1.0  0.47633945077384254  0.4350464072901515  0.24906777505508157  1.0000
  O   O37       1.0  0.976338501260706  0.24906553365347858  0.4350458457143132  1.0000
  O   O38       1.0  0.5236615043386265  0.5649517772070212  0.7509326723473391  1.0000
