data_image0
_chemical_formula_structural       Cd2H32C38N4O10
_chemical_formula_sum              "Cd2 H32 C38 N4 O10"
_cell_length_a       7.817215684852786
_cell_length_b       10.309435714573535
_cell_length_c       11.556514800798661
_cell_angle_alpha    98.40500320482496
_cell_angle_beta     91.4929945156255
_cell_angle_gamma    98.77940312244573

_space_group_name_H-M_alt    "P 1"
_space_group_IT_number       1

loop_
  _space_group_symop_operation_xyz
  'x, y, z'

loop_
  _atom_site_type_symbol
  _atom_site_label
  _atom_site_symmetry_multiplicity
  _atom_site_fract_x
  _atom_site_fract_y
  _atom_site_fract_z
  _atom_site_occupancy
  Cd  Cd1       1.0  0.2836097752503264  0.7645319820231861  0.3730025882452424  1.0000
  Cd  Cd2       1.0  0.7163948762731422  0.23547145484213414  0.626999949214337  1.0000
  H   H1        1.0  0.13623381395474612  0.9842265801968608  0.4114763361979428  1.0000
  H   H2        1.0  0.8637716500873721  0.015774782882324704  0.5885225166541872  1.0000
  H   H3        1.0  0.2822557364098444  0.027423390802198404  0.5211130154134552  1.0000
  H   H4        1.0  0.7177464958433861  0.9725751186722391  0.4788897760565618  1.0000
  H   H5        1.0  0.062003984708717014  0.5273069322731202  0.1920225375409785  1.0000
  H   H6        1.0  0.9380165446885301  0.4726930401718905  0.8079677852059605  1.0000
  H   H7        1.0  0.9297163559356036  0.28526550530264666  0.17630114583989348  1.0000
  H   H8        1.0  0.07029802832395399  0.7147356052919419  0.8236917880778308  1.0000
  H   H9        1.0  0.9720226956215756  0.1674581437482843  0.3473443147995212  1.0000
  H   H10       1.0  0.027963863575870124  0.8325444913970161  0.6526543276701063  1.0000
  H   H11       1.0  0.14592619904427553  0.29061229525839133  0.5234410796485491  1.0000
  H   H12       1.0  0.8540656876832174  0.7093912057463144  0.4765551663580824  1.0000
  H   H13       1.0  0.5116955253642602  0.861431299472372  0.6180440128105645  1.0000
  H   H14       1.0  0.4883145970472924  0.1385681956101692  0.3819642332963866  1.0000
  H   H15       1.0  0.6003763414008176  0.774741567681197  0.7975972917538315  1.0000
  H   H16       1.0  0.39961386948164807  0.225249358588016  0.2024147876297064  1.0000
  H   H17       1.0  0.4999853321282615  0.5321466728028525  0.8121680864783868  1.0000
  H   H18       1.0  0.4999878266652757  0.4678423532079492  0.1878356641431651  1.0000
  H   H19       1.0  0.311452322456205  0.3935003359618677  0.6506298457109025  1.0000
  H   H20       1.0  0.688523806855102  0.6065015078237935  0.3493711055702989  1.0000
  H   H21       1.0  0.6541084867182362  0.05378243475266942  0.2211037337807369  1.0000
  H   H22       1.0  0.34590464103600743  0.9462189561311759  0.7789021903478357  1.0000
  H   H23       1.0  0.6449702499590658  0.2046191126027851  0.07180503981997083  1.0000
  H   H24       1.0  0.35503997207987237  0.795386374701117  0.9282047617109868  1.0000
  H   H25       1.0  0.7473839502177171  0.14340156783450195  0.8736948562028318  1.0000
  H   H26       1.0  0.25261524186789336  0.8566059678121791  0.12630977988359862  1.0000
  H   H27       1.0  0.8562460533950118  0.9282002330625262  0.8220827215104051  1.0000
  H   H28       1.0  0.14374478927864226  0.0718043141477196  0.177915355843524  1.0000
  H   H29       1.0  0.8531613044123463  0.7730406515101153  0.9686164111998607  1.0000
  H   H30       1.0  0.1468339485563348  0.2269607733471517  0.031377928974862405  1.0000
  H   H31       1.0  0.764188579432073  0.7097226019720395  0.1446211940170485  1.0000
  H   H32       1.0  0.2358136413709246  0.29027575050380255  0.8553737901787457  1.0000
  C   C1        1.0  0.07907385511013845  0.4696037111135427  0.2621978473863891  1.0000
  C   C2        1.0  0.920935654511766  0.5303984492285495  0.7377942497153284  1.0000
  C   C3        1.0  0.005350549295357596  0.3366869860788242  0.2546526753234559  1.0000
  C   C4        1.0  0.9946561827023005  0.6633142537096932  0.7453409945920485  1.0000
  C   C5        1.0  0.028661136171066918  0.2714804149380826  0.3501115083370365  1.0000
  C   C6        1.0  0.9713352642955754  0.7285260082678704  0.6498851583391386  1.0000
  C   C7        1.0  0.1269311361774754  0.3405386896980716  0.44853539593592723  1.0000
  C   C8        1.0  0.8730642227798241  0.6594688146019934  0.551464837037372  1.0000
  C   C9        1.0  0.198930878399203  0.4738597384094091  0.4494634381692677  1.0000
  C   C10       1.0  0.801067030463898  0.5261477111964864  0.5505359711548294  1.0000
  C   C11       1.0  0.46612662670356997  0.7588257919752124  0.6299897913150474  1.0000
  C   C12       1.0  0.5338704073829278  0.2411668521104815  0.37001395950428423  1.0000
  C   C13       1.0  0.5173148027053501  0.7093762609392015  0.7292358952212583  1.0000
  C   C14       1.0  0.48267435648979523  0.290615606869828  0.2707728106600982  1.0000
  C   C15       1.0  0.46076920446054  0.5762977070119887  0.7375126435617431  1.0000
  C   C16       1.0  0.5392101045596717  0.4236902506263789  0.26249196578867645  1.0000
  C   C17       1.0  0.3552813980321475  0.49779483534305063  0.6468030045810665  1.0000
  C   C18       1.0  0.6446978647129099  0.5022038872702835  0.35319332013316534  1.0000
  C   C19       1.0  0.30792400172377654  0.5538080118231222  0.5499588268976581  1.0000
  C   C20       1.0  0.6920656065470183  0.4461857192599438  0.4500440432799522  1.0000
  C   C21       1.0  0.7534860303209141  0.9032795627378005  0.10437346569047175  1.0000
  C   C22       1.0  0.24651792532474556  0.09672077394144203  0.8956226445137432  1.0000
  C   C23       1.0  0.6973502599631021  0.026076011862514292  0.1332996215600062  1.0000
  C   C24       1.0  0.3026577603460511  0.9739253837439393  0.8667027450174914  1.0000
  C   C25       1.0  0.6942223407898355  0.11106707616810502  0.05002526966195121  1.0000
  C   C26       1.0  0.30578637030814804  0.8889373498472751  0.9499800542712579  1.0000
  C   C27       1.0  0.7503152172208588  0.07610747559282771  0.9377483368493954  1.0000
  C   C28       1.0  0.2496856088077807  0.9238960345916001  0.06225500234653235  1.0000
  C   C29       1.0  0.808501929598393  0.9546029277436006  0.9087677435299854  1.0000
  C   C30       1.0  0.1914950633019359  0.045400551094211004  0.0912311925528115  1.0000
  C   C31       1.0  0.8081385868951472  0.8683231621097037  0.9912354510504003  1.0000
  C   C32       1.0  0.19185817446999914  0.13167928914750598  0.008761631772244994  1.0000
  C   C33       1.0  0.7597672405122396  0.8089311184810554  0.19298080808805912  1.0000
  C   C34       1.0  0.2402345248538751  0.19106528349932006  0.8070156744369115  1.0000
  C   C35       1.0  0.5935556155684267  0.7972723823851522  0.2610386278780723  1.0000
  C   C36       1.0  0.40644939430904975  0.20272704764284546  0.7389625907781507  1.0000
  C   C37       1.0  0.9247319133379363  0.847495166346846  0.27470149890965706  1.0000
  C   C38       1.0  0.07527832316996101  0.15249911987490353  0.7252949003846539  1.0000
  N   N1        1.0  0.1728404767317926  0.5358199335594307  0.35713120130072434  1.0000
  N   N2        1.0  0.8271609353693066  0.4641805450354114  0.6428700699272625  1.0000
  N   N3        1.0  0.3632483448881558  0.6831521295001295  0.5432934467767794  1.0000
  N   N4        1.0  0.6367556234799778  0.31684838162198764  0.45671133817656795  1.0000
  O   O1        1.0  0.45835710595427054  0.7259548870573626  0.20867446223549996  1.0000
  O   O2        1.0  0.5416434847224424  0.2740475432135981  0.7913244212755401  1.0000
  O   O3        1.0  0.5935176799586372  0.8559339518922755  0.36612967009366326  1.0000
  O   O4        1.0  0.40649917493529847  0.1440613908953878  0.6338747643494713  1.0000
  O   O5        1.0  0.01861286645767993  0.756145199225074  0.2751886285448748  1.0000
  O   O6        1.0  0.9813854368565985  0.24384733901423772  0.7248108068127479  1.0000
  O   O7        1.0  0.9553287579002542  0.9621218800859169  0.3341255974059152  1.0000
  O   O8        1.0  0.044681437421481  0.037883240887957505  0.6658659871518608  1.0000
  O   O9        1.0  0.25830767721667064  0.9798879934867841  0.43996767824135224  1.0000
  O   O10       1.0  0.7416975603792508  0.0201124117889577  0.5600327912502863  1.0000
