data_image0
_chemical_formula_structural       Zn8H32C80Cl8O26
_chemical_formula_sum              "Zn8 H32 C80 Cl8 O26"
_cell_length_a       23.870831251242628
_cell_length_b       23.872396671666223
_cell_length_c       23.870572454152615
_cell_angle_alpha    66.84802877443748
_cell_angle_beta     72.34306338888143
_cell_angle_gamma    107.66616933596403

_space_group_name_H-M_alt    "P 1"
_space_group_IT_number       1

loop_
  _space_group_symop_operation_xyz
  'x, y, z'

loop_
  _atom_site_type_symbol
  _atom_site_label
  _atom_site_symmetry_multiplicity
  _atom_site_fract_x
  _atom_site_fract_y
  _atom_site_fract_z
  _atom_site_occupancy
  Zn  Zn1       1.0  0.05763523092203145  0.9580889051540923  0.48428798567076126  1.0000
  Zn  Zn2       1.0  0.05763208981117173  0.09954528021271608  0.45808967852527627  1.0000
  Zn  Zn3       1.0  0.9423597581715771  0.984286903759738  0.4580809723263853  1.0000
  Zn  Zn4       1.0  0.9423770468294779  0.9580828705967832  0.5995498808605859  1.0000
  Zn  Zn5       1.0  0.9423664457419252  0.5419114232375007  0.01571148886598912  1.0000
  Zn  Zn6       1.0  0.0576413032463067  0.5157169703636272  0.04191812819376389  1.0000
  Zn  Zn7       1.0  0.9423671688858165  0.4004529448703308  0.04191562201315689  1.0000
  Zn  Zn8       1.0  0.05762030005504945  0.5419114861572752  0.9004509581674328  1.0000
  H   H1        1.0  0.9238702147659129  0.6521767569821934  0.11258333301453383  1.0000
  H   H2        1.0  0.9235293450043972  0.7149434399563576  0.1752337423154841  1.0000
  H   H3        1.0  0.07645806259994016  0.6752172468467778  0.21498580596771427  1.0000
  H   H4        1.0  0.07612780944206338  0.6125767109946807  0.1522089975356877  1.0000
  H   H5        1.0  0.9235343991910415  0.8247681621531768  0.28502694954749336  1.0000
  H   H6        1.0  0.9238688313009574  0.8874180639481749  0.347792515754293  1.0000
  H   H7        1.0  0.07607707740749738  0.8477604313998911  0.38748263931787363  1.0000
  H   H8        1.0  0.07641269062898474  0.7849827837479708  0.324842753187916  1.0000
  H   H9        1.0  0.07614274982850606  0.46352007244991716  0.771702864425194  1.0000
  H   H10       1.0  0.07647750001478941  0.40121014985808057  0.7085960331423139  1.0000
  H   H11       1.0  0.9235433656689197  0.20856014326340505  0.9012481817895761  1.0000
  H   H12       1.0  0.9238814630814434  0.27166878822097107  0.9635577710214916  1.0000
  H   H13       1.0  0.07641706359717658  0.29142830752404336  0.5987633058591156  1.0000
  H   H14       1.0  0.07607964783438353  0.22831982367974749  0.5364534467253605  1.0000
  H   H15       1.0  0.9238690634890716  0.0364537158280668  0.7283210512257057  1.0000
  H   H16       1.0  0.9235365562264588  0.09876484002113262  0.7914271485699587  1.0000
  H   H17       1.0  0.7352289151568459  0.46354001946374984  0.11255833966291816  1.0000
  H   H18       1.0  0.6098107840351406  0.40123094118889924  0.17520212836913637  1.0000
  H   H19       1.0  0.6098070215742057  0.20856596612394182  0.21498471398555102  1.0000
  H   H20       1.0  0.7352244995087817  0.2716721872254978  0.1522144761168819  1.0000
  H   H21       1.0  0.3901942171024119  0.2914394174005039  0.28500292093106333  1.0000
  H   H22       1.0  0.2647757053388845  0.22833061144152106  0.3477803560117111  1.0000
  H   H23       1.0  0.264776129631997  0.03647793865223285  0.3873729134399753  1.0000
  H   H24       1.0  0.3901909628813199  0.09878891010796305  0.32472099814466304  1.0000
  H   H25       1.0  0.264781207204088  0.6125395578607994  0.9635390326570742  1.0000
  H   H26       1.0  0.390198537026919  0.6751801581667821  0.9012314459906107  1.0000
  H   H27       1.0  0.3901815114882582  0.7149714725075924  0.7085604342224769  1.0000
  H   H28       1.0  0.26476657532565906  0.6522042755309628  0.7716649984402933  1.0000
  H   H29       1.0  0.6098207159399964  0.7850163233461913  0.7914423521176844  1.0000
  H   H30       1.0  0.7352373023607514  0.8477929672159945  0.7283331442938278  1.0000
  H   H31       1.0  0.7352134056516069  0.8873917418966926  0.5364757685336344  1.0000
  H   H32       1.0  0.6097978776691095  0.8247415048018781  0.5987874474736119  1.0000
  C   C1        1.0  0.18255959658922905  0.0912874401419828  0.40871324212033505  1.0000
  C   C2        1.0  0.9999973254960963  0.1366611966531721  0.36334259180462414  1.0000
  C   C3        1.0  0.9999930124047937  0.9087212465439973  0.4087253407200466  1.0000
  C   C4        1.0  0.8174416639367268  0.9087120710339532  0.5912916421968506  1.0000
  C   C5        1.0  8.860718672893086e-06  0.863341154390973  0.6366584246565167  1.0000
  C   C6        1.0  0.9999948630677055  0.09127704102734645  0.5912814738339165  1.0000
  C   C7        1.0  3.0770375781519166e-07  0.5912707406985191  0.09128581781079952  1.0000
  C   C8        1.0  3.1210744140702087e-06  0.36334133525146234  0.1366610697793504  1.0000
  C   C9        1.0  0.8174393327653888  0.4087130343868066  0.09127535194218699  1.0000
  C   C10       1.0  0.9999963328669141  0.4087085579037364  0.9087288542764754  1.0000
  C   C11       1.0  0.9999952588080421  0.6366558095072179  0.8633393358876731  1.0000
  C   C12       1.0  0.1825566716316658  0.5912754698090409  0.908707814787391  1.0000
  C   C13       1.0  1.7255925757303399e-06  0.8052610620781026  0.6947380246003404  1.0000
  C   C14       1.0  0.9999980183135834  0.6947362127475357  0.8052634516350494  1.0000
  C   C15       1.0  0.9570742708954898  0.7769705810593804  0.7659519460297304  1.0000
  C   C16       1.0  0.04292771593433297  0.723027895367494  0.7340487962670393  1.0000
  C   C17       1.0  0.9570727715103263  0.7230250775310127  0.8198980988162464  1.0000
  C   C18       1.0  0.04292853369112509  0.7769732355850678  0.6801012385377518  1.0000
  C   C19       1.0  0.9999991390111379  0.19473700982809566  0.3052646146273331  1.0000
  C   C20       1.0  3.7923073252065345e-06  0.30526644647715534  0.19473918696153455  1.0000
  C   C21       1.0  0.9570745303709104  0.18010588280242956  0.27696608210801793  1.0000
  C   C22       1.0  0.042927521318006416  0.31989669467751725  0.2230383323269507  1.0000
  C   C23       1.0  0.9570730613008182  0.2340510223746079  0.22302264725222917  1.0000
  C   C24       1.0  0.04292874855847379  0.2659518328553361  0.2769813119503794  1.0000
  C   C25       1.0  0.9999979603096424  0.6286658537679061  0.1286905661398166  1.0000
  C   C26       1.0  0.9569805837475872  0.6575686903664462  0.13523938472845742  1.0000
  C   C27       1.0  0.9568220516137773  0.692419934198476  0.17001642529341138  1.0000
  C   C28       1.0  0.9999930106255879  0.6991910173501809  0.19922413484959364  1.0000
  C   C29       1.0  0.04316778417722146  0.6699956504010417  0.19245320709720198  1.0000
  C   C30       1.0  0.04301486700717335  0.635225587355187  0.157595594464638  1.0000
  C   C31       1.0  0.9999869830689151  0.7346518999167982  0.23470369862319262  1.0000
  C   C32       1.0  0.9999823259660092  0.7652934404104244  0.2653510457185746  1.0000
  C   C33       1.0  0.9999736169928546  0.8007630754467673  0.30082294295326734  1.0000
  C   C34       1.0  0.9568143638408276  0.8299789398896635  0.3075711262039745  1.0000
  C   C35       1.0  0.9569689087792528  0.8647537409290464  0.34242051279176183  1.0000
  C   C36       1.0  0.9999727585558633  0.8712995964453824  0.37134409179569877  1.0000
  C   C37       1.0  0.0429756589099671  0.8423789933995848  0.3648147121993474  1.0000
  C   C38       1.0  0.04313040805136848  0.8075198190487284  0.3300482279710765  1.0000
  C   C39       1.0  1.156377888389451e-05  0.371302416096107  0.8713362841434958  1.0000
  C   C40       1.0  0.043030530375958255  0.40776006212577437  0.7994186831021397  1.0000
  C   C41       1.0  0.04318698196787813  0.37314363647901416  0.764411015400164  1.0000
  C   C42       1.0  9.784627856455972e-06  0.3007736543027093  0.8008099417833918  1.0000
  C   C43       1.0  0.9568369751307063  0.26437675459730053  0.8731803122912042  1.0000
  C   C44       1.0  0.9569928916524193  0.2993861811793864  0.9077964268536789  1.0000
  C   C45       1.0  0.9999995676714167  0.2653034954821365  0.7653388628022669  1.0000
  C   C46       1.0  0.9999891421452317  0.2346707905091493  0.7346838006041735  1.0000
  C   C47       1.0  0.9999790519753019  0.19920575962832035  0.6992082387289004  1.0000
  C   C48       1.0  0.04313409609424927  0.23560985493924136  0.6268320309023494  1.0000
  C   C49       1.0  0.04297861940332842  0.20060086612166833  0.5922143537833621  1.0000
  C   C50       1.0  0.9999742166960887  0.12867862205590075  0.6286809243904871  1.0000
  C   C51       1.0  0.9569703114801984  0.09221783333027363  0.7006002318625022  1.0000
  C   C52       1.0  0.9568163884807034  0.1268341884649968  0.73560925645716  1.0000
  C   C53       1.0  0.7426408091889061  0.3713132007399836  0.12867747714479102  1.0000
  C   C54       1.0  0.7071860682267471  0.4077766499578388  0.13522005331567039  1.0000
  C   C55       1.0  0.6375595643445992  0.3731608710521784  0.16999330222859743  1.0000
  C   C56       1.0  0.6015863166048946  0.3007875770335103  0.19920131332879984  1.0000
  C   C57       1.0  0.637556927697581  0.2643866374859698  0.1924443926484899  1.0000
  C   C58       1.0  0.7071836540421331  0.2993937132529468  0.157592188643335  1.0000
  C   C59       1.0  0.5306463852693853  0.26532691250722  0.23465927768598493  1.0000
  C   C60       1.0  0.4693577145198945  0.23469688308858133  0.2652871356829891  1.0000
  C   C61       1.0  0.39841749623636963  0.19922709279691012  0.300748366420244  1.0000
  C   C62       1.0  0.36244437760161935  0.23562243035890162  0.3075254311925164  1.0000
  C   C63       1.0  0.2928186623879939  0.20061325197556112  0.3423831852818394  1.0000
  C   C64       1.0  0.25736097987631723  0.1286953006172737  0.37128488293793543  1.0000
  C   C65       1.0  0.2928202294585845  0.09223893438434058  0.3647222296375645  1.0000
  C   C66       1.0  0.36244460074529883  0.1268562153804424  0.32994400696535564  1.0000
  C   C67       1.0  0.2573584480689278  0.6286639957719798  0.8713091635632964  1.0000
  C   C68       1.0  0.2928179902030269  0.6352004667627044  0.9077771998048263  1.0000
  C   C69       1.0  0.36244527961729767  0.6699706933388399  0.873160653550471  1.0000
  C   C70       1.0  0.3984139518479426  0.6991875102695175  0.8007858529296429  1.0000
  C   C71       1.0  0.36243935913223907  0.6924341313589795  0.7643791423680285  1.0000
  C   C72       1.0  0.2928120988915028  0.657580183376382  0.7993877121674587  1.0000
  C   C73       1.0  0.4693544996874125  0.7346550291402208  0.7653245802222769  1.0000
  C   C74       1.0  0.5306446665223491  0.765292796673009  0.7346965694293461  1.0000
  C   C75       1.0  0.601584071681444  0.8007654045461835  0.6992273521078972  1.0000
  C   C76       1.0  0.6375624272500462  0.807542822259073  0.735625539206211  1.0000
  C   C77       1.0  0.7071895120915246  0.8424007520898016  0.700613776700223  1.0000
  C   C78       1.0  0.7426413360201499  0.8713010723754594  0.6286957837260586  1.0000
  C   C79       1.0  0.7071763820489069  0.8647415141172629  0.5922359760536438  1.0000
  C   C80       1.0  0.6375502353844243  0.8299661913967072  0.626855023677116  1.0000
  Cl  Cl1       1.0  0.9021808199125023  0.8055055157060949  0.7923042520973169  1.0000
  Cl  Cl2       1.0  0.09782321185051072  0.6944934457087373  0.7076969366274  1.0000
  Cl  Cl3       1.0  0.9021795493923291  0.6944852299956916  0.9033268554428917  1.0000
  Cl  Cl4       1.0  0.09781990886643425  0.805513314745703  0.5966708551165921  1.0000
  Cl  Cl5       1.0  0.9021812577139414  0.09667825392410367  0.30549470543237334  1.0000
  Cl  Cl6       1.0  0.09781958480016345  0.4033257150527447  0.19450952639650856  1.0000
  Cl  Cl7       1.0  0.9021844202952067  0.20770771152458412  0.1944700072688832  1.0000
  Cl  Cl8       1.0  0.0978142231450506  0.292294060388997  0.3055357566752548  1.0000
  O   O1        1.0  1.0898552388999898e-06  1.3068863041001318e-06  0.49999884202956224  1.0000
  O   O2        1.0  0.1534241561486525  0.025990654047880882  0.4331159988383817  1.0000
  O   O3        1.0  0.039905351004748034  0.1542065899158302  0.3856932999564506  1.0000
  O   O4        1.0  0.9590904668327914  0.9331176932526618  0.413456976598603  1.0000
  O   O5        1.0  0.15342355134897195  0.12743960008352673  0.41347057957542427  1.0000
  O   O6        1.0  0.040897689162108425  0.9134727786628006  0.43311412104657876  1.0000
  O   O7        1.0  0.960078214124678  0.07440028511638273  0.38569836539964103  1.0000
  O   O8        1.0  0.8465724544290086  0.9331097977340973  0.5259948760549591  1.0000
  O   O9        1.0  0.9601050519889541  0.8856969205680156  0.6542107936044275  1.0000
  O   O10       1.0  0.8465822047336573  0.9134572842319599  0.6274499721329008  1.0000
  O   O11       1.0  0.03991205702286759  0.8856954550806647  0.5744031706124204  1.0000
  O   O12       1.0  0.04089241246262532  0.1274325983412581  0.525989897613691  1.0000
  O   O13       1.0  0.9591042523406015  0.0259764566670456  0.6274476493497048  1.0000
  O   O14       1.0  1.0905901534986936e-06  0.5000011136279526  0.9999996149793021  1.0000
  O   O15       1.0  0.9590957851138102  0.5865209179081177  0.06689296538529983  1.0000
  O   O16       1.0  0.03992223244048912  0.4256022473376363  0.11430571489547955  1.0000
  O   O17       1.0  0.8465732664765823  0.37255670238997846  0.08653328557899433  1.0000
  O   O18       1.0  0.040906680128671394  0.5668812279478885  0.0865435863498973  1.0000
  O   O19       1.0  0.8465770161029413  0.47401102482904617  0.06687395484127025  1.0000
  O   O20       1.0  0.9600949414357628  0.3457942288147393  0.11431150274842138  1.0000
  O   O21       1.0  0.9590928631051981  0.3725546881354304  0.9740203917834904  1.0000
  O   O22       1.0  0.03989181125235325  0.6142979900378975  0.8457878788253981  1.0000
  O   O23       1.0  0.04088907011523464  0.47400535991707227  0.8725686445741943  1.0000
  O   O24       1.0  0.9600927666380205  0.6143063793798262  0.9255983211798197  1.0000
  O   O25       1.0  0.1534267394249086  0.5668843246477451  0.974005496211831  1.0000
  O   O26       1.0  0.15341650545567392  0.5865373941992614  0.8725499083803002  1.0000
