data_image0
_chemical_formula_structural       CdH32C38S2N14
_chemical_formula_sum              "Cd1 H32 C38 S2 N14"
_cell_length_a       9.236065104898255
_cell_length_b       9.386535445561394
_cell_length_c       13.86689541362525
_cell_angle_alpha    90.0603911075538
_cell_angle_beta     90.13668977658564
_cell_angle_gamma    60.52983418686007

_space_group_name_H-M_alt    "P 1"
_space_group_IT_number       1

loop_
  _space_group_symop_operation_xyz
  'x, y, z'

loop_
  _atom_site_type_symbol
  _atom_site_label
  _atom_site_symmetry_multiplicity
  _atom_site_fract_x
  _atom_site_fract_y
  _atom_site_fract_z
  _atom_site_occupancy
  Cd  Cd1       1.0  4.070953629295927e-06  0.9999984330904609  6.256832030300535e-06  1.0000
  H   H1        1.0  0.7487982431696594  0.7892600385213483  0.016496377256402205  1.0000
  H   H2        1.0  0.46179768630806  0.7893389654168671  0.9835061771755138  1.0000
  H   H3        1.0  0.25120149669404424  0.21073642765306744  0.9835061392842309  1.0000
  H   H4        1.0  0.538200428711768  0.21065627722065017  0.016494942591336312  1.0000
  H   H5        1.0  0.19751647523223442  0.6782880563624829  0.15499622692475876  1.0000
  H   H6        1.0  0.1242156841937714  0.6781305573524747  0.8449930877080123  1.0000
  H   H7        1.0  0.80249550388794  0.32168760792819034  0.8449997585129838  1.0000
  H   H8        1.0  0.8757684908888309  0.32188181675683575  0.155008864092288  1.0000
  H   H9        1.0  0.2486691336139016  0.42471860984026233  0.24140370679091924  1.0000
  H   H10       1.0  0.3265742702970443  0.42481494720509977  0.7586015636333701  1.0000
  H   H11       1.0  0.7513398976686076  0.5752668444663415  0.7585879087045557  1.0000
  H   H12       1.0  0.6734146122813202  0.5751815189548355  0.24140045596101342  1.0000
  H   H13       1.0  0.18283768955380716  0.3078379981108839  0.17383916108584435  1.0000
  H   H14       1.0  0.5092960418792813  0.30777816578081746  0.8261732671132622  1.0000
  H   H15       1.0  0.8171581069584877  0.6921486789178884  0.8261599309457426  1.0000
  H   H16       1.0  0.4906975400633938  0.6922280902953092  0.17382566743667383  1.0000
  H   H17       1.0  0.9272012570027786  0.6802291264754389  0.3294227313821879  1.0000
  H   H18       1.0  0.3925121855124943  0.6801939826288077  0.6705922626106542  1.0000
  H   H19       1.0  0.07280926693258753  0.31976856467722564  0.670569447723061  1.0000
  H   H20       1.0  0.6074705686335236  0.3198073792601335  0.3294011743842163  1.0000
  H   H21       1.0  0.7647165190528257  0.6790809199596451  0.46910514383478147  1.0000
  H   H22       1.0  0.5562466270308735  0.6791701394488782  0.5309772624803275  1.0000
  H   H23       1.0  0.23528674473456593  0.3209400211845547  0.5308876655929353  1.0000
  H   H24       1.0  0.44375373065960133  0.3208312219223258  0.4690215827261286  1.0000
  H   H25       1.0  0.9391062276846186  0.16531489632664179  0.4243105533664676  1.0000
  H   H26       1.0  0.895476132338011  0.16525397896942448  0.5756407473470376  1.0000
  H   H27       1.0  0.06087954275318451  0.8347035954922574  0.5756977958164385  1.0000
  H   H28       1.0  0.10452596226571141  0.8347510527292242  0.42436451772535133  1.0000
  H   H29       1.0  0.10856936636763949  0.16554934694161721  0.2874542468414347  1.0000
  H   H30       1.0  0.7257766270097434  0.16546924487156642  0.7125172325497148  1.0000
  H   H31       1.0  0.8914210719615385  0.8344507899683434  0.712550588636397  1.0000
  H   H32       1.0  0.2742127318373449  0.8345345638673224  0.2874810932271573  1.0000
  C   C1        1.0  0.8606519639513196  0.7285789659064578  0.06023818019260572  1.0000
  C   C2        1.0  0.41072200543800347  0.7285336999748964  0.9397959281923678  1.0000
  C   C3        1.0  0.13934575325986037  0.27141505286600426  0.939764403601416  1.0000
  C   C4        1.0  0.5892736226507722  0.2714639904475647  0.06020160987871043  1.0000
  C   C5        1.0  0.08659025933266666  0.6775988361604774  0.13025165528829777  1.0000
  C   C6        1.0  0.2357904331479831  0.6775410219006659  0.8697692690615925  1.0000
  C   C7        1.0  0.9134130065910709  0.3223902882352334  0.8697479783612752  1.0000
  C   C8        1.0  0.7641977382682725  0.3224652341259642  0.13022977741346867  1.0000
  C   C9        1.0  0.13779932654204424  0.42051255044862057  0.21626660804484032  1.0000
  C   C10       1.0  0.4417086971240137  0.4204662160767115  0.7837450410106401  1.0000
  C   C11       1.0  0.8622052743656783  0.5794777981601128  0.7837286560065523  1.0000
  C   C12       1.0  0.5582772738491782  0.579540040014635  0.21625332943797562  1.0000
  C   C13       1.0  0.0321514657242759  0.4221956231384496  0.2996488469326125  1.0000
  C   C14       1.0  0.545647665380706  0.42218621147327434  0.7003880723818697  1.0000
  C   C15       1.0  0.9678653315733855  0.5777971719471465  0.7003547979581345  1.0000
  C   C16       1.0  0.45434100916975234  0.577818821120779  0.2996088117528544  1.0000
  C   C17       1.0  0.930907765571291  0.5665017933931011  0.35053463614691094  1.0000
  C   C18       1.0  0.5025993749784233  0.5665114838569069  0.6495092586511293  1.0000
  C   C19       1.0  0.06910463683536244  0.43349712070484964  0.6494639853076124  1.0000
  C   C20       1.0  0.4973877109606307  0.43349232511572916  0.3504869495063049  1.0000
  C   C21       1.0  0.8368876117985524  0.5662117546101655  0.4286207561521494  1.0000
  C   C22       1.0  0.5969178575937805  0.5662141551224593  0.5714079135884733  1.0000
  C   C23       1.0  0.163118096692287  0.43380061995068075  0.5713785855581721  1.0000
  C   C24       1.0  0.4030790431297291  0.4337921008143368  0.42859239539938443  1.0000
  C   C25       1.0  0.8386421207847689  0.4220392109719456  0.4583061157580134  1.0000
  C   C26       1.0  0.7393325252476758  0.42205076101679845  0.5417253971039458  1.0000
  C   C27       1.0  0.16136740699791133  0.5779682681781536  0.5416989701358832  1.0000
  C   C28       1.0  0.260671016409397  0.577957941685412  0.458280521462406  1.0000
  C   C29       1.0  0.9386266352422864  0.27847904909047827  0.4057879780674512  1.0000
  C   C30       1.0  0.7828344909502504  0.2784485009708959  0.5942338847289153  1.0000
  C   C31       1.0  0.06137308449974905  0.7215308771836534  0.5942187284013231  1.0000
  C   C32       1.0  0.2171629525118489  0.7215589784928939  0.40576784341775624  1.0000
  C   C33       1.0  0.034577534097607616  0.2780366835368326  0.3281527130639007  1.0000
  C   C34       1.0  0.6873026464790116  0.2780104409679893  0.6718484531358657  1.0000
  C   C35       1.0  0.9654191103752936  0.7219659011527427  0.671849082434463  1.0000
  C   C36       1.0  0.3126914057372829  0.7219970388041688  0.32815045897989853  1.0000
  C   C37       1.0  0.29118023969213874  0.00014110332487860005  0.13828263324785445  1.0000
  C   C38       1.0  0.7088523517717676  0.9998480210845738  0.861718558395552  1.0000
  S   S1        1.0  0.46458203020584676  0.00010489554126280003  0.15431547488018546  1.0000
  S   S2        1.0  0.5354540638245169  0.9998879001451046  0.8456841630976373  1.0000
  N   N1        1.0  0.9696694039768872  0.7862888164801377  0.07160471592968072  1.0000
  N   N2        1.0  0.24401111246442753  0.7862174510951548  0.9284268748078974  1.0000
  N   N3        1.0  0.030330619002896176  0.21370275492996174  0.928397845577621  1.0000
  N   N4        1.0  0.7559843412057247  0.21378513383806563  0.07157278068599743  1.0000
  N   N5        1.0  0.9035911345524424  0.5914969802607999  0.10886353328687194  1.0000
  N   N6        1.0  0.5048959955033753  0.5914781789300035  0.8911676277001066  1.0000
  N   N7        1.0  0.09640704956045447  0.40849581516359734  0.8911361673703129  1.0000
  N   N8        1.0  0.4950945836351365  0.4085207353925354  0.10882783747242543  1.0000
  N   N9        1.0  0.04834890928734135  0.560988033561827  0.15283993137705212  1.0000
  N   N10       1.0  0.39065668952299853  0.5609307084064952  0.8471957918713644  1.0000
  N   N11       1.0  0.9516508962975222  0.43900353835537226  0.8471583053512719  1.0000
  N   N12       1.0  0.6093279128569264  0.4390779953951737  0.15279969529294857  1.0000
  N   N13       1.0  0.16254582698773126  0.00016093772146060002  0.12876445679413  1.0000
  N   N14       1.0  0.8374853207947198  0.9998269627285125  0.8712389420579714  1.0000
