data_image0
_chemical_formula_structural       Er4H32C28N4O32
_chemical_formula_sum              "Er4 H32 C28 N4 O32"
_cell_length_a       7.443002210753061
_cell_length_b       9.243097304141912
_cell_length_c       15.657653891205259
_cell_angle_alpha    105.43083069077535
_cell_angle_beta     89.99858898532476
_cell_angle_gamma    89.99958258861328

_space_group_name_H-M_alt    "P 1"
_space_group_IT_number       1

loop_
  _space_group_symop_operation_xyz
  'x, y, z'

loop_
  _atom_site_type_symbol
  _atom_site_label
  _atom_site_symmetry_multiplicity
  _atom_site_fract_x
  _atom_site_fract_y
  _atom_site_fract_z
  _atom_site_occupancy
  Er  Er1       1.0  0.17943454939357653  0.9944476538224478  0.7496082785499851  1.0000
  Er  Er2       1.0  0.6794365768880015  0.505553185127269  0.7503966481079657  1.0000
  Er  Er3       1.0  0.8205763220188375  0.005567816836617101  0.250399662325421  1.0000
  Er  Er4       1.0  0.3205648900755024  0.49444223887783073  0.24960097595653247  1.0000
  H   H1        1.0  0.8838648260075318  0.19234261362879576  0.8050071085794599  1.0000
  H   H2        1.0  0.38385791050788504  0.30767084431900577  0.6949980535376453  1.0000
  H   H3        1.0  0.11614201506236552  0.8076550128749888  0.19499279317657428  1.0000
  H   H4        1.0  0.6161422127536299  0.6923255759916458  0.305005482529772  1.0000
  H   H5        1.0  0.9198333308439645  0.14619176319162358  0.8974538489646446  1.0000
  H   H6        1.0  0.41983886703464895  0.35381445893982283  0.6025529021547058  1.0000
  H   H7        1.0  0.0801573877026698  0.85380360489512  0.10254632084194523  1.0000
  H   H8        1.0  0.5801558819296772  0.6461863804607971  0.39745455298773175  1.0000
  H   H9        1.0  0.5019813424914689  0.8061844516673347  0.6968844786239143  1.0000
  H   H10       1.0  0.0019792349616665  0.6938277076469817  0.8031147811772354  1.0000
  H   H11       1.0  0.49801475009910945  0.1938164577038819  0.30311979442286935  1.0000
  H   H12       1.0  0.9980195449869244  0.30617456189465037  0.19687885699507748  1.0000
  H   H13       1.0  0.47205798769275026  0.8228452709315306  0.7953101677007126  1.0000
  H   H14       1.0  0.9720568180860456  0.6771711581821762  0.7046926515272743  1.0000
  H   H15       1.0  0.527936761383721  0.17715792495312846  0.20469256457927534  1.0000
  H   H16       1.0  0.027947336011727903  0.3228322195905164  0.2953018072639323  1.0000
  H   H17       1.0  0.43753976674035755  0.8806477418329024  0.5743653294787167  1.0000
  H   H18       1.0  0.9375330069182085  0.6193637287277483  0.9256262174153064  1.0000
  H   H19       1.0  0.5624711048859722  0.11936225748807062  0.4256353260335216  1.0000
  H   H20       1.0  0.062468459927338016  0.3806451623863794  0.07437361750535838  1.0000
  H   H21       1.0  0.2897793339000998  0.9937604597454806  0.5611607801635187  1.0000
  H   H22       1.0  0.789758125071252  0.50624940566275  0.9388328535013882  1.0000
  H   H23       1.0  0.7102275071697974  0.006237166758303703  0.43883912159250826  1.0000
  H   H24       1.0  0.21023796777021891  0.49376076169583183  0.06116016510330271  1.0000
  H   H25       1.0  0.5424725060816584  0.3834541823358961  0.016109172560355493  1.0000
  H   H26       1.0  0.04248588053323489  0.11653226679472081  0.48389145010064977  1.0000
  H   H27       1.0  0.4575262734871331  0.6165308054559588  0.9839020673956822  1.0000
  H   H28       1.0  0.9575276783091909  0.8834744497072506  0.516104834175472  1.0000
  H   H29       1.0  0.27144268015489104  0.0362677834349796  0.10504391917628907  1.0000
  H   H30       1.0  0.7714626347793186  0.46372595863053334  0.3949578034414145  1.0000
  H   H31       1.0  0.7285372899708378  0.963712827399412  0.8949614926167013  1.0000
  H   H32       1.0  0.22854286269147653  0.5362874494871903  0.6050414955693597  1.0000
  C   C1        1.0  0.14922874110207826  0.8816099194208961  0.934018640205366  1.0000
  C   C2        1.0  0.6492178434850971  0.6183893319607846  0.5659729627561276  1.0000
  C   C3        1.0  0.8507713824759549  0.11839016157742319  0.06597208381257498  1.0000
  C   C4        1.0  0.35076884463428126  0.3816073403537956  0.43401911789076303  1.0000
  C   C5        1.0  0.2585089195969204  0.02438634875061751  0.9653196728140967  1.0000
  C   C6        1.0  0.7585031567555092  0.47560970504883227  0.5346764195059064  1.0000
  C   C7        1.0  0.7414710508872703  0.9755798686559346  0.03467443404238684  1.0000
  C   C8        1.0  0.24147815693542904  0.5244025809551046  0.46532269543076404  1.0000
  C   C9        1.0  0.39882363508194624  0.2137492771931447  0.918432339664619  1.0000
  C   C10       1.0  0.8988238540878156  0.2862549669066182  0.5815736913948157  1.0000
  C   C11       1.0  0.6011805187218685  0.7862402835771718  0.0815758187031861  1.0000
  C   C12       1.0  0.1011776127311421  0.7137493791882294  0.41842795224303597  1.0000
  C   C13       1.0  0.4315823192730335  0.27630348592319365  0.8406246173209553  1.0000
  C   C14       1.0  0.9315844303626407  0.22370831831075577  0.6593778044095373  1.0000
  C   C15       1.0  0.5684312395156611  0.7236828339749692  0.1593772605132813  1.0000
  C   C16       1.0  0.06843181550480888  0.7762960836782398  0.34062129345890196  1.0000
  C   C17       1.0  0.4605171284097906  0.2825103873521613  0.002836321693486398  1.0000
  C   C18       1.0  0.9605151734464884  0.2174832014261838  0.4971689343018325  1.0000
  C   C19       1.0  0.5394950867526448  0.7174758625753982  0.9971687382364037  1.0000
  C   C20       1.0  0.039490323955206505  0.7825324092225115  0.5028326424368998  1.0000
  C   C21       1.0  0.40897989637792154  0.2232880249805405  0.07372519328946939  1.0000
  C   C22       1.0  0.9089904988131751  0.27670856748473227  0.4262747655377054  1.0000
  C   C23       1.0  0.5910135093518463  0.7767040322957327  0.9262718781156278  1.0000
  C   C24       1.0  0.09101499852636151  0.7233160352323864  0.5737276486878142  1.0000
  C   C25       1.0  0.30995246950232064  0.08730172538436422  0.0525516167650437  1.0000
  C   C26       1.0  0.809967467311779  0.41269729122277  0.4474447773002694  1.0000
  C   C27       1.0  0.6900248138585569  0.9126780291260347  0.9474415188792589  1.0000
  C   C28       1.0  0.1900286253094094  0.587322864501715  0.5525549907850191  1.0000
  N   N1        1.0  0.29814891177944247  0.08842024810175532  0.8997122096849637  1.0000
  N   N2        1.0  0.7981430013536935  0.4115810106466284  0.6002810843988016  1.0000
  N   N3        1.0  0.7018633034523702  0.9115694525774674  0.10028958445510484  1.0000
  N   N4        1.0  0.2018571221159249  0.5884257619190051  0.39971265429915087  1.0000
  O   O1        1.0  0.10073788929727809  0.8056346716816593  0.9860143400307704  1.0000
  O   O2        1.0  0.6007303549502866  0.6943684031761138  0.5139842006965336  1.0000
  O   O3        1.0  0.8992461117011245  0.19435631937496814  0.013980001530818187  1.0000
  O   O4        1.0  0.3992563328629616  0.30563479275697597  0.4860185316380948  1.0000
  O   O5        1.0  0.11119532799519762  0.8471620984331311  0.8509392744144433  1.0000
  O   O6        1.0  0.611189207419038  0.6528353514268659  0.6490531120186986  1.0000
  O   O7        1.0  0.8888047954573894  0.1528333535715021  0.1490570768245476  1.0000
  O   O8        1.0  0.3887907629150789  0.34716126494514293  0.3509415143429634  1.0000
  O   O9        1.0  0.3409489435564482  0.21573967443308817  0.770527744672485  1.0000
  O   O10       1.0  0.840958959020334  0.28428012033456446  0.7294693740074435  1.0000
  O   O11       1.0  0.6590592410538607  0.7842545572938989  0.22947287719502898  1.0000
  O   O12       1.0  0.1590478822738746  0.7157222191373053  0.2705210820236843  1.0000
  O   O13       1.0  0.5411006308470974  0.3832978068959322  0.8477957601774689  1.0000
  O   O14       1.0  0.04109362459559661  0.11670975345259649  0.6522085716416015  1.0000
  O   O15       1.0  0.45892905022117964  0.6166939562519789  0.1522146757452703  1.0000
  O   O16       1.0  0.958922621255937  0.8833059411059309  0.3477891865204227  1.0000
  O   O17       1.0  0.4510962035551104  0.2932369521325242  0.15589101258962754  1.0000
  O   O18       1.0  0.9511237972440157  0.20673659099659858  0.3441091453748015  1.0000
  O   O19       1.0  0.5488730183112979  0.7067312999207687  0.8441130090753786  1.0000
  O   O20       1.0  0.048883043720934403  0.7932711218432189  0.6558930509406622  1.0000
  O   O21       1.0  0.9362035662513507  0.11504079932373659  0.8320221060278639  1.0000
  O   O22       1.0  0.4361973603550667  0.3849810777531246  0.6679806384230813  1.0000
  O   O23       1.0  0.063796557096012  0.8849590857343087  0.16797752783241285  1.0000
  O   O24       1.0  0.5637933580441157  0.6150311242199039  0.3320222949537098  1.0000
  O   O25       1.0  0.44157259985917824  0.8762089141645645  0.7489095593724711  1.0000
  O   O26       1.0  0.9415560625511789  0.6238101678684203  0.7510921324290931  1.0000
  O   O27       1.0  0.558434241049696  0.12379762043323686  0.2510949983742137  1.0000
  O   O28       1.0  0.058438686772447616  0.3761932379522435  0.24890105359123985  1.0000
  O   O29       1.0  0.3652021546061163  0.9682283613712245  0.6057889900747639  1.0000
  O   O30       1.0  0.8651884101136248  0.5317884255110172  0.8942061836446129  1.0000
  O   O31       1.0  0.6348167782672431  0.0317872771882222  0.39421131373828183  1.0000
  O   O32       1.0  0.13482514866954176  0.46821937126284047  0.10579219412145587  1.0000
