data_image0
_chemical_formula_structural       Ag4H48C52S8N4O12
_chemical_formula_sum              "Ag4 H48 C52 S8 N4 O12"
_cell_length_a       5.177775638
_cell_length_b       15.044950151893609
_cell_length_c       17.831
_cell_angle_alpha    90.0
_cell_angle_beta     90.0
_cell_angle_gamma    93.08905508991627

_space_group_name_H-M_alt    "P 1"
_space_group_IT_number       1

loop_
  _space_group_symop_operation_xyz
  'x, y, z'

loop_
  _atom_site_type_symbol
  _atom_site_label
  _atom_site_symmetry_multiplicity
  _atom_site_fract_x
  _atom_site_fract_y
  _atom_site_fract_z
  _atom_site_occupancy
  Ag  Ag1       1.0  0.8270094486481058  0.1426337764385863  0.7334793337446044  1.0000
  Ag  Ag2       1.0  0.8270123763072448  0.6426381172234557  0.7665201054343527  1.0000
  Ag  Ag3       1.0  0.1729913019112814  0.8573615922903529  0.2665217878974815  1.0000
  Ag  Ag4       1.0  0.172990722492024  0.3573599140736405  0.23347821210251854  1.0000
  H   H1        1.0  0.4513419833754711  0.9415280344594805  0.6986871179406648  1.0000
  H   H2        1.0  0.4513440648775457  0.4415310157370557  0.8013061522068341  1.0000
  H   H3        1.0  0.5486605942880375  0.0584666686274176  0.3013078346699558  1.0000
  H   H4        1.0  0.5486614863887525  0.558470343770253  0.1986938477931659  1.0000
  H   H5        1.0  0.17439526189898666  0.9660882288278503  0.6446862206270012  1.0000
  H   H6        1.0  0.1744063746944988  0.4660872162531788  0.8553120969098771  1.0000
  H   H7        1.0  0.8255983886982394  0.0339111337533282  0.355313218551963  1.0000
  H   H8        1.0  0.8256007952216107  0.5339121463279995  0.1446879030901229  1.0000
  H   H9        1.0  0.2685151997656376  0.1835740901396079  0.8491329706690607  1.0000
  H   H10       1.0  0.2684918736195883  0.6835711088620329  0.6508569345521877  1.0000
  H   H11       1.0  0.731544324549077  0.8164266037256596  0.150854691268016  1.0000
  H   H12       1.0  0.7314717647370585  0.3164215972987421  0.3491402613426047  1.0000
  H   H13       1.0  0.6014098295694553  0.2173254698032139  0.9472065503897724  1.0000
  H   H14       1.0  0.6014105684583981  0.7173158321052426  0.5527867197577265  1.0000
  H   H15       1.0  0.39864421343290257  0.7826772209881696  0.0527799899052184  1.0000
  H   H16       1.0  0.398572119514121  0.2826875243281819  0.4472200100947816  1.0000
  H   H17       1.0  0.891636873897248  0.1012721113259261  0.9880573159104956  1.0000
  H   H18       1.0  0.891631297656609  0.6012591454177425  0.5119404408053398  1.0000
  H   H19       1.0  0.10840537266319221  0.8987292481813824  0.0119309068476241  1.0000
  H   H20       1.0  0.10838975324448091  0.3987548612883245  0.4880718972575835  1.0000
  H   H21       1.0  0.8547786703407568  0.9505255179209371  0.9304099601817057  1.0000
  H   H22       1.0  0.8547750130915474  0.4505165176417806  0.5695962088497595  1.0000
  H   H23       1.0  0.1452220802186304  0.049469850808002  0.0695917222814231  1.0000
  H   H24       1.0  0.1452572088885518  0.5494948264961366  0.4304122034658775  1.0000
  H   H25       1.0  0.5243892911681058  0.91533302323964  0.8322438449890655  1.0000
  H   H26       1.0  0.5243793677739532  0.4153333419490508  0.6677640065055214  1.0000
  H   H27       1.0  0.4755911038070622  0.0846556890688959  0.1677656889686503  1.0000
  H   H28       1.0  0.4756320817133144  0.5846686832002916  0.3322359934944785  1.0000
  H   H29       1.0  0.3346448442215149  0.2448937005526091  0.6982631372329067  1.0000
  H   H30       1.0  0.33463769831569573  0.7448953787693213  0.8017306937356281  1.0000
  H   H31       1.0  0.6653492232843163  0.7551083245967334  0.3017363019460504  1.0000
  H   H32       1.0  0.6653255721169701  0.2551073120220622  0.1982653805170784  1.0000
  H   H33       1.0  0.9837999764241658  0.339880154090082  0.6559934944759149  1.0000
  H   H34       1.0  0.9837907949599225  0.8398811666647532  0.8440031405978345  1.0000
  H   H35       1.0  0.0161921597503962  0.6601218710592605  0.3440053838820063  1.0000
  H   H36       1.0  0.0161739898953996  0.1601188615584661  0.1559979810442513  1.0000
  H   H37       1.0  0.7362013871833852  0.3008049693865473  0.5389462172620725  1.0000
  H   H38       1.0  0.7361995141356134  0.8008033193930546  0.961049856990634  1.0000
  H   H39       1.0  0.2637985785434083  0.6991977214048433  0.46105041781167705  1.0000
  H   H40       1.0  0.2637884466949529  0.19919670883016494  0.0389551903987453  1.0000
  H   H41       1.0  0.8524518265110927  0.1699111216162805  0.46282934215691535  1.0000
  H   H42       1.0  0.8524715107887532  0.6699114685489107  0.0371650496326623  1.0000
  H   H43       1.0  0.1475382741050453  0.8300902378910209  0.537167292916827  1.0000
  H   H44       1.0  0.1475436971338979  0.3300898909583907  0.9628383152935882  1.0000
  H   H45       1.0  0.1981014414588387  0.07419712132853823  0.5059469463294235  1.0000
  H   H46       1.0  0.19812733663891896  0.5742001308293327  0.99404856710224  1.0000
  H   H47       1.0  0.8018809338322157  0.9258042381787632  0.4940536144916123  1.0000
  H   H48       1.0  0.8018862526339205  0.425803225604092  0.0059514328977599  1.0000
  C   C1        1.0  0.3195490113630512  0.9937955787637095  0.6843878638326544  1.0000
  C   C2        1.0  0.3195507801836754  0.4937965631151613  0.8156076495990163  1.0000
  C   C3        1.0  0.6804485018967129  0.006203783817468901  0.3156059671358875  1.0000
  C   C4        1.0  0.6804449059719745  0.506203465108058  0.184390667937862  1.0000
  C   C5        1.0  0.3754848543241422  0.0471620698535844  0.8348987718019174  1.0000
  C   C6        1.0  0.3754707126833026  0.547168407564584  0.6651006673770397  1.0000
  C   C7        1.0  0.624536723970607  0.9528306363071906  0.165098424092875  1.0000
  C   C8        1.0  0.6245253903809456  0.4528342832267995  0.3349021367281679  1.0000
  C   C9        1.0  0.3955621193952368  0.1322883678451134  0.8671515899276514  1.0000
  C   C10       1.0  0.3955541396721927  0.6322847209255045  0.6328489708933844  1.0000
  C   C11       1.0  0.6044715680228947  0.8677076665258667  0.1328461667881768  1.0000
  C   C12       1.0  0.6044241645020136  0.3677153072977219  0.3671538332118232  1.0000
  C   C13       1.0  0.5806987406665626  0.15082183917878922  0.9228831809769532  1.0000
  C   C14       1.0  0.5806977566785393  0.650813532764893  0.577108406707417  1.0000
  C   C15       1.0  0.41935102276464414  0.8491781890444372  0.0771056026022094  1.0000
  C   C16       1.0  0.41930210482110647  0.3491884923844495  0.4228960798609194  1.0000
  C   C17       1.0  0.7451031845933827  0.0855969069141622  0.9456771914082226  1.0000
  C   C18       1.0  0.7451099259304357  0.585588600500266  0.5543244910549063  1.0000
  C   C19       1.0  0.2549247088309414  0.914399127456818  0.0543172003813552  1.0000
  C   C20       1.0  0.2549183291599705  0.41442207799560293  0.4456861645448953  1.0000
  C   C21       1.0  0.7242810477791295  0.0011036345031528  0.9132118221075629  1.0000
  C   C22       1.0  0.724276722264328  0.5010986562994617  0.5867932252818093  1.0000
  C   C23       1.0  0.2757189731901875  0.9988870747315062  0.0867892995345159  1.0000
  C   C24       1.0  0.2757336297088884  0.4989086939862091  0.4132118221075629  1.0000
  C   C25       1.0  0.5388793516516586  0.9810212423644558  0.8582356570018489  1.0000
  C   C26       1.0  0.5388666631090189  0.48101623593753834  0.6417688295664874  1.0000
  C   C27       1.0  0.461111429569918  0.0189721294383602  0.1417705120296091  1.0000
  C   C28       1.0  0.4611349212675863  0.5189844579277221  0.3582339745387273  1.0000
  C   C29       1.0  0.2806553232205857  0.1522063746230273  0.6061510851887135  1.0000
  C   C30       1.0  0.2806611754978974  0.6522047246295415  0.8938472323481577  1.0000
  C   C31       1.0  0.7193287749474352  0.847793653600192  0.3938528405585799  1.0000
  C   C32       1.0  0.7193207828845516  0.34779397230960296  0.1061510851887135  1.0000
  C   C33       1.0  0.22327786681284323  0.2276216208856852  0.6480051595535841  1.0000
  C   C34       1.0  0.22327395820664717  0.7276193052501583  0.8519886714149507  1.0000
  C   C35       1.0  0.7767201675826813  0.7723810699056983  0.3519970837305806  1.0000
  C   C36       1.0  0.7767026230905998  0.2723820542571431  0.1480107677640063  1.0000
  C   C37       1.0  0.0276890359885229  0.281405497758179  0.6231955582973469  1.0000
  C   C38       1.0  0.02769144251190171  0.7814065103328502  0.8767993943132737  1.0000
  C   C39       1.0  0.9723067543942676  0.7185951961070813  0.3768033200605672  1.0000
  C   C40       1.0  0.9722829989997664  0.2185935178903691  0.1231989232235975  1.0000
  C   C41       1.0  0.8910249000348075  0.2596716194937798  0.557533509057258  1.0000
  C   C42       1.0  0.8910310649935766  0.75967196642641  0.9424597610902339  1.0000
  C   C43       1.0  0.1089559608335833  0.7403324025816858  0.4424631260164915  1.0000
  C   C44       1.0  0.10895872294110383  0.2403273961547754  0.05754192137288779  1.0000
  C   C45       1.0  0.952739875080887  0.1854512006938194  0.5153092928046661  1.0000
  C   C46       1.0  0.9527406629544544  0.6854542101946137  0.9846862206269975  1.0000
  C   C47       1.0  0.0472537755163316  0.814548161887366  0.4846912680163769  1.0000
  C   C48       1.0  0.0472577883496825  0.3145511431649339  0.015316583478210098  1.0000
  C   C49       1.0  0.1481440503533591  0.1315541646744407  0.5393068251920781  1.0000
  C   C50       1.0  0.1481505279935789  0.631556508533194  0.9606898098816642  1.0000
  C   C51       1.0  0.8518376995747873  0.8684432009806216  0.46068868823958553  1.0000
  C   C52       1.0  0.8518452623892188  0.36844418533206647  0.0393090684762498  1.0000
  S   S1        1.0  0.13308397473538494  0.019894043664457708  0.7667461163142875  1.0000
  S   S2        1.0  0.1330804830378014  0.5198943905970879  0.7332561269698843  1.0000
  S   S3        1.0  0.8669103564672797  0.9800973312122352  0.23325668779092718  1.0000
  S   S4        1.0  0.8669120210607489  0.4800976499216461  0.2667444338511586  1.0000
  S   S5        1.0  0.5192405515014258  0.0799156520984852  0.6375503336885231  1.0000
  S   S6        1.0  0.5192491689272174  0.5799193272413206  0.8624457405641834  1.0000
  S   S7        1.0  0.4807435466666021  0.9200843761247341  0.3624502271325198  1.0000
  S   S8        1.0  0.4807436968374077  0.4200873574023092  0.1375520161516448  1.0000
  N   N1        1.0  0.7913075228772328  0.3222386430906781  0.8142050361729574  1.0000
  N   N2        1.0  0.7912907203150539  0.8222403213073903  0.6857955246480856  1.0000
  N   N3        1.0  0.2087171332474682  0.6777613851325412  0.1857966462901715  1.0000
  N   N4        1.0  0.2086931693986642  0.1777583756317469  0.3142055969940003  1.0000
  O   O1        1.0  0.6072370545391834  0.3174460203990748  0.7675110762155768  1.0000
  O   O2        1.0  0.6072418093024369  0.8174496955419104  0.7324962144579672  1.0000
  O   O3        1.0  0.3927699069226307  0.6825520108980285  0.2324956536369243  1.0000
  O   O4        1.0  0.39274338637963513  0.18254500754498795  0.2675060288262046  1.0000
  O   O5        1.0  0.9549273599219674  0.2609822686715262  0.814804553866864  1.0000
  O   O6        1.0  0.9549144200223338  0.7609839468882384  0.6851909595647996  1.0000
  O   O7        1.0  0.0450955733257672  0.7390190908357823  0.1851932028489713  1.0000
  O   O8        1.0  0.0450836143731905  0.239018743903145  0.3148101620772792  1.0000
  O   O9        1.0  0.8162937615740233  0.3855917899374148  0.8600830015142193  1.0000
  O   O10       1.0  0.8162516432510286  0.8855921368700521  0.6399175593068236  1.0000
  O   O11       1.0  0.1837484849864168  0.6144095695698866  0.1399186809489095  1.0000
  O   O12       1.0  0.1837108975915669  0.1144058944270512  0.3600835623352623  1.0000
