data_image0
_chemical_formula_structural       CdH38C38S2N6O8
_chemical_formula_sum              "Cd1 H38 C38 S2 N6 O8"
_cell_length_a       9.625747661244606
_cell_length_b       9.600923217690028
_cell_length_c       10.134238325139242
_cell_angle_alpha    81.0157203281053
_cell_angle_beta     87.37352535580358
_cell_angle_gamma    85.26928266070888

_space_group_name_H-M_alt    "P 1"
_space_group_IT_number       1

loop_
  _space_group_symop_operation_xyz
  'x, y, z'

loop_
  _atom_site_type_symbol
  _atom_site_label
  _atom_site_symmetry_multiplicity
  _atom_site_fract_x
  _atom_site_fract_y
  _atom_site_fract_z
  _atom_site_occupancy
  Cd  Cd1       1.0  0.49999957852919863  0.9999996618387715  1.6289345551955414e-06  1.0000
  H   H1        1.0  0.5629312454105815  0.15135443240721005  0.28452963059904585  1.0000
  H   H2        1.0  0.43706917912157905  0.8486511783400348  0.7154707300270076  1.0000
  H   H3        1.0  0.24568742573359253  0.9490853937200827  0.40341538985235553  1.0000
  H   H4        1.0  0.7543126931823352  0.050909649949083806  0.5965806231496629  1.0000
  H   H5        1.0  0.7022814356454035  0.7189968050005932  0.3643913965166163  1.0000
  H   H6        1.0  0.29771810590563064  0.28099189382584217  0.6356124860858898  1.0000
  H   H7        1.0  0.14571289993241268  0.15500188149316332  0.5059493613024699  1.0000
  H   H8        1.0  0.8542874556891678  0.8449899857157777  0.49405303013942603  1.0000
  H   H9        1.0  0.3230046727966496  0.5829249063996613  0.8397708688948811  1.0000
  H   H10       1.0  0.6769922671017525  0.4170712047930608  0.16023302494534866  1.0000
  H   H11       1.0  0.2759634314126558  0.6288304191346159  0.6007924472415525  1.0000
  H   H12       1.0  0.7240334316723747  0.3711667502569966  0.39921030720496015  1.0000
  H   H13       1.0  0.1518508721670457  0.45649218153083404  0.31729691219386064  1.0000
  H   H14       1.0  0.8481369210006662  0.5435156034120824  0.6827046877265842  1.0000
  H   H15       1.0  0.3331442178940591  0.6122491027602167  0.024417421906548522  1.0000
  H   H16       1.0  0.6668500351842753  0.3877554814824365  0.97558139676606  1.0000
  H   H17       1.0  0.265185903930508  0.5828693292509258  0.18857583359572766  1.0000
  H   H18       1.0  0.7348146721398692  0.4171341657197304  0.8114258190648582  1.0000
  H   H19       1.0  0.335413102129543  0.31640888819352153  0.9418864295583304  1.0000
  H   H20       1.0  0.6645935560501781  0.6835966952077402  0.05810970514453828  1.0000
  H   H21       1.0  0.4367043124200122  0.4163976037025849  0.3168897384115965  1.0000
  H   H22       1.0  0.5632910515397428  0.5836059192329516  0.6831072129107553  1.0000
  H   H23       1.0  0.7831147183962273  0.13369651106309285  0.11994200377595378  1.0000
  H   H24       1.0  0.21689008746786698  0.8663059083062734  0.8800566553256882  1.0000
  H   H25       1.0  0.03428351518791569  0.0528689926919199  0.3226082444272293  1.0000
  H   H26       1.0  0.9657191331955987  0.9471344948199065  0.6773893682512124  1.0000
  H   H27       1.0  0.9810804253955254  0.18353590057833463  0.18590391926738897  1.0000
  H   H28       1.0  0.01892229771284088  0.8164665293557932  0.8140938460518681  1.0000
  H   H29       1.0  0.1318148654232658  0.06405465392313663  0.16781420991030419  1.0000
  H   H30       1.0  0.868188898018701  0.9359477710392026  0.8321835089236912  1.0000
  H   H31       1.0  0.9276299594273142  0.7735594355914515  0.12223997398947256  1.0000
  H   H32       1.0  0.07237291939629388  0.22644087732371082  0.8777610568701276  1.0000
  H   H33       1.0  0.9852080030831941  0.7780649317295032  0.28637195646629715  1.0000
  H   H34       1.0  0.014796806957932103  0.2219374863974863  0.7136286761411552  1.0000
  H   H35       1.0  0.10072241645201528  0.8220086351538927  0.14746491438211248  1.0000
  H   H36       1.0  0.8992826135866211  0.17799061148237172  0.8525342026419764  1.0000
  H   H37       1.0  0.0388257118207633  0.6122080022899965  0.5230400594122955  1.0000
  H   H38       1.0  0.9611697498375377  0.3877944562347723  0.4769678988328394  1.0000
  C   C1        1.0  0.4960087930862116  0.2241014348576656  0.21853270492302093  1.0000
  C   C2        1.0  0.5039908111098512  0.7759010093706423  0.7814661866049163  1.0000
  C   C3        1.0  0.3115131824777038  0.0069856318758852  0.4564227853520321  1.0000
  C   C4        1.0  0.6884881283100412  0.9930072910449045  0.543574473199257  1.0000
  C   C5        1.0  0.45585288906112004  0.9629812030867982  0.4639482208377856  1.0000
  C   C6        1.0  0.5441473066681723  0.0370127823834778  0.5360489315579499  1.0000
  C   C7        1.0  0.5185485869939157  0.8486041251784047  0.4014614716673464  1.0000
  C   C8        1.0  0.48145265115749675  0.15138985469889835  0.598536620996036  1.0000
  C   C9        1.0  0.6588079727633697  0.8069760192604891  0.41321530294470676  1.0000
  C   C10       1.0  0.3411954186915835  0.1930168937167238  0.5867818626360657  1.0000
  C   C11       1.0  0.2562359172002289  0.12035371838292971  0.5150470104138805  1.0000
  C   C12       1.0  0.743766357107752  0.8796402577649618  0.48494906225842976  1.0000
  C   C13       1.0  0.1342990997827798  0.5182801203769714  0.045423851691559484  1.0000
  C   C14       1.0  0.8656944243924513  0.4817202347995393  0.9545815445470109  1.0000
  C   C15       1.0  0.027352790373861093  0.4752914531438536  0.1392355502878004  1.0000
  C   C16       1.0  0.9726396103888391  0.5247099670668974  0.8607657927835816  1.0000
  C   C17       1.0  0.10974327527721785  0.5410906393533638  0.9069417370122109  1.0000
  C   C18       1.0  0.8902523253881826  0.4589097071219472  0.09306159275002554  1.0000
  C   C19       1.0  0.21736472668440848  0.5772243390671434  0.8088197742313666  1.0000
  C   C20       1.0  0.7826287974908155  0.422776016109367  0.19118562200719683  1.0000
  C   C21       1.0  0.19273346197600463  0.601877139659159  0.6746031304743312  1.0000
  C   C22       1.0  0.8072647486961059  0.398115791965111  0.3254041350618024  1.0000
  C   C23       1.0  0.0492524514411699  0.44706827676659355  0.28004617263115955  1.0000
  C   C24       1.0  0.9507376570108903  0.5529363223937055  0.7199607260057446  1.0000
  C   C25       1.0  0.2752824444546391  0.5382362092869144  0.09532248328795126  1.0000
  C   C26       1.0  0.7247118107122148  0.46176837433454676  0.9046773221375659  1.0000
  C   C27       1.0  0.37880894551627614  0.3051791986552601  0.0399183252831747  1.0000
  C   C28       1.0  0.6211956299077244  0.6948263953107701  0.9600769156373019  1.0000
  C   C29       1.0  0.4328534578023238  0.3533401461930127  0.2375588335425221  1.0000
  C   C30       1.0  0.5671471867273397  0.6466622930635069  0.7624400115001534  1.0000
  C   C31       1.0  0.8101270328329804  0.018811741971148908  0.12488843469746769  1.0000
  C   C32       1.0  0.18987673896306492  0.981190680506444  0.8751132311481556  1.0000
  C   C33       1.0  0.026511973356129197  0.0750457708837899  0.21325065728517245  1.0000
  C   C34       1.0  0.973490749752237  0.9249566590503376  0.7867471080340848  1.0000
  C   C35       1.0  0.9907981791360213  0.8289011233976072  0.18128929798496066  1.0000
  C   C36       1.0  0.009205588482984695  0.17110130032235565  0.818710394354852  1.0000
  C   C37       1.0  0.057101230774911485  0.5914347330567723  0.6299593682441226  1.0000
  C   C38       1.0  0.9428928974646524  0.4085571596345759  0.3700502093796771  1.0000
  S   S1        1.0  0.4209732487493341  0.7607172232145417  0.2963471410393054  1.0000
  S   S2        1.0  0.5790310315010102  0.2392778005674715  0.7036486860216655  1.0000
  N   N1        1.0  0.3599512824862217  0.4032433258872103  0.12308318348865299  1.0000
  N   N2        1.0  0.6400503276522045  0.5967601659752192  0.8769154624279523  1.0000
  N   N3        1.0  0.4616044794366517  0.19549116115549484  0.09511443836838397  1.0000
  N   N4        1.0  0.5384011404979816  0.8045144265963702  0.9048827295726481  1.0000
  N   N5        1.0  0.9386084419425202  0.9768764155832488  0.16793814522805658  1.0000
  N   N6        1.0  0.06139636392157401  0.023126003786117608  0.8320605138735857  1.0000
  O   O1        1.0  0.3731712070822368  0.8739835433702724  0.18647031319748913  1.0000
  O   O2        1.0  0.6268317422891911  0.1260157132095756  0.8135288967971092  1.0000
  O   O3        1.0  0.5195729440716405  0.6530613590271346  0.25046312689023853  1.0000
  O   O4        1.0  0.4804300591394508  0.34693684618689263  0.7495263682161166  1.0000
  O   O5        1.0  0.30135424623338036  0.7037861492477406  0.37585733741849475  1.0000
  O   O6        1.0  0.6986527041288896  0.2962004064538491  0.6241356707868491  1.0000
  O   O7        1.0  0.7269584055311357  0.9375002980410089  0.09234252765098455  1.0000
  O   O8        1.0  0.2730454430782673  0.0625010662376937  0.9076602775883558  1.0000
