data_image0
_chemical_formula_structural       Zn12H120C132N24O60
_chemical_formula_sum              "Zn12 H120 C132 N24 O60"
_cell_length_a       19.552492610016756
_cell_length_b       19.552407271277044
_cell_length_c       21.640695802014296
_cell_angle_alpha    64.28683169052844
_cell_angle_beta     64.28713908172816
_cell_angle_gamma    60.69133863224444

_space_group_name_H-M_alt    "P 1"
_space_group_IT_number       1

loop_
  _space_group_symop_operation_xyz
  'x, y, z'

loop_
  _atom_site_type_symbol
  _atom_site_label
  _atom_site_symmetry_multiplicity
  _atom_site_fract_x
  _atom_site_fract_y
  _atom_site_fract_z
  _atom_site_occupancy
  Zn  Zn1       1.0  0.3063327310668953  0.1832026879626767  0.31199944219952164  1.0000
  Zn  Zn2       1.0  0.2662421357861646  0.267543626969193  0.17507581518707827  1.0000
  Zn  Zn3       1.0  0.8220766779052083  0.26527639910289486  0.18234026183095145  1.0000
  Zn  Zn4       1.0  0.816796330010625  0.6936662253634722  0.18800204610256077  1.0000
  Zn  Zn5       1.0  0.7324613395219898  0.7337563272398098  0.32492383670387426  1.0000
  Zn  Zn6       1.0  0.7347252344501527  0.17792454651463874  0.3176598964369504  1.0000
  Zn  Zn7       1.0  0.6936641003700785  0.8167995584022022  0.687999902001387  1.0000
  Zn  Zn8       1.0  0.7337577499974228  0.7324625905770861  0.8249230932118863  1.0000
  Zn  Zn9       1.0  0.1779244306247918  0.7347253916857852  0.8176594369209768  1.0000
  Zn  Zn10      1.0  0.18320050080502878  0.3063354528085823  0.8119979825401128  1.0000
  Zn  Zn11      1.0  0.26753976980996436  0.26624262650361163  0.675076046546387  1.0000
  Zn  Zn12      1.0  0.26527954022801475  0.8220753133019725  0.6823405103204294  1.0000
  H   H1        1.0  0.1401311496219506  0.36830711839816377  0.4160221186093835  1.0000
  H   H2        1.0  0.041951480666249104  0.472093849008445  0.23746132300457387  1.0000
  H   H3        1.0  0.18173261434462523  0.1468263463974182  0.44642997858461086  1.0000
  H   H4        1.0  0.8758969480802534  0.24944119225873587  0.03213990330736057  1.0000
  H   H5        1.0  0.11576339613027636  0.1490543335615726  0.6118594936630473  1.0000
  H   H6        1.0  0.14980252188308898  0.04251579472972372  0.622538745527322  1.0000
  H   H7        1.0  0.10245590143166079  0.11719255411012601  0.5531030143164557  1.0000
  H   H8        1.0  0.2905001049891354  0.01883019667096163  0.6073207849902146  1.0000
  H   H9        1.0  0.2726134593122396  0.1236581982192604  0.5906089818995212  1.0000
  H   H10       1.0  0.34520214661126397  0.0710320795550956  0.5242862804388153  1.0000
  H   H11       1.0  0.9873444416415111  0.41032474203476704  0.9162679184031288  1.0000
  H   H12       1.0  0.9000008322261762  0.4379418337624088  0.9899672512001344  1.0000
  H   H13       1.0  0.888411546562068  0.47001981339300164  0.9025272205074516  1.0000
  H   H14       1.0  0.9871585919719619  0.3109987557031814  0.8645865934822512  1.0000
  H   H15       1.0  0.8821414985842964  0.3665020838906587  0.8662376216522176  1.0000
  H   H16       1.0  0.9142925895537528  0.26226412993542436  0.9191447796531094  1.0000
  H   H17       1.0  0.30531992413266096  0.4048916133485534  0.0430336960497542  1.0000
  H   H18       1.0  0.35506703127615674  0.45666499500971725  0.8662942702644613  1.0000
  H   H19       1.0  0.3234169738030772  0.4942364526447916  0.9401149206780773  1.0000
  H   H20       1.0  0.25349987233616383  0.5274185412053143  0.8912624945473696  1.0000
  H   H21       1.0  0.296510853526236  0.35278599987515236  0.8860477327754237  1.0000
  H   H22       1.0  0.1951084705970274  0.4218800332638537  0.9132023244905126  1.0000
  H   H23       1.0  0.23189855386705457  0.3233398994677329  0.9736012946847978  1.0000
  H   H24       1.0  0.9161766688242919  0.579873236756839  0.412096523766678  1.0000
  H   H25       1.0  0.4102507640872446  0.4164765777115207  0.08211426121629727  1.0000
  H   H26       1.0  0.6362931939424712  0.403008352133824  0.08309135806161555  1.0000
  H   H27       1.0  0.5203357692873921  0.23860170249165685  0.25076658759251563  1.0000
  H   H28       1.0  0.15048158727881136  0.057637833754405676  0.402813704343302  1.0000
  H   H29       1.0  0.9255021055885421  0.06374519977722325  0.4069285478062811  1.0000
  H   H30       1.0  0.05492693409360069  0.2048445343150931  0.2214346582067961  1.0000
  H   H31       1.0  0.631693926214588  0.8598691073932443  0.0839794484703021  1.0000
  H   H32       1.0  0.5279088007003664  0.9580481300419948  0.2625391375722969  1.0000
  H   H33       1.0  0.8531764878451467  0.8182668392524448  0.053568781641907044  1.0000
  H   H34       1.0  0.7505630500116922  0.12409851402833998  0.467858808131588  1.0000
  H   H35       1.0  0.8509544800731133  0.8842356494277511  0.8881389839077514  1.0000
  H   H36       1.0  0.9574925740547255  0.8501928073038273  0.8774606221429126  1.0000
  H   H37       1.0  0.8828165191656012  0.8975399640880822  0.9468947812324944  1.0000
  H   H38       1.0  0.981170851795433  0.7094935271079096  0.8926823270140076  1.0000
  H   H39       1.0  0.8763440837591503  0.7273835309616316  0.9093926334909952  1.0000
  H   H40       1.0  0.9289676886807569  0.6547943944076452  0.975716660340765  1.0000
  H   H41       1.0  0.5896744801111353  0.012653388782673886  0.5837328256499817  1.0000
  H   H42       1.0  0.5620592706515097  0.09999819931478983  0.5100312099069838  1.0000
  H   H43       1.0  0.5299823580844674  0.11159002026922595  0.5974711604287747  1.0000
  H   H44       1.0  0.6890018842733099  0.012838762814901424  0.6354125283423429  1.0000
  H   H45       1.0  0.6334977945917684  0.11785917074695369  0.6337612120802376  1.0000
  H   H46       1.0  0.7377373238568906  0.08570332812129071  0.5808540915102328  1.0000
  H   H47       1.0  0.5951130621929224  0.6946772289077715  0.45696506417627347  1.0000
  H   H48       1.0  0.5433277735450943  0.6449431049410635  0.6337106737029855  1.0000
  H   H49       1.0  0.505774540863044  0.6765722875727462  0.5598854216266458  1.0000
  H   H50       1.0  0.47257989527368943  0.7465069507877828  0.6087232772554502  1.0000
  H   H51       1.0  0.6472201499288843  0.7034810403703631  0.6139527026009546  1.0000
  H   H52       1.0  0.5781327327181102  0.8048869181375196  0.5867934688067891  1.0000
  H   H53       1.0  0.6766714894096494  0.768088747665523  0.5263974546753402  1.0000
  H   H54       1.0  0.42012668864681046  0.08382675060305897  0.08790361191930174  1.0000
  H   H55       1.0  0.5835252503848735  0.5897469346488579  0.4178859854655884  1.0000
  H   H56       1.0  0.5969894804929721  0.3637087124735032  0.41690958749865814  1.0000
  H   H57       1.0  0.7613987446359471  0.4796632004828468  0.24923778322715867  1.0000
  H   H58       1.0  0.9423552993130283  0.8495249801182182  0.09718059950242998  1.0000
  H   H59       1.0  0.9362504457719395  0.07450345220098613  0.09306989180345228  1.0000
  H   H60       1.0  0.7951623181097672  0.9450714469122803  0.27856686269620207  1.0000
  H   H61       1.0  0.8598681278197232  0.6316959236524864  0.5839754963287405  1.0000
  H   H62       1.0  0.9580477984587502  0.5279143028587825  0.7625333696681695  1.0000
  H   H63       1.0  0.8182642175877531  0.853175332894317  0.5535691249979208  1.0000
  H   H64       1.0  0.12410905120827918  0.750555945378771  0.9678592404776934  1.0000
  H   H65       1.0  0.8842279376212758  0.8509420134693785  0.3881401467756259  1.0000
  H   H66       1.0  0.8501979821423474  0.9574771487121797  0.37745817864014697  1.0000
  H   H67       1.0  0.8975452152137393  0.8828018664071633  0.4468921688063857  1.0000
  H   H68       1.0  0.7094881656243643  0.9811735217612285  0.3926831785577889  1.0000
  H   H69       1.0  0.7273772559374192  0.8763440442470626  0.4093950650926033  1.0000
  H   H70       1.0  0.6547922317429168  0.9289659586080038  0.47572167485587596  1.0000
  H   H71       1.0  0.012656056376080499  0.5896744386519117  0.08373211509654514  1.0000
  H   H72       1.0  0.09999661220025757  0.5620601873387301  0.01003055516115132  1.0000
  H   H73       1.0  0.1115901779927952  0.529978917326048  0.09746927478291666  1.0000
  H   H74       1.0  0.0128382432476428  0.6890023593146067  0.13540995683155907  1.0000
  H   H75       1.0  0.11785594063623249  0.6335033374100121  0.1337634785396062  1.0000
  H   H76       1.0  0.08569874346704147  0.7377407299108255  0.08085291970037642  1.0000
  H   H77       1.0  0.6946830165476783  0.5951134678019017  0.9569658486923771  1.0000
  H   H78       1.0  0.6449359153490802  0.5433332812629672  0.13370238705715562  1.0000
  H   H79       1.0  0.6765896387349741  0.5057678383979789  0.059880262945412675  1.0000
  H   H80       1.0  0.7465036854857628  0.4725834809951833  0.10873292167305247  1.0000
  H   H81       1.0  0.7034871951994219  0.6472129493997013  0.11395658325575661  1.0000
  H   H82       1.0  0.8048920254553948  0.578131631989521  0.08679560213231952  1.0000
  H   H83       1.0  0.7680884881728147  0.6766710777287416  0.02640585678253857  1.0000
  H   H84       1.0  0.0838189418396666  0.42012605993599555  0.5879026022829307  1.0000
  H   H85       1.0  0.5897485056550237  0.5835224836302828  0.9178909199945764  1.0000
  H   H86       1.0  0.36370668941057  0.5969910521370707  0.9169116008678769  1.0000
  H   H87       1.0  0.4796665553516277  0.7613962224543303  0.7492392299615176  1.0000
  H   H88       1.0  0.8495305372485332  0.9423553438680372  0.5971744270212014  1.0000
  H   H89       1.0  0.07450940599582619  0.9362385544678417  0.5930639688364963  1.0000
  H   H90       1.0  0.9450729588775244  0.7951560147390709  0.7785599938881306  1.0000
  H   H91       1.0  0.3683065677138301  0.14013347461263953  0.916022953799761  1.0000
  H   H92       1.0  0.4720837465572528  0.041946051246021916  0.737468268583754  1.0000
  H   H93       1.0  0.14682645238627862  0.1817291603300362  0.9464338511572521  1.0000
  H   H94       1.0  0.2494386700680309  0.8758951040749282  0.5321429220745058  1.0000
  H   H95       1.0  0.1490551791121462  0.11576863208756555  0.11186333018655148  1.0000
  H   H96       1.0  0.042517695563532194  0.14980330040639697  0.12254464846569141  1.0000
  H   H97       1.0  0.11719497375743518  0.10245171742438687  0.05311081719900562  1.0000
  H   H98       1.0  0.018830257292940196  0.2905082642406072  0.10731690920785297  1.0000
  H   H99       1.0  0.12365825125340989  0.272622350363477  0.09060221428814691  1.0000
  H   H100      1.0  0.07103281448800658  0.34520592658357435  0.02427876656489048  1.0000
  H   H101      1.0  0.4103235734509311  0.9873438626317825  0.41626799334565556  1.0000
  H   H102      1.0  0.4379351129797584  0.9000021144188322  0.48997169497030757  1.0000
  H   H103      1.0  0.47001813682653176  0.8884063194533101  0.4025322952797056  1.0000
  H   H104      1.0  0.31099739105258806  0.9871603041253112  0.36458802756784076  1.0000
  H   H105      1.0  0.3664984259003317  0.8821416002220633  0.36623848557509575  1.0000
  H   H106      1.0  0.26226073057831206  0.9142967620179476  0.41914515539686903  1.0000
  H   H107      1.0  0.40488866279439856  0.3053203671051392  0.5430314124074088  1.0000
  H   H108      1.0  0.4566763953858696  0.35504677114310823  0.3662883273534518  1.0000
  H   H109      1.0  0.49422535098312165  0.32342315222468443  0.4401116902035936  1.0000
  H   H110      1.0  0.5274218256709488  0.25348439790322186  0.39127841553727893  1.0000
  H   H111      1.0  0.35277912545173956  0.2965134860657841  0.3860491660727092  1.0000
  H   H112      1.0  0.4218677707572026  0.19511113288158546  0.41320238321556974  1.0000
  H   H113      1.0  0.3233308471356223  0.23190578379902863  0.47359951868732963  1.0000
  H   H114      1.0  0.5798713578536336  0.9161773045694874  0.9121010195569851  1.0000
  H   H115      1.0  0.4164764715040902  0.41025292853696266  0.5821123786517362  1.0000
  H   H116      1.0  0.4030116290278514  0.6362919441688816  0.5830896300165237  1.0000
  H   H117      1.0  0.23860419845848208  0.5203384776688793  0.7507607803347867  1.0000
  H   H118      1.0  0.057639696938203096  0.1504768106907903  0.9028205643302342  1.0000
  H   H119      1.0  0.06373721669673668  0.9255039017715911  0.9069305778734532  1.0000
  H   H120      1.0  0.2048418386083952  0.0549240926254413  0.7214405574348959  1.0000
  C   C1        1.0  0.16730993667447788  0.3464964404582602  0.29111054716126  1.0000
  C   C2        1.0  0.0986586709384554  0.4135063757181712  0.32292946210536405  1.0000
  C   C3        1.0  0.09365468725697208  0.414680782135612  0.3889355349755235  1.0000
  C   C4        1.0  0.038549950760341296  0.4732579120246143  0.2885663712556763  1.0000
  C   C5        1.0  0.23535847164725957  0.12790371864454642  0.4637060683240506  1.0000
  C   C6        1.0  0.8848501650848277  0.3038462525084499  0.025905475687039815  1.0000
  C   C7        1.0  0.14293246454516856  0.10289210883659901  0.5832379090889788  1.0000
  C   C8        1.0  0.286922261472057  0.07752722376030621  0.5660988360552182  1.0000
  C   C9        1.0  0.9219914068521503  0.42078867361849603  0.9408961868974047  1.0000
  C   C10       1.0  0.028762163976537598  0.47514940172551695  0.4205478372209797  1.0000
  C   C11       1.0  0.9240758193456884  0.3197665370145799  0.8986578922610844  1.0000
  C   C12       1.0  0.28066804814275054  0.3759824796353613  0.028103868636669964  1.0000
  C   C13       1.0  0.30366474485856537  0.4752304400763307  0.911904028877494  1.0000
  C   C14       1.0  0.24848763110782093  0.3742257367252079  0.9318493066603608  1.0000
  C   C15       1.0  0.9677005546843914  0.5339519588372281  0.3868125193849322  1.0000
  C   C16       1.0  0.9727103209566933  0.5329662226045073  0.32102155372375313  1.0000
  C   C17       1.0  0.9054411523622221  0.5959865039766113  0.28732576789370506  1.0000
  C   C18       1.0  0.3915699692069268  0.2917974557420208  0.2001538629359133  1.0000
  C   C19       1.0  0.45843990265336027  0.3245194475133745  0.16946870757396226  1.0000
  C   C20       1.0  0.4589091990011979  0.3891221535056034  0.10712893074167341  1.0000
  C   C21       1.0  0.5225937432803462  0.4183427170323384  0.07646298838734823  1.0000
  C   C22       1.0  0.5859074913324207  0.38161330133174687  0.10793367589931081  1.0000
  C   C23       1.0  0.5852723979457578  0.31728169431648456  0.17086581955921087  1.0000
  C   C24       1.0  0.5210962008556591  0.28909168134288893  0.20203411619338862  1.0000
  C   C25       1.0  0.6545253981829616  0.27979039504366204  0.20269939771082318  1.0000
  C   C26       1.0  0.17860099710634358  0.16515940879013155  0.2739536009418089  1.0000
  C   C27       1.0  0.1107885164586619  0.13334772367709039  0.3076563483922214  1.0000
  C   C28       1.0  0.10465893161021707  0.07882180868924853  0.37619229579708957  1.0000
  C   C29       1.0  0.0379743209968666  0.0542182316675479  0.4118946763141906  1.0000
  C   C30       1.0  0.9776537019775801  0.08262980266659535  0.3788251690567538  1.0000
  C   C31       1.0  0.9837582993367207  0.13648969078916914  0.3104341111440191  1.0000
  C   C32       1.0  0.05074304083243669  0.16151852893277407  0.27438963093280216  1.0000
  C   C33       1.0  0.9147932026660683  0.17012043942843053  0.2791676201470706  1.0000
  C   C34       1.0  0.6535042950855042  0.8326921102440038  0.20888680971813056  1.0000
  C   C35       1.0  0.5864941845907907  0.9013431722050806  0.17707155856611237  1.0000
  C   C36       1.0  0.5853231003999183  0.9063473609103739  0.11106502284012264  1.0000
  C   C37       1.0  0.5267429080749436  0.9614508747134424  0.21143432356544167  1.0000
  C   C38       1.0  0.8720975820593749  0.7646392637905561  0.03629498402258255  1.0000
  C   C39       1.0  0.6961550551900046  0.11514552956642636  0.47409376919759444  1.0000
  C   C40       1.0  0.8971154038476924  0.857063685235609  0.9167618447794437  1.0000
  C   C41       1.0  0.9224729389736126  0.7130754112220784  0.9339052700435674  1.0000
  C   C42       1.0  0.5792120944087956  0.07800739092503754  0.5591016251508378  1.0000
  C   C43       1.0  0.5248511247502988  0.9712407596151424  0.07945306081930419  1.0000
  C   C44       1.0  0.6802363855650454  0.0759218696480204  0.6013419591108757  1.0000
  C   C45       1.0  0.6240236660036516  0.7193260189899249  0.4718973772649165  1.0000
  C   C46       1.0  0.52477368475693  0.6963369775983635  0.58809320217064  1.0000
  C   C47       1.0  0.6257815082747412  0.7515070886981261  0.5681495032298116  1.0000
  C   C48       1.0  0.466048688209355  0.03230183519072229  0.1131874046584329  1.0000
  C   C49       1.0  0.46703549817250684  0.027289905036198533  0.17897834237108162  1.0000
  C   C50       1.0  0.4040139263506219  0.09456041863462156  0.21267578131143247  1.0000
  C   C51       1.0  0.7082036214585725  0.6084300092042058  0.2998463897462357  1.0000
  C   C52       1.0  0.6754823800621493  0.5415596781888538  0.33053468743552383  1.0000
  C   C53       1.0  0.6108796787144399  0.541093758813041  0.3928702842227524  1.0000
  C   C54       1.0  0.5816580205233777  0.47740386045097677  0.4235411038572961  1.0000
  C   C55       1.0  0.6183862299470915  0.41408960817712187  0.39206983225307834  1.0000
  C   C56       1.0  0.682715228374299  0.41472858302743276  0.3291368139651141  1.0000
  C   C57       1.0  0.7109089126513055  0.47890118965646183  0.2979698239724727  1.0000
  C   C58       1.0  0.7202073896210803  0.3454808236698312  0.2973019169043241  1.0000
  C   C59       1.0  0.8348451278407011  0.8213976789549876  0.22604800375888334  1.0000
  C   C60       1.0  0.8666549272881595  0.8892142086677596  0.1923429762960964  1.0000
  C   C61       1.0  0.9211770602674532  0.8953451710035549  0.12380941969810531  1.0000
  C   C62       1.0  0.9457756191711792  0.9620345786420895  0.08810060012009309  1.0000
  C   C63       1.0  0.9173667053212425  0.02234928128685006  0.12117167375291875  1.0000
  C   C64       1.0  0.8635144432271245  0.016240189959589306  0.18956698871994596  1.0000
  C   C65       1.0  0.8384841105990191  0.9492595019205368  0.22560918965387328  1.0000
  C   C66       1.0  0.8298885828943412  0.08520473213562237  0.2208302623983586  1.0000
  C   C67       1.0  0.8326893462331454  0.6535105800618695  0.7088813516243775  1.0000
  C   C68       1.0  0.9013381624254251  0.5864981428581825  0.6770676068585644  1.0000
  C   C69       1.0  0.9063433665021918  0.5853232803148601  0.6110630836098637  1.0000
  C   C70       1.0  0.9614481050516444  0.5267495579033082  0.7114295282693419  1.0000
  C   C71       1.0  0.7646371371609745  0.8720989816068541  0.5362935763756764  1.0000
  C   C72       1.0  0.11515400174683067  0.6961498647393968  0.9740933969911153  1.0000
  C   C73       1.0  0.8570637628908742  0.8971058312454119  0.41675688523391596  1.0000
  C   C74       1.0  0.7130696774601047  0.9224739983061878  0.43390420728964335  1.0000
  C   C75       1.0  0.0780084827058403  0.5792113044436391  0.05910146228963241  1.0000
  C   C76       1.0  0.9712365030786287  0.5248521654891077  0.5794496686414873  1.0000
  C   C77       1.0  0.07592162309911289  0.6802377523791562  0.10134087657370831  1.0000
  C   C78       1.0  0.7193336699718101  0.6240236230346028  0.9718957546925823  1.0000
  C   C79       1.0  0.6963400325566979  0.5247739630435506  0.08809275246606058  1.0000
  C   C80       1.0  0.7515104190575811  0.6257811599713251  0.06815144007704531  1.0000
  C   C81       1.0  0.0322950554923906  0.4660530130658033  0.6131853126078894  1.0000
  C   C82       1.0  0.027284065222808396  0.4670369315334139  0.6789783914747929  1.0000
  C   C83       1.0  0.0945544565089662  0.40401676390777647  0.7126736548943242  1.0000
  C   C84       1.0  0.6084311388823948  0.7082003616157451  0.7998473891978719  1.0000
  C   C85       1.0  0.5415587557745384  0.6754798407716932  0.8305366238863244  1.0000
  C   C86       1.0  0.541091295729167  0.6108775914550224  0.8928736560267222  1.0000
  C   C87       1.0  0.47740308108677  0.581661224953578  0.9235417029693805  1.0000
  C   C88       1.0  0.4140868880837658  0.6183892784550977  0.8920720415717653  1.0000
  C   C89       1.0  0.4147268739670054  0.6827168016316989  0.8291377334430834  1.0000
  C   C90       1.0  0.4789012339526835  0.7109091949749882  0.7979719970024702  1.0000
  C   C91       1.0  0.3454781512635207  0.7202116187592297  0.7973029564606406  1.0000
  C   C92       1.0  0.8214001205463362  0.8348440938549616  0.7260380315939299  1.0000
  C   C93       1.0  0.8892217711448964  0.8666444290769634  0.6923352121059452  1.0000
  C   C94       1.0  0.8953501303921527  0.9211742003902046  0.6238010089101493  1.0000
  C   C95       1.0  0.962040859535719  0.9457687025417056  0.5880947010085085  1.0000
  C   C96       1.0  0.022357808057613206  0.9173550851649209  0.6211682913528449  1.0000
  C   C97       1.0  0.0162495440631361  0.8635028032246125  0.6895573472033405  1.0000
  C   C98       1.0  0.9492629649675945  0.8384769125238519  0.7256046282264992  1.0000
  C   C99       1.0  0.0852109657230002  0.8298796523700033  0.7208287740890852  1.0000
  C   C100      1.0  0.3464913084538707  0.1673134225739261  0.7911163507238255  1.0000
  C   C101      1.0  0.41350264038941015  0.09865622983661383  0.8229339830240292  1.0000
  C   C102      1.0  0.41467617052202843  0.09365226918409772  0.8889390113989248  1.0000
  C   C103      1.0  0.47324902551717674  0.038547504149548245  0.7885739921085103  1.0000
  C   C104      1.0  0.12790352627353488  0.23535571596210766  0.9637069151396032  1.0000
  C   C105      1.0  0.3038448307659891  0.8848521746047098  0.5259075428166327  1.0000
  C   C106      1.0  0.10289364376314578  0.14293344455396098  0.08324304188621315  1.0000
  C   C107      1.0  0.0775287798799411  0.2869272867696324  0.06609475969570867  1.0000
  C   C108      1.0  0.42078718004396615  0.9219888372903924  0.4409005028478816  1.0000
  C   C109      1.0  0.4751481450002046  0.028763409863707096  0.9205505857164055  1.0000
  C   C110      1.0  0.3197628901933029  0.9240760625860535  0.398658578092629  1.0000
  C   C111      1.0  0.37597499831441883  0.2806710049214303  0.5281037540113758  1.0000
  C   C112      1.0  0.47522803897952304  0.303654373891838  0.41190617797173695  1.0000
  C   C113      1.0  0.37421837985174716  0.2484900500793827  0.4318501805758358  1.0000
  C   C114      1.0  0.5339505851431454  0.9677046081791262  0.8868125790500867  1.0000
  C   C115      1.0  0.5329601052327319  0.9727093843787105  0.8210267965694343  1.0000
  C   C116      1.0  0.5959841209517761  0.9054407994926661  0.7873290346631878  1.0000
  C   C117      1.0  0.2918005445081775  0.39156837745590417  0.7001525203452844  1.0000
  C   C118      1.0  0.32451934083599815  0.4584413191432546  0.6694641579185543  1.0000
  C   C119      1.0  0.38912571025878145  0.45890757975848123  0.6071269938997902  1.0000
  C   C120      1.0  0.4183424759450318  0.5225964538221602  0.576459873409192  1.0000
  C   C121      1.0  0.38161304327126533  0.5859105917896982  0.6079321299540013  1.0000
  C   C122      1.0  0.3172864909117123  0.5852729802581463  0.670863197067476  1.0000
  C   C123      1.0  0.289094031929352  0.5210987872758251  0.7020280177343353  1.0000
  C   C124      1.0  0.2797973846875976  0.6545207384858999  0.7026982866480436  1.0000
  C   C125      1.0  0.16515781003136  0.17859718312216438  0.7739569229839346  1.0000
  C   C126      1.0  0.1333455639661167  0.1107843976678424  0.8076628294761007  1.0000
  C   C127      1.0  0.07881915184920268  0.10465559156784822  0.8761972159082702  1.0000
  C   C128      1.0  0.05421448892446529  0.037970165218332894  0.9118994717641867  1.0000
  C   C129      1.0  0.0826252364656952  0.9776525112118364  0.878828835029907  1.0000
  C   C130      1.0  0.1364799389179225  0.983761824993465  0.8104366380124759  1.0000
  C   C131      1.0  0.16151454795478767  0.050740921630499314  0.7743956979830244  1.0000
  C   C132      1.0  0.17011191282684024  0.9147938786787007  0.779171843133284  1.0000
  N   N1        1.0  0.22293490383890457  0.10271940712279098  0.5342226758887065  1.0000
  N   N2        1.0  0.9087953780574268  0.34635526106629283  0.9584171069936785  1.0000
  N   N3        1.0  0.0287600026974175  0.47110134041663093  0.48730327017842257  1.0000
  N   N4        1.0  0.27740978445420683  0.4071700907708404  0.960542172311811  1.0000
  N   N5        1.0  0.5291996163053767  0.48346970852183097  0.013632647489622242  1.0000
  N   N6        1.0  0.03457472239011139  0.002824538420824799  0.48218056205953996  1.0000
  N   N7        1.0  0.8972836983303052  0.7770620879393065  0.9657785786523618  1.0000
  N   N8        1.0  0.6536465483598022  0.09120206009404797  0.5415813732945408  1.0000
  N   N9        1.0  0.5288986817312278  0.9712422111882119  0.012698569919884202  1.0000
  N   N10       1.0  0.5928365749786906  0.722585052644384  0.53945727487973  1.0000
  N   N11       1.0  0.5165302156999232  0.4707996381514618  0.4863691909217709  1.0000
  N   N12       1.0  0.9971600533822949  0.9654372932286962  0.01781348300357881  1.0000
  N   N13       1.0  0.7770619297056099  0.8972817062154802  0.4657752620153132  1.0000
  N   N14       1.0  0.09120328713378709  0.6536446015698445  0.04158245219408493  1.0000
  N   N15       1.0  0.971236831594325  0.5289014763804473  0.5126935394604433  1.0000
  N   N16       1.0  0.7225870448205  0.5928378291247187  0.039457265422505806  1.0000
  N   N17       1.0  0.4707984316183341  0.5165320777982815  0.9863714840432322  1.0000
  N   N18       1.0  0.9654422950580253  0.997158312519765  0.5178069208046736  1.0000
  N   N19       1.0  0.10272107541177176  0.222934365519535  0.03422362210524451  1.0000
  N   N20       1.0  0.34635150663376624  0.908798030605034  0.4584174110824933  1.0000
  N   N21       1.0  0.4711005875868182  0.028763092996783306  0.9873050953225045  1.0000
  N   N22       1.0  0.4071596453875017  0.27741458305865774  0.46054286659898475  1.0000
  N   N23       1.0  0.48347089437926627  0.5292010190507596  0.5136295640633364  1.0000
  N   N24       1.0  0.002826998267423199  0.03456972061399449  0.9821868963043627  1.0000
  O   O1        1.0  0.21321139113994997  0.28985546378986277  0.3303833798217042  1.0000
  O   O2        1.0  0.17360075728416996  0.35102671975861444  0.22848822240617045  1.0000
  O   O3        1.0  0.9175076005979648  0.6060225545739398  0.22156016175920717  1.0000
  O   O4        1.0  0.8408745577318156  0.6349133804494469  0.3277137331885672  1.0000
  O   O5        1.0  0.3877640614644092  0.24024736101793565  0.2618517570547638  1.0000
  O   O6        1.0  0.34509646721735265  0.3179472559819487  0.16148514679935744  1.0000
  O   O7        1.0  0.21879062707505875  0.14851860849390155  0.3151983677745775  1.0000
  O   O8        1.0  0.18931464994079758  0.20710697895441407  0.20870388375458757  1.0000
  O   O9        1.0  0.2580680648763476  0.3178058861256403  0.07254074325611977  1.0000
  O   O10       1.0  0.3027402539541129  0.13021288225235847  0.41851127359014123  1.0000
  O   O11       1.0  0.7131177636250924  0.3055408342442547  0.16521670827217605  1.0000
  O   O12       1.0  0.6494961590181134  0.22662718679740113  0.26336794912234757  1.0000
  O   O13       1.0  0.9253066109765626  0.21158620054275454  0.2134068141916714  1.0000
  O   O14       1.0  0.8505036374571374  0.15582826753308862  0.32112083574635614  1.0000
  O   O15       1.0  0.8731308191137827  0.3227489000752966  0.07945252539720134  1.0000
  O   O16       1.0  0.7101442838120064  0.7867851272236664  0.1696185096121143  1.0000
  O   O17       1.0  0.648978825437858  0.8264000998775033  0.2715095701886482  1.0000
  O   O18       1.0  0.39397628947484975  0.0824945373291399  0.27844132652344206  1.0000
  O   O19       1.0  0.36508732870995414  0.15912235488736579  0.17228569307013697  1.0000
  O   O20       1.0  0.7597547414910507  0.6122358833981282  0.23814909587476046  1.0000
  O   O21       1.0  0.6820531503664924  0.6549055518150554  0.3385144734895745  1.0000
  O   O22       1.0  0.8514762639222934  0.7812133118225194  0.18480364699594526  1.0000
  O   O23       1.0  0.7928991553101453  0.8106811068882679  0.2912991200486627  1.0000
  O   O24       1.0  0.682201500922595  0.7419262583193669  0.4274581164093761  1.0000
  O   O25       1.0  0.8697844546744234  0.6972602970546973  0.08148985236177714  1.0000
  O   O26       1.0  0.6944562121513583  0.2868848750779378  0.3347840289583814  1.0000
  O   O27       1.0  0.7733718395706929  0.3505035680105165  0.23662993807597135  1.0000
  O   O28       1.0  0.7884197617794513  0.07469517158683209  0.28659118118674337  1.0000
  O   O29       1.0  0.8441785625243907  0.1494977380457883  0.17887834040998754  1.0000
  O   O30       1.0  0.6772582447811287  0.1268602672454692  0.4205461982529712  1.0000
  O   O31       1.0  0.7867921688059878  0.710155641658126  0.6696075607514873  1.0000
  O   O32       1.0  0.8263942425690585  0.6489773449413863  0.7715092785993036  1.0000
  O   O33       1.0  0.0824898412255166  0.3939811666269647  0.7784392915173513  1.0000
  O   O34       1.0  0.15912044285217772  0.36508217143525473  0.6722857089021018  1.0000
  O   O35       1.0  0.6122376583087785  0.7597485270574463  0.7381495480346204  1.0000
  O   O36       1.0  0.6549046400700148  0.6820533984210756  0.8385159208360945  1.0000
  O   O37       1.0  0.7812098761019399  0.8514868206343709  0.6847955244559073  1.0000
  O   O38       1.0  0.810682798087626  0.7928973160377244  0.7912902597795151  1.0000
  O   O39       1.0  0.7419379340509237  0.6821980619880389  0.9274566626487515  1.0000
  O   O40       1.0  0.6972578008588214  0.8697906136848131  0.5814866418468015  1.0000
  O   O41       1.0  0.28687844924702677  0.6944667399230083  0.8347872643938742  1.0000
  O   O42       1.0  0.3505067832031727  0.7733716526295495  0.7366321865281265  1.0000
  O   O43       1.0  0.0746969455397775  0.7884141176391068  0.7865901928239722  1.0000
  O   O44       1.0  0.1494986966822864  0.8441747750672375  0.678875584121329  1.0000
  O   O45       1.0  0.1268739592840689  0.6772492607612365  0.9205453093847707  1.0000
  O   O46       1.0  0.2898439805800805  0.2132078011431774  0.8303938330286867  1.0000
  O   O47       1.0  0.35102411399984845  0.17360384488729613  0.7284913434370068  1.0000
  O   O48       1.0  0.6060217545320866  0.9175021369350415  0.7215675773950709  1.0000
  O   O49       1.0  0.6349156076129248  0.8408736407762306  0.8277201774395025  1.0000
  O   O50       1.0  0.24024697996545538  0.38776511449383116  0.7618492869492425  1.0000
  O   O51       1.0  0.3179455175618102  0.3450988541243518  0.6614814602843637  1.0000
  O   O52       1.0  0.14851567290232026  0.21878904327058993  0.815200802645812  1.0000
  O   O53       1.0  0.20711111330906817  0.18931102683119858  0.7087081664718583  1.0000
  O   O54       1.0  0.3177989964107225  0.25807178654149954  0.5725428234437544  1.0000
  O   O55       1.0  0.130212378861863  0.3027357081465212  0.9185096202174066  1.0000
  O   O56       1.0  0.3055461195027931  0.7131158947510771  0.6652151286763582  1.0000
  O   O57       1.0  0.2266329380881587  0.6494979975042626  0.763367490295977  1.0000
  O   O58       1.0  0.21158195446292175  0.9253041183675917  0.7134120301429692  1.0000
  O   O59       1.0  0.15581643267307038  0.8505046192765207  0.8211235265711209  1.0000
  O   O60       1.0  0.32274408940477883  0.8731331267137463  0.5794530690533577  1.0000
