data_image0
_chemical_formula_structural       Mn4H32C64N16O32
_chemical_formula_sum              "Mn4 H32 C64 N16 O32"
_cell_length_a       8.290036632
_cell_length_b       11.829408684720866
_cell_length_c       16.45
_cell_angle_alpha    90.0
_cell_angle_beta     90.0
_cell_angle_gamma    93.10106195246388

_space_group_name_H-M_alt    "P 1"
_space_group_IT_number       1

loop_
  _space_group_symop_operation_xyz
  'x, y, z'

loop_
  _atom_site_type_symbol
  _atom_site_label
  _atom_site_symmetry_multiplicity
  _atom_site_fract_x
  _atom_site_fract_y
  _atom_site_fract_z
  _atom_site_occupancy
  Mn  Mn1       1.0  0.9980893954518139  0.8189958648864462  0.4367696048632226  1.0000
  Mn  Mn2       1.0  0.0019169846441685163  0.681005002741813  0.9367689969604882  1.0000
  Mn  Mn3       1.0  0.0018793916902737006  0.18100189156412227  0.5632504559270544  1.0000
  Mn  Mn4       1.0  0.9980883172741599  0.3189969866611619  0.0632370820668697  1.0000
  H   H1        1.0  0.6289994170241258  0.9003794544765356  0.3569805471124639  1.0000
  H   H2        1.0  0.37099845384932445  0.5996205665612422  0.8569799392097295  1.0000
  H   H3        1.0  0.3710056234881094  0.0996191485645141  0.6430164133738572  1.0000
  H   H4        1.0  0.6289910358912252  0.4003797296607701  0.1430170212765987  1.0000
  H   H5        1.0  0.1413045478182724  0.666563015715596  0.14312340425532  1.0000
  H   H6        1.0  0.8586905837629786  0.8334327723697753  0.6431252279635231  1.0000
  H   H7        1.0  0.8586919181199023  0.3334338941444912  0.8568790273556246  1.0000
  H   H8        1.0  0.14130734984857438  0.1665675238522368  0.3568723404255323  1.0000
  H   H9        1.0  0.46574930308758405  0.7901042715196738  0.6172164133738605  1.0000
  H   H10       1.0  0.5342497740531514  0.7098957495180968  0.1172188449848051  1.0000
  H   H11       1.0  0.5342397945438152  0.20989094515944368  0.3827829787234052  1.0000
  H   H12       1.0  0.4657507681475579  0.2901070864753592  0.882779939209726  1.0000
  H   H13       1.0  0.7692391786166867  0.4670614289467778  0.3064711246200602  1.0000
  H   H14       1.0  0.23075346985163492  0.0329323697356116  0.8064735562310046  1.0000
  H   H15       1.0  0.23076833978164052  0.5329380206847532  0.6935319148936188  1.0000
  H   H16       1.0  0.7692368993985781  0.967063693533987  0.1935246200607921  1.0000
  H   H17       1.0  0.512913629456193  0.0560409035223302  0.2828480243161096  1.0000
  H   H18       1.0  0.4870855078092333  0.44395882129342823  0.7828492401215783  1.0000
  H   H19       1.0  0.487082901833503  0.9439568529282312  0.7171501519756873  1.0000
  H   H20       1.0  0.5129128832629989  0.5560474010619529  0.2171501519756873  1.0000
  H   H21       1.0  0.46562594180896605  0.1245994939061248  0.1436364741641327  1.0000
  H   H22       1.0  0.5343742056691738  0.3753976911381898  0.643638297872343  1.0000
  H   H23       1.0  0.5343703934261583  0.8753957227729927  0.8563629179331329  1.0000
  H   H24       1.0  0.46562982463034064  0.6246034516742967  0.3563641337386017  1.0000
  H   H25       1.0  0.25530405453592653  0.0244241353951793  0.0559732522796352  1.0000
  H   H26       1.0  0.7446974299125486  0.4755747428301049  0.555974468085104  1.0000
  H   H27       1.0  0.7446960955556251  0.975573621055382  0.944025531914896  1.0000
  H   H28       1.0  0.2553041225008741  0.5244255533919073  0.4440267477203648  1.0000
  H   H29       1.0  0.0951791980282124  0.8600800543697247  0.1104328267477186  1.0000
  H   H30       1.0  0.904824704181671  0.639919966668046  0.6104346504559288  1.0000
  H   H31       1.0  0.904823495300967  0.1399193952617992  0.8895671732522814  1.0000
  H   H32       1.0  0.0951781852020872  0.3600820227349288  0.3895659574468056  1.0000
  C   C1        1.0  0.6560744885207723  0.8435198979584584  0.5252255319148915  1.0000
  C   C2        1.0  0.343928142070304  0.656479276488831  0.0252237082066884  1.0000
  C   C3        1.0  0.3439302905853623  0.1564753187206591  0.474776899696046  1.0000
  C   C4        1.0  0.6560639562593878  0.343523559504618  0.9747793313069907  1.0000
  C   C5        1.0  0.5156882354397112  0.8497592698081107  0.4705477203647419  1.0000
  C   C6        1.0  0.4843129274779799  0.6502365182772536  0.9705489361702104  1.0000
  C   C7        1.0  0.4843153373991385  0.1502359468710068  0.529450455927055  1.0000
  C   C8        1.0  0.5156813873317107  0.34976377794475166  0.029450455927055  1.0000
  C   C9        1.0  0.3519426065862632  0.8277614627332993  0.4862917933130717  1.0000
  C   C10       1.0  0.6480574807671927  0.6722360185330274  0.9862924012158061  1.0000
  C   C11       1.0  0.6480659220247844  0.1722354471267877  0.5137039513677806  1.0000
  C   C12       1.0  0.35193018460250164  0.3277718970033163  0.0137039513677806  1.0000
  C   C13       1.0  0.2605734745722543  0.7886117325005557  0.5587179331307013  1.0000
  C   C14       1.0  0.7394301008800072  0.7113840555848157  0.05871914893617  1.0000
  C   C15       1.0  0.7394362603060785  0.2113851773595314  0.4412790273556197  1.0000
  C   C16       1.0  0.26056688787036114  0.2886196269991217  0.9412820668692987  1.0000
  C   C17       1.0  0.36947525921033997  0.8821515148164422  0.359857750759879  1.0000
  C   C18       1.0  0.6305239486334459  0.6178501994022909  0.8598583586626132  1.0000
  C   C19       1.0  0.6305323898910444  0.1178496279960513  0.6401434650455897  1.0000
  C   C20       1.0  0.369467074132004  0.38215432977212055  0.1401398176291764  1.0000
  C   C21       1.0  0.33153702321721573  0.9186090873175842  0.2772486322188428  1.0000
  C   C22       1.0  0.6684656727253824  0.5813909337201864  0.7772486322188428  1.0000
  C   C23       1.0  0.6684654087058702  0.0813869759520145  0.7227519756838916  1.0000
  C   C24       1.0  0.3315336632080347  0.4186119022732697  0.2227507598784229  1.0000
  C   C25       1.0  0.42126227899970564  0.012500755051824798  0.245153191489365  1.0000
  C   C26       1.0  0.5787392708002983  0.4874989697639336  0.7451550151975681  1.0000
  C   C27       1.0  0.5787317744038916  0.9874961548082553  0.754846808510635  1.0000
  C   C28       1.0  0.4212601304846402  0.5125047128199967  0.2548462006079006  1.0000
  C   C29       1.0  0.3940246108188603  0.0515649796459243  0.1667598784194553  1.0000
  C   C30       1.0  0.605976873629615  0.4484338985793528  0.6667617021276584  1.0000
  C   C31       1.0  0.6059695732877871  0.9484336233951184  0.8332413373860206  1.0000
  C   C32       1.0  0.39402595040261446  0.5515672442331336  0.3332407294832862  1.0000
  C   C33       1.0  0.2768990065761018  0.9963802753225367  0.1179598784194553  1.0000
  C   C34       1.0  0.7231035586634534  0.5036180525342715  0.6179617021276584  1.0000
  C   C35       1.0  0.7230975900651231  0.003618327718506  0.8820401215805447  1.0000
  C   C36       1.0  0.2768990693142044  0.4963805505067711  0.3820401215805447  1.0000
  C   C37       1.0  0.1871836983050414  0.902913299788068  0.1484656534954425  1.0000
  C   C38       1.0  0.8128176606672214  0.5970850280687401  0.6484674772036456  1.0000
  C   C39       1.0  0.8128176580538025  0.0970844566625004  0.8515355623100331  1.0000
  C   C40       1.0  0.187185032661958  0.4029144215627838  0.3515343465045575  1.0000
  C   C41       1.0  0.2114488290321077  0.862907666578387  0.2278449848024309  1.0000
  C   C42       1.0  0.7885514543759129  0.6370923544593836  0.7278468085106411  1.0000
  C   C43       1.0  0.7885514517624941  0.1370917830531369  0.7721556231003035  1.0000
  C   C44       1.0  0.21144882641869606  0.3629070951721403  0.2721537993921004  1.0000
  C   C45       1.0  0.11297910683586572  0.7613549053538194  0.2513039513677811  1.0000
  C   C46       1.0  0.8870247300224962  0.73864426909347  0.7513033434650465  1.0000
  C   C47       1.0  0.8870211086072217  0.2386436976872233  0.7486966565349533  1.0000
  C   C48       1.0  0.1129805065443037  0.2613568737190235  0.24869240121580563  1.0000
  C   C49       1.0  0.911386105646102  0.4972880955030874  0.1857525835866269  1.0000
  C   C50       1.0  0.08860325077797168  0.0027099361317156  0.6857525835866269  1.0000
  C   C51       1.0  0.0886081438120669  0.5027113541284436  0.8142462006079043  1.0000
  C   C52       1.0  0.9113946828335813  0.9972903600902967  0.3142437689969597  1.0000
  C   C53       1.0  0.973655084050499  0.5978478060926946  0.2307465045592707  1.0000
  C   C54       1.0  0.02634500330295001  0.9021496751736322  0.7307471124620051  1.0000
  C   C55       1.0  0.026340437026483702  0.4021524901293104  0.769254711246198  1.0000
  C   C56       1.0  0.9736578207292794  0.0978514676388613  0.2692504559270503  1.0000
  C   C57       1.0  0.9410330217266818  0.6391047000342311  0.3076966565349579  1.0000
  C   C58       1.0  0.0589697395674378  0.8608961675940208  0.8076942249240133  1.0000
  C   C59       1.0  0.05896866138978402  0.3608972893687437  0.6923051671732523  1.0000
  C   C60       1.0  0.9410416590388522  0.1391066683994282  0.19230212765957325  1.0000
  C   C61       1.0  0.8459070549936741  0.592135013522622  0.3759756838905801  1.0000
  C   C62       1.0  0.1540957063004527  0.9078658541056369  0.8759762917933145  1.0000
  C   C63       1.0  0.15409508558346366  0.40787290201372167  0.6240279635258332  1.0000
  C   C64       1.0  0.8459226685034694  0.092133595525894  0.12402006079027218  1.0000
  N   N1        1.0  0.5236577635787187  0.8834307130341941  0.39045592705166837  1.0000
  N   N2        1.0  0.4763437914481159  0.616570154594065  0.8904559270516685  1.0000
  N   N3        1.0  0.4763482871462302  0.11656535023540468  0.6095440729483315  1.0000
  N   N4        1.0  0.5236481761785257  0.3834309882184286  0.10954285714285557  1.0000
  N   N5        1.0  0.2644340640598274  0.8484055716279784  0.4178711246200635  1.0000
  N   N6        1.0  0.7355660886451504  0.6515927562288368  0.9178717325227979  1.0000
  N   N7        1.0  0.7355672269474951  0.1515913382321088  0.582126443768999  1.0000
  N   N8        1.0  0.26442633644216335  0.3484143127170256  0.082126443768999  1.0000
  N   N9        1.0  0.027534098760249013  0.7398337287201714  0.319358662613979  1.0000
  N   N10       1.0  0.9724734876030255  0.7601671389080877  0.8193574468085103  1.0000
  N   N11       1.0  0.9724747566084204  0.2601674140923222  0.6806443768996928  1.0000
  N   N12       1.0  0.027539051919028203  0.23983485049488706  0.1806370820668661  1.0000
  N   N13       1.0  0.08270053121575673  0.675158448875635  0.1976389057750794  1.0000
  N   N14       1.0  0.9172997521922711  0.8248415721621356  0.6976407294832825  1.0000
  N   N15       1.0  0.9172937182424192  0.3248410007558888  0.8023604863221863  1.0000
  N   N16       1.0  0.0827019309241948  0.1751604172408321  0.3023574468085073  1.0000
  O   O1        1.0  0.7949782500024867  0.8701900379014162  0.4981009118541023  1.0000
  O   O2        1.0  0.20503047727654433  0.6298099831363544  0.9981045592705157  1.0000
  O   O3        1.0  0.2050295597417886  0.1297975594633698  0.5018948328267498  1.0000
  O   O4        1.0  0.7949629580234828  0.3701945460380642  0.0018960486322186  1.0000
  O   O5        1.0  0.6275893421417607  0.8146376170869871  0.5992340425531921  1.0000
  O   O6        1.0  0.37242052605304116  0.6853615573603024  0.0992346504559265  1.0000
  O   O7        1.0  0.3724179802020018  0.1853592927731  0.4007671732522766  1.0000
  O   O8        1.0  0.6275774729100406  0.3146395854521842  0.9007671732522766  1.0000
  O   O9        1.0  0.3369608123146648  0.7740850864261688  0.6270443768996969  1.0000
  O   O10       1.0  0.6630392750387912  0.7259123948401579  0.1270474164133759  1.0000
  O   O11       1.0  0.6630388149647004  0.2259058973005423  0.3729544072948343  1.0000
  O   O12       1.0  0.3369576483600554  0.2740904411532981  0.8729544072948343  1.0000
  O   O13       1.0  0.1106646501502979  0.7711262526928593  0.5520966565349568  1.0000
  O   O14       1.0  0.8893292098121465  0.7288686888020308  0.0520990881458943  1.0000
  O   O15       1.0  0.8893376510697453  0.2288681173957841  0.4479021276595745  1.0000
  O   O16       1.0  0.1106642254878807  0.2711358403723878  0.9479088145896666  1.0000
  O   O17       1.0  0.981706838493068  0.4785073322584878  0.1194200607902758  1.0000
  O   O18       1.0  0.0182798140504872  0.0215025516430529  0.6194249240121579  1.0000
  O   O19       1.0  0.0182890746930582  0.521498043506412  0.8805775075987867  1.0000
  O   O20       1.0  0.9817219997690287  0.9785011309408773  0.3805708206686943  1.0000
  O   O21       1.0  0.7913970814106291  0.4383865627433039  0.21618358662613693  1.0000
  O   O22       1.0  0.2086015330426036  0.0616063893486043  0.7161805471124651  1.0000
  O   O23       1.0  0.2086087079082191  0.5616061141643698  0.7838194528875349  1.0000
  O   O24       1.0  0.7913963352174278  0.9383930602829267  0.2838158054711215  1.0000
  O   O25       1.0  0.7623084365781736  0.49513267613684053  0.3664577507598779  1.0000
  O   O26       1.0  0.23769203765758823  0.0048687418598874  0.8664577507598779  1.0000
  O   O27       1.0  0.23768988914252281  0.5048726996280593  0.6335434650455909  1.0000
  O   O28       1.0  0.7623144051765038  0.9951324009526061  0.1335404255319119  1.0000
  O   O29       1.0  0.8483666201449154  0.6444991745832098  0.4418936170212788  1.0000
  O   O30       1.0  0.1516422378371729  0.8555025396355234  0.9418948328267476  1.0000
  O   O31       1.0  0.15162534748173334  0.35550196822927654  0.5581063829787212  1.0000
  O   O32       1.0  0.8483770818279341  0.1444935236340754  0.0581057750759868  1.0000
