data_image0
_chemical_formula_structural       Sr2La4H40C56N8O40
_chemical_formula_sum              "Sr2 La4 H40 C56 N8 O40"
_cell_length_a       13.542636003891971
_cell_length_b       13.5143
_cell_length_c       13.557787505715549
_cell_angle_alpha    98.7966667475222
_cell_angle_beta     114.8574090455176
_cell_angle_gamma    114.98691923122432

_space_group_name_H-M_alt    "P 1"
_space_group_IT_number       1

loop_
  _space_group_symop_operation_xyz
  'x, y, z'

loop_
  _atom_site_type_symbol
  _atom_site_label
  _atom_site_symmetry_multiplicity
  _atom_site_fract_x
  _atom_site_fract_y
  _atom_site_fract_z
  _atom_site_occupancy
  Sr  Sr1       1.0  0.9992976415458942  0.4988711023668059  0.4990660733496739  1.0000
  Sr  Sr2       1.0  0.49965163429114046  0.24924292395904477  0.749863746096615  1.0000
  La  La1       1.0  0.7261549683401185  0.35113737003484136  0.12497553051756677  1.0000
  La  La2       1.0  0.7733855082034182  0.37472065506501195  0.6484886082949117  1.0000
  La  La3       1.0  0.2738516434317546  0.3987900263968525  0.6250464098690003  1.0000
  La  La4       1.0  0.22611511596198863  0.8748281150557842  0.6014622711747323  1.0000
  H   H1        1.0  0.8044081819359192  0.1754598577961345  0.2228109183283066  1.0000
  H   H2        1.0  0.04578055254249579  0.6277134683064031  0.8238604734027533  1.0000
  H   H3        1.0  0.19649758090800873  0.4186862643987509  0.37196206756738803  1.0000
  H   H4        1.0  0.9534177071327221  0.778097362018144  0.581722085567705  1.0000
  H   H5        1.0  0.4532050326084587  0.33146044336884717  0.02759176069196201  1.0000
  H   H6        1.0  0.6959527166301456  0.12120611650203009  0.6681559295926432  1.0000
  H   H7        1.0  0.5464403441416364  0.574454728421429  0.8776711932273499  1.0000
  H   H8        1.0  0.3042584359714979  0.9721838773131635  0.42599971154056243  1.0000
  H   H9        1.0  0.8432582709764348  0.20774074344337373  0.13117710043310632  1.0000
  H   H10       1.0  0.922155696810421  0.6348440567243043  0.7913123448185218  1.0000
  H   H11       1.0  0.15868754872390411  0.2882915340095946  0.3662907046379758  1.0000
  H   H12       1.0  0.07635333649300688  0.8674990132121034  0.7120956908722745  1.0000
  H   H13       1.0  0.5760392465486817  0.4621011181405733  0.11729905445378107  1.0000
  H   H14       1.0  0.6569874513900442  0.11493929572823432  0.5379290808557612  1.0000
  H   H15       1.0  0.4226251164101385  0.5413085745404443  0.8845227166909098  1.0000
  H   H16       1.0  0.3417936465869857  0.8792026969456116  0.4575724154547629  1.0000
  H   H17       1.0  0.48515891708789394  0.059230895206752586  0.31701622811151253  1.0000
  H   H18       1.0  0.2567948246863309  0.4259358381047276  0.9398581653089692  1.0000
  H   H19       1.0  0.5140930295372498  0.8319910315993224  0.5732864057134321  1.0000
  H   H20       1.0  0.7444767173672063  0.6845980238448348  0.16946184709624385  1.0000
  H   H21       1.0  0.24370861270762842  0.9187636972190841  0.934781423813078  1.0000
  H   H22       1.0  0.013835731056893494  0.32411444860696276  0.08108139003027759  1.0000
  H   H23       1.0  0.7571227235588864  0.6910136125829563  0.6755991577381905  1.0000
  H   H24       1.0  0.9870417209649602  0.0685934580995989  0.3102717905568753  1.0000
  H   H25       1.0  0.27821411156314463  0.902551713130961  0.1265443524695087  1.0000
  H   H26       1.0  0.22184571844768897  0.3752696930688798  0.0972208551201703  1.0000
  H   H27       1.0  0.7217140946646907  0.8481790980797751  0.6241171805621804  1.0000
  H   H28       1.0  0.780053482351356  0.8775826058335595  0.15361923865790317  1.0000
  H   H29       1.0  0.9391429123972586  0.7370977245619342  0.005345684887579708  1.0000
  H   H30       1.0  0.2705099090225574  0.20365899625234354  0.26417368649362066  1.0000
  H   H31       1.0  0.06054222216552319  0.0662524033332089  0.7977684920241472  1.0000
  H   H32       1.0  0.7299333665038079  0.9936713740557932  0.9334818394763573  1.0000
  H   H33       1.0  0.22981300555498763  0.6836715196696019  0.2431945295698625  1.0000
  H   H34       1.0  0.5615323727222048  0.5483142481175844  0.31639887171061787  1.0000
  H   H35       1.0  0.770566531645606  0.013284104147011368  0.4542753964337364  1.0000
  H   H36       1.0  0.4380496978015244  0.7548331330230124  0.9863220342767035  1.0000
  H   H37       1.0  0.17089845347006621  0.7973363968773198  0.12390837073996153  1.0000
  H   H38       1.0  0.3296992919639549  0.3763070327365128  0.20345647992198215  1.0000
  H   H39       1.0  0.829131667965541  0.9529911792946063  0.6266169340007365  1.0000
  H   H40       1.0  0.6702532168459143  0.8740206014882688  0.04686132324342639  1.0000
  C   C1        1.0  0.6860848743486371  0.2559813762319506  0.34043965416351796  1.0000
  C   C2        1.0  0.08393922110999334  0.4296418171399024  0.7429830695163702  1.0000
  C   C3        1.0  0.3131112021242116  0.654390106069499  0.569334876407872  1.0000
  C   C4        1.0  0.9159994234984553  0.6591461523478015  0.3459953778569441  1.0000
  C   C5        1.0  0.41635672260699147  0.09583232123797798  0.9098819201394902  1.0000
  C   C6        1.0  0.812847758754394  0.31930321106172926  0.9040656380135771  1.0000
  C   C7        1.0  0.5843198759474577  0.4933808785733972  0.6800660493760377  1.0000
  C   C8        1.0  0.18679932483387054  0.09128099132617946  0.506494930962546  1.0000
  C   C9        1.0  0.5601530493339126  0.15756525058885978  0.22806506203728824  1.0000
  C   C10       1.0  0.0697626583016415  0.40198357298177695  0.8417141747423642  1.0000
  C   C11       1.0  0.4394900133201815  0.6680131905998291  0.5970812506471573  1.0000
  C   C12       1.0  0.9304237641693404  0.772504215161163  0.33262560725997037  1.0000
  C   C13       1.0  0.43026090980100656  0.08221477029426437  0.022649324160070643  1.0000
  C   C14       1.0  0.9392310697533687  0.34716430196336723  0.9174734948137625  1.0000
  C   C15       1.0  0.5701968080313479  0.5923997936569876  0.652286745094422  1.0000
  C   C16       1.0  0.06080423387087558  0.9787513343114894  0.40819762356004213  1.0000
  C   C17       1.0  0.467219053229698  0.06300057711098354  0.23209203878232632  1.0000
  C   C18       1.0  0.1680242015607973  0.40390025103125254  0.9363143731984137  1.0000
  C   C19       1.0  0.532349472084732  0.7649508005502664  0.5953379815464855  1.0000
  C   C20       1.0  0.8329247759633134  0.7695751160142021  0.23618087229566942  1.0000
  C   C21       1.0  0.332139728864064  0.9855369106209365  0.019439476521206697  1.0000
  C   C22       1.0  0.0322228777445588  0.345918683408719  0.014197109542159601  1.0000
  C   C23       1.0  0.6683334644261336  0.6872521735656674  0.6536934367529881  1.0000
  C   C24       1.0  0.968579056556166  0.983177329936552  0.3138976046009462  1.0000
  C   C25       1.0  0.3521288133188776  0.9766686805542831  0.12598257373691976  1.0000
  C   C26       1.0  0.1477361779969399  0.3750277429307546  0.022915983485042098  1.0000
  C   C27       1.0  0.6478445181921727  0.7737803997309453  0.6244110195290488  1.0000
  C   C28       1.0  0.853474926367035  0.8767307546434819  0.2275258889032726  1.0000
  C   C29       1.0  0.7326842801141494  0.543779292717822  0.9839970251685982  1.0000
  C   C30       1.0  0.4409108800305576  0.18939406845976942  0.45679246482085745  1.0000
  C   C31       1.0  0.2670188983493348  0.25119954513877457  0.8108574845160491  1.0000
  C   C32       1.0  0.5592281840308146  0.015366269067335637  0.7483007432020301  1.0000
  C   C33       1.0  0.05890446374188225  0.4982802809217403  0.26525535946019824  1.0000
  C   C34       1.0  0.767385413301085  0.5615000672366648  0.5012292820801677  1.0000
  C   C35       1.0  0.9414428526328749  0.20639602330051332  0.4397886669065799  1.0000
  C   C36       1.0  0.23220765264381515  0.7333236949243509  0.793475310381197  1.0000
  C   C37       1.0  0.875922533156853  0.592228359958291  0.05844190421439784  1.0000
  C   C38       1.0  0.467141388696561  0.28473826661397783  0.40827088872468664  1.0000
  C   C39       1.0  0.12389045581304707  0.1824903452826517  0.7162523407187676  1.0000
  C   C40       1.0  0.5329032157595324  0.9404371171702621  0.8171493336544344  1.0000
  C   C41       1.0  0.032757567273996736  0.5672761103290894  0.19052451347459246  1.0000
  C   C42       1.0  0.6241511680676696  0.46667756159740736  0.43263117159079206  1.0000
  C   C43       1.0  0.9674498602950479  0.15767261391759035  0.5347029864941958  1.0000
  C   C44       1.0  0.37554751900890426  0.8077645845606083  0.8417647034264562  1.0000
  C   C45       1.0  0.9688710907217201  0.6902201862454473  0.057956153327459854  1.0000
  C   C46       1.0  0.3695380073413759  0.2802333606498307  0.31058723428003526  1.0000
  C   C47       1.0  0.03092424112852401  0.08907403087496842  0.7212745944287277  1.0000
  C   C48       1.0  0.6306336317812083  0.9407649939282546  0.910614572855529  1.0000
  C   C49       1.0  0.1306855684209793  0.6609373283439905  0.1906897028008245  1.0000
  C   C50       1.0  0.5314969652686443  0.4716208581487604  0.33936243369570457  1.0000
  C   C51       1.0  0.8695622335948129  0.05988028815285404  0.530457486355182  1.0000
  C   C52       1.0  0.46824078273927244  0.8075754691713968  0.9396471764295385  1.0000
  C   C53       1.0  0.096982813236842  0.722991605402832  0.1242417705748906  1.0000
  C   C54       1.0  0.40341087064029324  0.3760460565144044  0.27768894175666503  1.0000
  C   C55       1.0  0.9030256707025542  0.02717761956369444  0.6260924312584918  1.0000
  C   C56       1.0  0.5965476697831632  0.8741579000553868  0.9725102520151907  1.0000
  N   N1        1.0  0.5415340263729221  0.16626225760810337  0.12517713359568453  1.0000
  N   N2        1.0  0.9581051365503725  0.37437136071521565  0.8331779112525126  1.0000
  N   N3        1.0  0.4585617198337316  0.5837580734310703  0.6247609081216865  1.0000
  N   N4        1.0  0.04160073601887146  0.8753219018923628  0.4166999365774728  1.0000
  N   N5        1.0  0.9086489109292443  0.5338403431833711  0.12452442643179742  1.0000
  N   N6        1.0  0.5911729009109977  0.375571967410572  0.46615915906114946  1.0000
  N   N7        1.0  0.09137067602590321  0.21583647937837452  0.6252705617928456  1.0000
  N   N8        1.0  0.40864012245720704  0.8740324899633118  0.7835966153011923  1.0000
  O   O1        1.0  0.7632059267591702  0.3403475099442446  0.3272936174634964  1.0000
  O   O2        1.0  0.9866869935586351  0.4222158199604989  0.658906103473754  1.0000
  O   O3        1.0  0.23602032205045032  0.5641258421263087  0.5765236048933177  1.0000
  O   O4        1.0  0.012785378271679757  0.6718864910464856  0.43591642787708196  1.0000
  O   O5        1.0  0.5136206414551198  0.18588778991002625  0.9226593042422095  1.0000
  O   O6        1.0  0.7358790997412542  0.3263336630316117  0.8140169250326823  1.0000
  O   O7        1.0  0.48714217186351044  0.4090438319716154  0.6730412682309533  1.0000
  O   O8        1.0  0.2632639119286821  0.07778839145308314  0.5905399734730992  1.0000
  O   O9        1.0  0.7062885039939532  0.24948115267957863  0.43838063557612367  1.0000
  O   O10       1.0  0.188325805022039  0.456684512648074  0.7489940903580318  1.0000
  O   O11       1.0  0.29256207714881544  0.7322523774245081  0.5424736108303846  1.0000
  O   O12       1.0  0.8120622862498832  0.5610414411131613  0.2685911724483033  1.0000
  O   O13       1.0  0.3123342283879468  0.018426154038515063  0.8121314299778034  1.0000
  O   O14       1.0  0.792216713589049  0.2925484747200001  0.9817361262916579  1.0000
  O   O15       1.0  0.6885932914854321  0.49939513749328746  0.7066921973915753  1.0000
  O   O16       1.0  0.20773851347419023  0.18978918056495064  0.5001840814969895  1.0000
  O   O17       1.0  0.6567871036618059  0.43632054382810964  0.9665832540122353  1.0000
  O   O18       1.0  0.5301326375502456  0.2203999894717866  0.5637510074208548  1.0000
  O   O19       1.0  0.3431074106295354  0.3093254265288861  0.7792864049668964  1.0000
  O   O20       1.0  0.46969100953275955  0.03318262351834266  0.6900326128227192  1.0000
  O   O21       1.0  0.9691802089288688  0.4395540384740714  0.28290594472736796  1.0000
  O   O22       1.0  0.8430421973248199  0.5296624277278779  0.5592108237255146  1.0000
  O   O23       1.0  0.030755944207804448  0.3139001989813932  0.47075058606470316  1.0000
  O   O24       1.0  0.15672991927555574  0.7158426938275253  0.686413683998815  1.0000
  O   O25       1.0  0.6987862961210496  0.6105747241857171  0.9460149247678372  1.0000
  O   O26       1.0  0.3369501574815885  0.0887700017755789  0.3904994435447263  1.0000
  O   O27       1.0  0.30072744431008397  0.24743022243504942  0.9112970497543458  1.0000
  O   O28       1.0  0.6635920486168275  0.05320942566703474  0.7519825312801843  1.0000
  O   O29       1.0  0.16342150320667767  0.5023816557955242  0.3032277915996601  1.0000
  O   O30       1.0  0.801604947068057  0.6624868446908463  0.4976749757115541  1.0000
  O   O31       1.0  0.8374629123385161  0.13993941129142223  0.33969037644977357  1.0000
  O   O32       1.0  0.1977922527937964  0.6956705304689519  0.8600381055468631  1.0000
  O   O33       1.0  0.7727360295899572  0.1835995232597439  0.14415849440761266  1.0000
  O   O34       1.0  0.9584314417264749  0.5876799489806641  0.8149272396785107  1.0000
  O   O35       1.0  0.22844165040236664  0.37188096874487525  0.41227862029361256  1.0000
  O   O36       1.0  0.04073153535910727  0.8563732405086524  0.6293848035312591  1.0000
  O   O37       1.0  0.5399771121834434  0.3789251444197603  0.10581564816146036  1.0000
  O   O38       1.0  0.7273986202741795  0.16132295494281823  0.6209056640118148  1.0000
  O   O39       1.0  0.4592580332662663  0.5656240317792081  0.8378187878275154  1.0000
  O   O40       1.0  0.27223139990564243  0.8933722112518648  0.434463313727278  1.0000
