data_image0
_chemical_formula_structural       La2H20C8Cl6O4
_chemical_formula_sum              "La2 H20 C8 Cl6 O4"
_cell_length_a       6.656302542627129
_cell_length_b       7.405291856616188
_cell_length_c       10.111682566379935
_cell_angle_alpha    84.43450650973183
_cell_angle_beta     76.91403009216981
_cell_angle_gamma    75.65810409920451

_space_group_name_H-M_alt    "P 1"
_space_group_IT_number       1

loop_
  _space_group_symop_operation_xyz
  'x, y, z'

loop_
  _atom_site_type_symbol
  _atom_site_label
  _atom_site_symmetry_multiplicity
  _atom_site_fract_x
  _atom_site_fract_y
  _atom_site_fract_z
  _atom_site_occupancy
  La  La1       1.0  0.7202544694173911  0.707931901261162  0.939557970414192  1.0000
  La  La2       1.0  0.2797568425617741  0.2920636814482407  0.060440470704385484  1.0000
  H   H1        1.0  0.03851764167218625  0.7843341379605135  0.6036524039566159  1.0000
  H   H2        1.0  0.96148636926268  0.21565987619459287  0.39633934317325964  1.0000
  H   H3        1.0  0.8054335782875269  0.96754759908562  0.6029335837468323  1.0000
  H   H4        1.0  0.19457349948230276  0.03245223578005609  0.397071091144184  1.0000
  H   H5        1.0  0.8859132005735193  0.8757428884475758  0.3669854130054586  1.0000
  H   H6        1.0  0.11407812612170432  0.1242637337712083  0.6330151542593467  1.0000
  H   H7        1.0  0.978948460357316  0.6379530312532254  0.4132080901965194  1.0000
  H   H8        1.0  0.02102860991362834  0.3620436459132037  0.5867914418586935  1.0000
  H   H9        1.0  0.520357661366532  0.8678006944064122  0.4672104772429859  1.0000
  H   H10       1.0  0.47963787913473516  0.132213243542715  0.5328086621080529  1.0000
  H   H11       1.0  0.61980446500975  0.6436219467897359  0.399751898341094  1.0000
  H   H12       1.0  0.38015803675088483  0.35639983032096717  0.6002508069443662  1.0000
  H   H13       1.0  0.6481232190439667  0.496236162554645  0.6214666864090643  1.0000
  H   H14       1.0  0.3518600601131681  0.5037829522127808  0.3785321248786389  1.0000
  H   H15       1.0  0.44619872807462735  0.6965388441693889  0.6790969739476793  1.0000
  H   H16       1.0  0.5538052771676407  0.3034666191482173  0.3209116740949509  1.0000
  H   H17       1.0  0.09028102205205371  0.9362904012036211  0.8607670165299691  1.0000
  H   H18       1.0  0.9097599143296267  0.0636983444179009  0.13922356624347992  1.0000
  H   H19       1.0  0.8666607086672046  0.07764119041468118  0.8687306475426906  1.0000
  H   H20       1.0  0.13336522396502917  0.9223459763572209  0.13125736381285688  1.0000
  C   C1        1.0  0.8775287096309727  0.8189672741183286  0.5841480394815048  1.0000
  C   C2        1.0  0.12246839338153143  0.1810407869672588  0.41585154846930544  1.0000
  C   C3        1.0  0.8613421938638981  0.7666277877303925  0.4461111464302546  1.0000
  C   C4        1.0  0.13863296923894103  0.23337586450259099  0.5538881219192503  1.0000
  C   C5        1.0  0.636370030007299  0.7349101897380451  0.47359243563088416  1.0000
  C   C6        1.0  0.3636216789529173  0.26510073236764237  0.526414658594966  1.0000
  C   C7        1.0  0.606690619057595  0.6493585387109063  0.6177417163921672  1.0000
  C   C8        1.0  0.3932972317864768  0.3506438804183317  0.38226069214395847  1.0000
  Cl  Cl1       1.0  0.6060309980406731  0.9904872609169926  0.1475461816711813  1.0000
  Cl  Cl2       1.0  0.39397414432318817  0.009502672081779899  0.8524526405097955  1.0000
  Cl  Cl3       1.0  0.6734190565262284  0.3470557036347941  0.8850425826913193  1.0000
  Cl  Cl4       1.0  0.3265980153967618  0.6529300468650946  0.11494983561938447  1.0000
  Cl  Cl5       1.0  0.8547120671182784  0.4877180760402311  0.16410160664084827  1.0000
  Cl  Cl6       1.0  0.14530576114798077  0.5122706386953197  0.8359013438449874  1.0000
  O   O1        1.0  0.7558319408047822  0.7074831786332398  0.6821142259062963  1.0000
  O   O2        1.0  0.24416859878798644  0.2925122976515199  0.3178838604783038  1.0000
  O   O3        1.0  0.9405252357401753  0.944111744992192  0.8587577453333136  1.0000
  O   O4        1.0  0.05948568294096651  0.0558796268733914  0.14124009753366096  1.0000
