data_image0
_chemical_formula_structural       Zn4H40C24O28
_chemical_formula_sum              "Zn4 H40 C24 O28"
_cell_length_a       7.416227806578409
_cell_length_b       9.789529869798763
_cell_length_c       13.68025428210109
_cell_angle_alpha    89.99971082177593
_cell_angle_beta     89.99980029741052
_cell_angle_gamma    107.99291883090552

_space_group_name_H-M_alt    "P 1"
_space_group_IT_number       1

loop_
  _space_group_symop_operation_xyz
  'x, y, z'

loop_
  _atom_site_type_symbol
  _atom_site_label
  _atom_site_symmetry_multiplicity
  _atom_site_fract_x
  _atom_site_fract_y
  _atom_site_fract_z
  _atom_site_occupancy
  Zn  Zn1       1.0  0.07893179291453119  0.27742442736015244  0.815082262234519  1.0000
  Zn  Zn2       1.0  0.921064850857661  0.22257466411392104  0.3150813654917926  1.0000
  Zn  Zn3       1.0  0.9210685954573988  0.7225740696836311  0.18491846918680477  1.0000
  Zn  Zn4       1.0  0.07893192188626598  0.7774248967848935  0.6849193659310941  1.0000
  H   H1        1.0  0.613350384154856  0.7353738971661413  0.8911899613425193  1.0000
  H   H2        1.0  0.3866429731883514  0.7646240633085953  0.39118625820728437  1.0000
  H   H3        1.0  0.3866486057255116  0.2646278151675858  0.10880930811355681  1.0000
  H   H4        1.0  0.6133542819809463  0.23537335295371528  0.6088115492964974  1.0000
  H   H5        1.0  0.5018049362584096  0.8462234642346902  0.9584357040596458  1.0000
  H   H6        1.0  0.4981881880358258  0.6537716779056666  0.4584314366485955  1.0000
  H   H7        1.0  0.4981941023403919  0.15377502941721838  0.0415657583435021  1.0000
  H   H8        1.0  0.5018122003555447  0.3462268191564278  0.5415656398699014  1.0000
  H   H9        1.0  0.34441229238710486  0.3054574162338071  0.9508477203486548  1.0000
  H   H10       1.0  0.6555887883868294  0.1945381840002938  0.4508481408765448  1.0000
  H   H11       1.0  0.6555912779564393  0.6945389429572444  0.049148625189936  1.0000
  H   H12       1.0  0.3444151181606828  0.8054656865374596  0.5491511285713457  1.0000
  H   H13       1.0  0.2690526846178614  0.13791149996306729  0.9285093062681897  1.0000
  H   H14       1.0  0.7309396678664228  0.3620821557091389  0.4285068299135304  1.0000
  H   H15       1.0  0.7309437031725637  0.8620837682415684  0.0714921561428383  1.0000
  H   H16       1.0  0.269062888915741  0.6379217114440581  0.571491708555051  1.0000
  H   H17       1.0  0.49688600952055845  0.8086607140064715  0.7359896142776563  1.0000
  H   H18       1.0  0.5031148318387508  0.6913398888834124  0.2359852112174394  1.0000
  H   H19       1.0  0.5031169809296543  0.19134422715542604  0.2640111171304085  1.0000
  H   H20       1.0  0.49688242333443366  0.3086575273825575  0.7640118653057826  1.0000
  H   H21       1.0  0.14022321699159337  0.510281409215672  0.9346928940788927  1.0000
  H   H22       1.0  0.8597830290008232  0.9897258053268129  0.434689749115357  1.0000
  H   H23       1.0  0.8597838227779918  0.4897235421218654  0.0653056443837059  1.0000
  H   H24       1.0  0.14021557592993616  0.0102716143163946  0.5653095203483076  1.0000
  H   H25       1.0  0.1439886086924318  0.5417154315455405  0.8214610242615734  1.0000
  H   H26       1.0  0.8560113720079483  0.9582810963836009  0.3214594541357272  1.0000
  H   H27       1.0  0.856009996246101  0.4582819881049929  0.17853678324095773  1.0000
  H   H28       1.0  0.14398675050910728  0.041718467907095706  0.6785405463053281  1.0000
  H   H29       1.0  0.5222935837041902  0.08922067546551202  0.8450224014204649  1.0000
  H   H30       1.0  0.4777054410726079  0.4107781228502957  0.3450187682791892  1.0000
  H   H31       1.0  0.47771167259700326  0.91078319844582  0.1549797919484206  1.0000
  H   H32       1.0  0.5222931638698115  0.5892192968038971  0.654978308242775  1.0000
  H   H33       1.0  0.6410854559407538  0.07698544652418352  0.7333774573954487  1.0000
  H   H34       1.0  0.3589174562288876  0.42301447706375234  0.2333725411675474  1.0000
  H   H35       1.0  0.358920716442185  0.9230173567483532  0.2666261979355298  1.0000
  H   H36       1.0  0.6410802326201194  0.5769840132182438  0.7666252663340316  1.0000
  H   H37       1.0  0.23006649566845297  0.8749497700681136  0.8659230071465985  1.0000
  H   H38       1.0  0.769927564175994  0.6250495175513748  0.36592052596410707  1.0000
  H   H39       1.0  0.7699298433879845  0.12504871680369692  0.1340791862396244  1.0000
  H   H40       1.0  0.23006920857571345  0.3749500433547652  0.6340787434976463  1.0000
  C   C1        1.0  0.8900850768818174  0.9546207758171761  0.8011953945085111  1.0000
  C   C2        1.0  0.10991675670606334  0.5453866885706873  0.3011914805766764  1.0000
  C   C3        1.0  0.109921095508895  0.0453820274626864  0.1988067988613338  1.0000
  C   C4        1.0  0.890077798940311  0.4546107209298357  0.6988034030073605  1.0000
  C   C5        1.0  0.8169906732773596  0.0787660020606253  0.9528308146098042  1.0000
  C   C6        1.0  0.18300354010600023  0.4212359987209595  0.4528284232326669  1.0000
  C   C7        1.0  0.18302292043357943  0.921251840916007  0.0471647999027596  1.0000
  C   C8        1.0  0.8169835455483819  0.5787495898085525  0.547162074494814  1.0000
  C   C9        1.0  0.7354270832571432  0.9762659298591744  0.8677118087900341  1.0000
  C   C10       1.0  0.2645705731804213  0.5237322759818496  0.3677098741832623  1.0000
  C   C11       1.0  0.26457503982197744  0.0237368632523669  0.1322911155641435  1.0000
  C   C12       1.0  0.7354293815234599  0.4762651470532404  0.6322886642985779  1.0000
  C   C13       1.0  0.5754795134186494  0.8351311631653572  0.8908287240242458  1.0000
  C   C14       1.0  0.42451249800118535  0.664866797542466  0.3908245557483383  1.0000
  C   C15       1.0  0.42451904278200914  0.16486947514868427  0.1091705454340399  1.0000
  C   C16       1.0  0.5754838410824733  0.3351316893549737  0.6091725207739315  1.0000
  C   C17       1.0  0.46743841229721284  0.8634336324329511  0.8008633434483059  1.0000
  C   C18       1.0  0.5325577382590723  0.6365630916982142  0.3008590703269435  1.0000
  C   C19       1.0  0.532562794700162  0.1365702313173784  0.199138118943786  1.0000
  C   C20       1.0  0.46743995058993454  0.3634353985837819  0.6991387371746357  1.0000
  C   C21       1.0  0.5889535930612906  0.022871858649097004  0.8024954641151112  1.0000
  C   C22       1.0  0.41105080085674944  0.47712952392492997  0.3024902690303719  1.0000
  C   C23       1.0  0.4110507471426035  0.9771330858863795  0.19750819121394872  1.0000
  C   C24       1.0  0.5889451045433132  0.5228678889491647  0.6975075384746745  1.0000
  O   O1        1.0  0.9013276532798925  0.2105631300082038  0.9355764492733911  1.0000
  O   O2        1.0  0.09865464446190943  0.28943579444249684  0.43557904397134456  1.0000
  O   O3        1.0  0.09867423102045346  0.7894257143820056  0.0644301300073167  1.0000
  O   O4        1.0  0.9013419333421951  0.7105766411213496  0.5644253423328607  1.0000
  O   O5        1.0  0.7886183811575123  0.027705078016076395  0.0393055097118662  1.0000
  O   O6        1.0  0.21138751191770666  0.4722957191920755  0.5393033117500181  1.0000
  O   O7        1.0  0.2113761744071994  0.9722923314075446  0.96070472446403  1.0000
  O   O8        1.0  0.7886199614927065  0.5277103061285331  0.4607025365160169  1.0000
  O   O9        1.0  0.015753983947270504  0.0669651463954182  0.768383981821934  1.0000
  O   O10       1.0  0.9842369389659852  0.43302903265206544  0.2683829901495542  1.0000
  O   O11       1.0  0.9842437536201629  0.9330301252047593  0.2316160186267098  1.0000
  O   O12       1.0  0.01576161723078692  0.5669716056583171  0.7316170102892984  1.0000
  O   O13       1.0  0.8829251689979714  0.8284133548373022  0.7773780739490235  1.0000
  O   O14       1.0  0.11707123142272027  0.671583604568724  0.2773751836421923  1.0000
  O   O15       1.0  0.11708370289621683  0.1715894551860445  0.22263069824339246  1.0000
  O   O16       1.0  0.8829305067339989  0.32841489587793404  0.7226226238556208  1.0000
  O   O17       1.0  0.3055013084361562  0.2368061497172889  0.897730438297785  1.0000
  O   O18       1.0  0.6944891056554285  0.26318888154352754  0.3977290935512841  1.0000
  O   O19       1.0  0.6945012970683208  0.7631944987577554  0.1022695621372947  1.0000
  O   O20       1.0  0.305505883647328  0.736809601954711  0.6022701759139368  1.0000
  O   O21       1.0  0.19706127649365612  0.4919785580456945  0.873962275955627  1.0000
  O   O22       1.0  0.8029378740488582  0.0080210243548606  0.3739601277955202  1.0000
  O   O23       1.0  0.8029408953505522  0.5080210164279678  0.1260340695788429  1.0000
  O   O24       1.0  0.19705981478848877  0.9919774659161507  0.6260398726477517  1.0000
  O   O25       1.0  0.2666417017435166  0.827954152276199  0.8067772219801482  1.0000
  O   O26       1.0  0.7333534697934213  0.6720435832310727  0.30677465027249445  1.0000
  O   O27       1.0  0.7333618198504865  0.1720454255673758  0.1932227784558904  1.0000
  O   O28       1.0  0.2666423868804344  0.3279570483175149  0.6932224262466065  1.0000
