data_image0
_chemical_formula_structural       Cd2H28C28S4N8O4
_chemical_formula_sum              "Cd2 H28 C28 S4 N8 O4"
_cell_length_a       5.947661103856523
_cell_length_b       10.811441430095178
_cell_length_c       13.479633985759175
_cell_angle_alpha    89.99920989869318
_cell_angle_beta     101.08986690004637
_cell_angle_gamma    89.99578803700939

_space_group_name_H-M_alt    "P 1"
_space_group_IT_number       1

loop_
  _space_group_symop_operation_xyz
  'x, y, z'

loop_
  _atom_site_type_symbol
  _atom_site_label
  _atom_site_symmetry_multiplicity
  _atom_site_fract_x
  _atom_site_fract_y
  _atom_site_fract_z
  _atom_site_occupancy
  Cd  Cd1       1.0  0.4999681414962467  1.1257643230100003e-05  0.4999999360743317  1.0000
  Cd  Cd2       1.0  0.9999956511942897  0.49998360191928976  0.999995286320903  1.0000
  H   H1        1.0  0.3156527822233457  0.22597472717385614  0.6198874774145008  1.0000
  H   H2        1.0  0.18429485706214876  0.7259505629538623  0.8800747842209373  1.0000
  H   H3        1.0  0.6843097108997185  0.7740430329140935  0.3800956130269312  1.0000
  H   H4        1.0  0.8157242322101084  0.27402002438130074  0.11991667049959888  1.0000
  H   H5        1.0  0.39487698453167047  0.44488917425831437  0.666517874804512  1.0000
  H   H6        1.0  0.1050673986430652  0.9448769013726805  0.8334730174821843  1.0000
  H   H7        1.0  0.6050906799046771  0.5551267358832135  0.3334678665660106  1.0000
  H   H8        1.0  0.8949637662008953  0.05510016045474942  0.16652536527534778  1.0000
  H   H9        1.0  0.019826025661451804  0.41059394523536946  0.5474189431899887  1.0000
  H   H10       1.0  0.48018131084001686  0.9106031044101711  0.9525992270950567  1.0000
  H   H11       1.0  0.98018147129887  0.5894210394837175  0.4526004908608171  1.0000
  H   H12       1.0  0.5198431128578989  0.0893952311988571  0.04740676169335958  1.0000
  H   H13       1.0  0.9137498595444811  0.19211817624002242  0.5069147437202233  1.0000
  H   H14       1.0  0.5862265007196329  0.692129794652338  0.9930700658613104  1.0000
  H   H15       1.0  0.08625225872832229  0.8078921838697325  0.49308718493049497  1.0000
  H   H16       1.0  0.4138011942224721  0.307862066354744  0.00692506390810619  1.0000
  H   H17       1.0  0.7038591860741407  0.7376856637334513  0.6727904009616879  1.0000
  H   H18       1.0  0.7961124117621736  0.23769816606291272  0.827228847578645  1.0000
  H   H19       1.0  0.2961411871587813  0.2623293211313182  0.3272091585153872  1.0000
  H   H20       1.0  0.203906925451264  0.7622881452751715  0.17278043236441212  1.0000
  H   H21       1.0  0.45527118093413316  0.6440278637649398  0.6311228850346919  1.0000
  H   H22       1.0  0.044697759830882006  0.14402380970006592  0.8689055889973856  1.0000
  H   H23       1.0  0.5447223283961904  0.3559898960004091  0.3688753680528122  1.0000
  H   H24       1.0  0.9553334670247722  0.855956951891578  0.1310972500699208  1.0000
  H   H25       1.0  0.6367200288321655  0.6134942935727635  0.7516231432362372  1.0000
  H   H26       1.0  0.8632454338838826  0.11350544966164486  0.7483821453486781  1.0000
  H   H27       1.0  0.3632768872270731  0.3865151416552592  0.2483739063470906  1.0000
  H   H28       1.0  0.13676707159405774  0.8864753120525962  0.25162805654220216  1.0000
  C   C1        1.0  0.04800103049040421  0.9466948767865875  0.6251755841947001  1.0000
  C   C2        1.0  0.45192396261444406  0.44665074025807183  0.8748040384732715  1.0000
  C   C3        1.0  0.951958034986859  0.05333213279140381  0.3748072242755994  1.0000
  C   C4        1.0  0.5480404884122976  0.5533207724360949  0.1251962764755561  1.0000
  C   C5        1.0  0.4690291029882516  0.2708352627024624  0.6038252323025899  1.0000
  C   C6        1.0  0.030937794435416797  0.7708301425751006  0.8961645532121876  1.0000
  C   C7        1.0  0.530957523000545  0.729173247671504  0.3961702291523039  1.0000
  C   C8        1.0  0.9691037434075581  0.22915061891789182  0.10384135945885474  1.0000
  C   C9        1.0  0.5141439511680304  0.3940042917538448  0.6298166296786006  1.0000
  C   C10       1.0  0.9858140189925351  0.8940094524329324  0.8701832454501923  1.0000
  C   C11       1.0  0.4858426639928338  0.6060079184076488  0.37017808898057314  1.0000
  C   C12       1.0  0.014225878078299602  0.10597408388967722  0.12982772537397116  1.0000
  C   C13       1.0  0.7140540229242447  0.4478503178562222  0.6081735777165987  1.0000
  C   C14       1.0  0.7859191099052367  0.9478576693498154  0.8918295909956127  1.0000
  C   C15       1.0  0.28592918624669045  0.5521637422202588  0.3918223445628897  1.0000
  C   C16       1.0  0.21411910477081617  0.052128641815727406  0.10818346706423648  1.0000
  C   C17       1.0  0.8616963206645423  0.3730072800909242  0.5641870120339901  1.0000
  C   C18       1.0  0.6382937714716732  0.873016688120721  0.9358099288973347  1.0000
  C   C19       1.0  0.1382938144206705  0.6270077048491914  0.43581467294485066  1.0000
  C   C20       1.0  0.36173930247466046  0.12697702265753458  0.06420270632195009  1.0000
  C   C21       1.0  0.8021866837089744  0.25125537265636677  0.5415653849022133  1.0000
  C   C22       1.0  0.6978036949027668  0.7512598995160787  0.9584269849836387  1.0000
  C   C23       1.0  0.19780854984990268  0.7487577623606329  0.4584337519002089  1.0000
  C   C24       1.0  0.3022344045720402  0.24873288630843154  0.04157790293714209  1.0000
  C   C25       1.0  0.632218126015104  0.6446801518417118  0.6737424262246349  1.0000
  C   C26       1.0  0.8677301486611029  0.144670204546486  0.8262757531116732  1.0000
  C   C27       1.0  0.3677821851005588  0.355332058204887  0.32625267692606735  1.0000
  C   C28       1.0  0.13229263595377463  0.8553161067553816  0.17373529409531585  1.0000
  S   S1        1.0  0.318500571902554  0.9640212895591844  0.6745132514580303  1.0000
  S   S2        1.0  0.18143552205805244  0.46397280644712424  0.8254410222955284  1.0000
  S   S3        1.0  0.681453444490124  0.0360306935764854  0.3254758184206849  1.0000
  S   S4        1.0  0.8185306327026394  0.5359913066672064  0.17455869095928725  1.0000
  N   N1        1.0  0.8511538035826051  0.930840362532152  0.59077492682475  1.0000
  N   N2        1.0  0.6487752106946162  0.43082961051157315  0.909222678986431  1.0000
  N   N3        1.0  0.14880710132446504  0.0691755476385225  0.40921693549954336  1.0000
  N   N4        1.0  0.35119602907258957  0.5691594761183794  0.09077374288145988  1.0000
  N   N5        1.0  0.6070799549168199  0.19974111132680156  0.559661131037238  1.0000
  N   N6        1.0  0.8929049901359817  0.699722221961963  0.940327221950376  1.0000
  N   N7        1.0  0.3929118320851828  0.800264624158025  0.4403362386339892  1.0000
  N   N8        1.0  0.10712969410448642  0.3002622393743337  0.05967812704385979  1.0000
  O   O1        1.0  0.7768750422159628  0.5665970701953855  0.6257609392198374  1.0000
  O   O2        1.0  0.723092467357496  0.06659279500839692  0.8742386430114661  1.0000
  O   O3        1.0  0.22311497872369299  0.43341513994320746  0.3742325757858466  1.0000
  O   O4        1.0  0.27692510484929755  0.9333907415229635  0.12576678243196673  1.0000
