data_image0
_chemical_formula_structural       Hg2H18C26N2Cl4
_chemical_formula_sum              "Hg2 H18 C26 N2 Cl4"
_cell_length_a       7.2725033021769105
_cell_length_b       10.135696908848459
_cell_length_c       9.939721526695212
_cell_angle_alpha    120.65407903213249
_cell_angle_beta     106.75587684581895
_cell_angle_gamma    90.00030699005603

_space_group_name_H-M_alt    "P 1"
_space_group_IT_number       1

loop_
  _space_group_symop_operation_xyz
  'x, y, z'

loop_
  _atom_site_type_symbol
  _atom_site_label
  _atom_site_symmetry_multiplicity
  _atom_site_fract_x
  _atom_site_fract_y
  _atom_site_fract_z
  _atom_site_occupancy
  Hg  Hg1       1.0  0.7499969546424906  0.9257624581016801  0.9999954121509803  1.0000
  Hg  Hg2       1.0  0.2500009067732023  0.07423899933431947  3.6159768015077956e-06  1.0000
  H   H1        1.0  0.0006101420558125021  0.9470647005531776  0.26885537714066743  1.0000
  H   H2        1.0  0.4993910317640769  0.6782044665200646  0.7311354586973523  1.0000
  H   H3        1.0  0.999389130483664  0.0529367928836066  0.7311459906198648  1.0000
  H   H4        1.0  0.5006103270840827  0.32179341311196213  0.26886053163710244  1.0000
  H   H5        1.0  0.7499963390580859  0.31711370446264914  1.3471031864066754e-06  1.0000
  H   H6        1.0  0.2500029445593271  0.6828877652300847  0.9999990048592337  1.0000
  H   H7        1.0  0.21383581453370237  0.947977198001695  0.5128422813171696  1.0000
  H   H8        1.0  0.2861588349642333  0.4351346577148263  0.48715117026396365  1.0000
  H   H9        1.0  0.7861646275092441  0.052023094919079  0.4871577352462211  1.0000
  H   H10       1.0  0.7138421936401825  0.5648621753528431  0.5128492556255039  1.0000
  H   H11       1.0  0.20985777723065988  0.7108301654980879  0.5250246205402291  1.0000
  H   H12       1.0  0.2901371478285172  0.1858103086662055  0.4749772545798833  1.0000
  H   H13       1.0  0.790142686968139  0.2891700799345785  0.47497336442692983  1.0000
  H   H14       1.0  0.7098595698590416  0.8141865826074908  0.5250232629981185  1.0000
  H   H15       1.0  0.9925138082473951  0.46094262578265  0.28228856438487787  1.0000
  H   H16       1.0  0.5074776045053895  0.17865745504160194  0.7177129112867248  1.0000
  H   H17       1.0  0.0074868975717307835  0.5390588561668109  0.7177131114121804  1.0000
  H   H18       1.0  0.4925225294496728  0.8213417438267072  0.28228950923544033  1.0000
  C   C1        1.0  0.8700107999316773  0.702421549100663  0.13358596531549705  1.0000
  C   C2        1.0  0.6299876320962098  0.5688350097674758  0.866411733174651  1.0000
  C   C3        1.0  0.1299867644740473  0.2975787905388145  0.8664144509729538  1.0000
  C   C4        1.0  0.3700128321025957  0.43116523566519055  0.13358625179250794  1.0000
  C   C5        1.0  0.9975392947157574  0.8408025602170213  0.2716643240101462  1.0000
  C   C6        1.0  0.5024484997496472  0.5691366876893085  0.7283228627142434  1.0000
  C   C7        1.0  0.002462019820697516  0.15919541439122042  0.7283357295167716  1.0000
  C   C8        1.0  0.497550820721017  0.43085899158105434  0.2716766117031426  1.0000
  C   C9        1.0  0.749996794901918  0.4248716466510062  0.9999999841152628  1.0000
  C   C10       1.0  0.2500059239850785  0.5751297487108289  2.2804662408140698e-06  1.0000
  C   C11       1.0  0.11636256403252085  0.8411231185274985  0.4074753166624703  1.0000
  C   C12       1.0  0.38364294338703087  0.4336480541262803  0.5925251517056296  1.0000
  C   C13       1.0  0.8836364558087129  0.15887716213654812  0.5925233760662748  1.0000
  C   C14       1.0  0.6163594337125886  0.5663603720428584  0.40747835310855157  1.0000
  C   C15       1.0  0.11501241198099177  0.7046985411394645  0.41417002881588166  1.0000
  C   C16       1.0  0.38497385181197796  0.29052850731963537  0.5858217986378733  1.0000
  C   C17       1.0  0.884989441185745  0.295301787782094  0.5858323273802598  1.0000
  C   C18       1.0  0.6150317404075596  0.7094694803147521  0.4141812105948476  1.0000
  C   C19       1.0  0.9959505193560362  0.5682148065442618  0.28177894936937514  1.0000
  C   C20       1.0  0.504051697615978  0.28643614089334335  0.718225699494667  1.0000
  C   C21       1.0  0.004051905674771214  0.4317878054584554  0.7182226621016525  1.0000
  C   C22       1.0  0.495944752675925  0.7135652805418716  0.281770989000357  1.0000
  C   C23       1.0  0.871338587464507  0.5622504839546922  0.1380165771285889  1.0000
  C   C24       1.0  0.6286540248861883  0.42423589052568644  0.8619801158956192  1.0000
  C   C25       1.0  0.1286621294325485  0.4377509742507186  0.8619840828703573  1.0000
  C   C26       1.0  0.37134128167758007  0.5757609647472179  0.13801806204963185  1.0000
  N   N1        1.0  0.7499938525275952  0.7016773881058571  0.9999896647455557  1.0000
  N   N2        1.0  0.2500074441576814  0.2983239949992437  1.1276001309612326e-05  1.0000
  Cl  Cl1       1.0  0.9951681499274156  0.17582188998664344  0.19786314645440226  1.0000
  Cl  Cl2       1.0  0.5048218020687686  0.9779573696385314  0.8021329457644555  1.0000
  Cl  Cl3       1.0  0.004830320205599067  0.824176060108144  0.8021342594032318  1.0000
  Cl  Cl4       1.0  0.49517376827117937  0.0220406746630601  0.19786689141446345  1.0000
