data_image0
_chemical_formula_structural       Dy4P4H36C32N4O36
_chemical_formula_sum              "Dy4 P4 H36 C32 N4 O36"
_cell_length_a       9.47330428444407
_cell_length_b       10.481972536006667
_cell_length_c       15.550689756557341
_cell_angle_alpha    89.99994057262016
_cell_angle_beta     102.45783232563164
_cell_angle_gamma    89.99990316861226

_space_group_name_H-M_alt    "P 1"
_space_group_IT_number       1

loop_
  _space_group_symop_operation_xyz
  'x, y, z'

loop_
  _atom_site_type_symbol
  _atom_site_label
  _atom_site_symmetry_multiplicity
  _atom_site_fract_x
  _atom_site_fract_y
  _atom_site_fract_z
  _atom_site_occupancy
  Dy  Dy1       1.0  0.21731790724024344  0.10998073986902314  0.3938886114799019  1.0000
  Dy  Dy2       1.0  0.2826762605438872  0.6099793638822392  0.10611246612428721  1.0000
  Dy  Dy3       1.0  0.78267417250008  0.890016544329022  0.6061141969763427  1.0000
  Dy  Dy4       1.0  0.717319104875223  0.3900131502224936  0.8938856392099411  1.0000
  P   P1        1.0  0.1654338857955935  0.8559740811778556  0.2332227832973857  1.0000
  P   P2        1.0  0.3345705586103449  0.35597452781181005  0.26677629152933957  1.0000
  P   P3        1.0  0.834573392316834  0.1440232030133686  0.7667743501471096  1.0000
  P   P4        1.0  0.6654312930298332  0.6440246644198028  0.7332226851751571  1.0000
  H   H1        1.0  0.3305161764434387  0.8721220959737082  0.9271773291075223  1.0000
  H   H2        1.0  0.16948762622554622  0.3721202273729106  0.5728254127291592  1.0000
  H   H3        1.0  0.6694932584166369  0.1278828203664588  0.07282073714245034  1.0000
  H   H4        1.0  0.8305066102635125  0.6278837349551765  0.4271783285330315  1.0000
  H   H5        1.0  0.39608373389106083  0.10749592998874388  0.9227099742933336  1.0000
  H   H6        1.0  0.10391961182047992  0.6074939095411763  0.5772903146472785  1.0000
  H   H7        1.0  0.6039235654921882  0.8925089863557362  0.07728458974180805  1.0000
  H   H8        1.0  0.8960778837436366  0.3925090987667446  0.42271193524798184  1.0000
  H   H9        1.0  0.2998218776185196  0.25918666390409584  0.022175658406091283  1.0000
  H   H10       1.0  0.20018169026871394  0.7591838763547328  0.4778252939786827  1.0000
  H   H11       1.0  0.7001821733315977  0.740817298423714  0.9778191122941281  1.0000
  H   H12       1.0  0.7998190537328753  0.2408162698942249  0.5221767492533829  1.0000
  H   H13       1.0  0.1496553687681441  0.1713988313168926  0.121914536233156  1.0000
  H   H14       1.0  0.35035163156972965  0.6713950229965561  0.3780882233715205  1.0000
  H   H15       1.0  0.8503540767316906  0.8286060850242691  0.8780822453140262  1.0000
  H   H16       1.0  0.649653420627928  0.32860226119052527  0.6219163278318547  1.0000
  H   H17       1.0  0.9974569681482993  0.8428500890214181  0.09502522515285967  1.0000
  H   H18       1.0  0.5025467243710863  0.3428441334906579  0.4049754935231391  1.0000
  H   H19       1.0  0.002545996440566997  0.1571567353635359  0.9049700426684171  1.0000
  H   H20       1.0  0.49745506343273166  0.6571531506971767  0.5950311913990377  1.0000
  H   H21       1.0  0.9886615387363094  0.9944398426940779  0.1480656225718775  1.0000
  H   H22       1.0  0.5113450356240464  0.4944358648910665  0.35193730890862446  1.0000
  H   H23       1.0  0.011351133914963901  0.005567935699581  0.8519335217148625  1.0000
  H   H24       1.0  0.4886545901002819  0.5055642813553192  0.6480690855542834  1.0000
  H   H25       1.0  0.032699566391563906  0.8366237396464131  0.3284445718598477  1.0000
  H   H26       1.0  0.4672973441888645  0.3366222302597636  0.17155479020730985  1.0000
  H   H27       1.0  0.9672969066639684  0.1633697284788056  0.67155046694586  1.0000
  H   H28       1.0  0.532701237749535  0.6633664677641137  0.8284469625725637  1.0000
  H   H29       1.0  0.9941783664893152  0.24209280668598865  0.26138731402354415  1.0000
  H   H30       1.0  0.5058201716341985  0.7420897258574826  0.23861020875855846  1.0000
  H   H31       1.0  0.005828890339252297  0.7579082935788789  0.7386123888246489  1.0000
  H   H32       1.0  0.4941709015495661  0.25790469629171053  0.7613834615506365  1.0000
  H   H33       1.0  0.8767386345791764  0.1592477720577321  0.2967249926668814  1.0000
  H   H34       1.0  0.6232579408235424  0.6592445724979613  0.20327103689559323  1.0000
  H   H35       1.0  0.1232589514239564  0.8407542822397357  0.7032663372551369  1.0000
  H   H36       1.0  0.3767428297796159  0.3407536657156599  0.7967277945804414  1.0000
  C   C1        1.0  0.2929046338986296  0.9458668011424509  0.9660291838458336  1.0000
  C   C2        1.0  0.20710117882171633  0.4458639834349896  0.5339718484550391  1.0000
  C   C3        1.0  0.7071048062824089  0.054137161179305296  0.03396824005321257  1.0000
  C   C4        1.0  0.7928952303854969  0.5541380708544422  0.46603089856316166  1.0000
  C   C5        1.0  0.32768138521579  0.0739946188500866  0.9660160839070926  1.0000
  C   C6        1.0  0.1723252533223416  0.5739944727153131  0.5339878856120707  1.0000
  C   C7        1.0  0.6723258875713186  0.9260074354351817  0.03398169188643858  1.0000
  C   C8        1.0  0.8276733020003775  0.4260085355897089  0.46601707891770167  1.0000
  C   C9        1.0  0.2757744788907814  0.15774966750812072  0.021798399241603806  1.0000
  C   C10       1.0  0.22423363889694772  0.6577458897508349  0.478203876740814  1.0000
  C   C11       1.0  0.7242360636057156  0.842256202852525  0.978196600479855  1.0000
  C   C12       1.0  0.775768164863237  0.3422542564952167  0.5218008811257634  1.0000
  C   C13       1.0  0.1901613370847173  0.1094114581810857  0.07646525083026032  1.0000
  C   C14       1.0  0.3098479665325513  0.6094076389425638  0.4235378605432062  1.0000
  C   C15       1.0  0.8098502545284489  0.8905963202134828  0.9235337482275484  1.0000
  C   C16       1.0  0.6901538372276407  0.39059250730349493  0.5764668973233713  1.0000
  C   C17       1.0  0.15384393781640426  0.980510887360083  0.07511578741102912  1.0000
  C   C18       1.0  0.34616343410260697  0.48050725419864193  0.4248874540351011  1.0000
  C   C19       1.0  0.8461687401590936  0.019493074958433  0.9248827145262057  1.0000
  C   C20       1.0  0.6538361916260699  0.5194890759721176  0.5751189404296896  1.0000
  C   C21       1.0  0.06086871496574281  0.9220371863269605  0.13012732409443836  1.0000
  C   C22       1.0  0.4391366546779025  0.4220315932919121  0.36987247297341963  1.0000
  C   C23       1.0  0.9391396494948908  0.07796868403402608  0.8698693122233438  1.0000
  C   C24       1.0  0.5608619272528942  0.5779637828643303  0.6301292798031499  1.0000
  C   C25       1.0  0.5425436611879134  0.03469403822381171  0.4692427918737892  1.0000
  C   C26       1.0  0.9574595830847273  0.5346963370992838  0.030766436930555564  1.0000
  C   C27       1.0  0.45745697641611127  0.9653061080152059  0.530772098386187  1.0000
  C   C28       1.0  0.04254875477325731  0.4653123953159408  0.9692334111427814  1.0000
  C   C29       1.0  0.011396541714915996  0.061280984179589416  0.5283783330480676  1.0000
  C   C30       1.0  0.48858092179342805  0.5612825494727147  0.9716236549182683  1.0000
  C   C31       1.0  0.9885782307834606  0.9387096218997114  0.4716234364514167  1.0000
  C   C32       1.0  0.5114024883613908  0.4387156887495536  0.028380561111660523  1.0000
  N   N1        1.0  0.2071390004897751  0.9007844852413598  0.019314914602738004  1.0000
  N   N2        1.0  0.29286423952587626  0.4007827519944344  0.4806865400803135  1.0000
  N   N3        1.0  0.7928693533354548  0.09921756904299174  0.9806830064197173  1.0000
  N   N4        1.0  0.707129996969705  0.5992154862201958  0.5193172011847125  1.0000
  O   O1        1.0  0.23441097956607146  0.9654495628578061  0.29104011929371154  1.0000
  O   O2        1.0  0.2655942539407975  0.46545020175350527  0.20896413129219846  1.0000
  O   O3        1.0  0.7655897378382976  0.034548675350848206  0.7089651356962748  1.0000
  O   O4        1.0  0.7344119058954561  0.5345461284162384  0.791037353383608  1.0000
  O   O5        1.0  0.049504232530686906  0.7850542758138561  0.27622610684605325  1.0000
  O   O6        1.0  0.450496038639244  0.2850498478112939  0.22377374191603397  1.0000
  O   O7        1.0  0.9504922564757835  0.21494682446412136  0.7237670049016958  1.0000
  O   O8        1.0  0.5495133057948607  0.7149445743124332  0.7762352443128506  1.0000
  O   O9        1.0  0.2725101233898926  0.7604118535344356  0.2105799175377498  1.0000
  O   O10       1.0  0.2274923606688546  0.2604086072828977  0.2894208884065038  1.0000
  O   O11       1.0  0.7274928252447806  0.23959020075448487  0.7894172773400713  1.0000
  O   O12       1.0  0.7725105294569303  0.7395848608303766  0.7105833723409065  1.0000
  O   O13       1.0  0.17081306656152154  0.7791308864485205  0.01482069361739491  1.0000
  O   O14       1.0  0.32918828318023685  0.27912623036575474  0.48518123328666724  1.0000
  O   O15       1.0  0.8291942221830553  0.22087307587605665  0.985175155121006  1.0000
  O   O16       1.0  0.6708059426766724  0.7208710538289723  0.5148237926816179  1.0000
  O   O17       1.0  0.6793380774690548  0.022482479685642404  0.48881550478371594  1.0000
  O   O18       1.0  0.8206457944596082  0.5224792874827103  0.011184056115588687  1.0000
  O   O19       1.0  0.3206517550704646  0.9775205286197348  0.5111972908341613  1.0000
  O   O20       1.0  0.17933448961819923  0.47751895075323597  0.9888055924968671  1.0000
  O   O21       1.0  0.4699699051669486  0.09717665589282379  0.40569736705633375  1.0000
  O   O22       1.0  0.030022161626639808  0.5971756723154229  0.09429957864579563  1.0000
  O   O23       1.0  0.530017791900086  0.9028225363412262  0.5943119263486025  1.0000
  O   O24       1.0  0.9699689700714346  0.4028225659148674  0.9056870257961694  1.0000
  O   O25       1.0  0.07402471497562862  0.1542462850970807  0.5018412601133451  1.0000
  O   O26       1.0  0.42596991850362537  0.6542374074985349  0.9981526819478932  1.0000
  O   O27       1.0  0.9259554892985734  0.8457567232259534  0.49815802376767954  1.0000
  O   O28       1.0  0.5740427860897411  0.3457503365010197  0.0018426082403805617  1.0000
  O   O29       1.0  0.9625741495976213  0.056194350708629805  0.5985003673214564  1.0000
  O   O30       1.0  0.5374145362217249  0.5561814289072091  0.9014926493902139  1.0000
  O   O31       1.0  0.0374201241403611  0.9438010254527498  0.4014988774852171  1.0000
  O   O32       1.0  0.4625711637016109  0.4438034530604398  0.0984964406706865  1.0000
  O   O33       1.0  0.9783412272412945  0.1814648820425404  0.30591096890197633  1.0000
  O   O34       1.0  0.5216563626316811  0.6814608931843082  0.19408711096934894  1.0000
  O   O35       1.0  0.021656257673285495  0.8185467124345681  0.6940925656918326  1.0000
  O   O36       1.0  0.47834446116807783  0.31853925307209613  0.8059052969917888  1.0000
