data_image0
_chemical_formula_structural       Sr2H32C22N4O16
_chemical_formula_sum              "Sr2 H32 C22 N4 O16"
_cell_length_a       8.206855663531556
_cell_length_b       9.533597687272449
_cell_length_c       9.533579057576915
_cell_angle_alpha    76.83754981226052
_cell_angle_beta     74.82038847552874
_cell_angle_gamma    74.82013863256762

_space_group_name_H-M_alt    "P 1"
_space_group_IT_number       1

loop_
  _space_group_symop_operation_xyz
  'x, y, z'

loop_
  _atom_site_type_symbol
  _atom_site_label
  _atom_site_symmetry_multiplicity
  _atom_site_fract_x
  _atom_site_fract_y
  _atom_site_fract_z
  _atom_site_occupancy
  Sr  Sr1       1.0  0.2500000481102518  0.005277594638165801  0.9947221908890357  1.0000
  Sr  Sr2       1.0  0.7499990424477261  0.9947252892771561  0.005275839852245581  1.0000
  H   H1        1.0  0.23216125900100343  0.7874075122263305  0.7510031218194159  1.0000
  H   H2        1.0  0.26783862911024403  0.24899615611113993  0.21259737839208273  1.0000
  H   H3        1.0  0.7678340339325231  0.21259536790618228  0.24899678702176686  1.0000
  H   H4        1.0  0.7321653289605906  0.7510022836927703  0.7874037072428165  1.0000
  H   H5        1.0  0.024525009985502784  0.8060919568884514  0.7163768394280084  1.0000
  H   H6        1.0  0.47547528373637954  0.2836202587126664  0.1939119072554902  1.0000
  H   H7        1.0  0.9754725590131128  0.193912049668576  0.28361918025947125  1.0000
  H   H8        1.0  0.5245263061554583  0.7163825949195298  0.8060887319756773  1.0000
  H   H9        1.0  0.4963898407150893  0.7575507781652959  0.45569406044523936  1.0000
  H   H10       1.0  0.0036129891980962864  0.5443021148419334  0.2424525043997861  1.0000
  H   H11       1.0  0.5036099829889977  0.24244444891190392  0.5442981378017464  1.0000
  H   H12       1.0  0.9963868507321864  0.45569737947182876  0.7575555433608869  1.0000
  H   H13       1.0  0.41894826315909484  0.912450204325282  0.5487300395420576  1.0000
  H   H14       1.0  0.08105215313513267  0.45126977611563734  0.08755195242584796  1.0000
  H   H15       1.0  0.5810571383602366  0.08754278297264047  0.45126457778624024  1.0000
  H   H16       1.0  0.9189426350834397  0.5487297250834685  0.9124571956293083  1.0000
  H   H17       1.0  0.09524861540409549  0.6455687315661435  0.5705881070379918  1.0000
  H   H18       1.0  0.4047553223852418  0.42941073817123504  0.354431921288004  1.0000
  H   H19       1.0  0.9047441605142412  0.3544341609558614  0.4294112990713898  1.0000
  H   H20       1.0  0.5952480742193915  0.5705898987393283  0.6455698564872634  1.0000
  H   H21       1.0  0.320650562306021  0.5900845785746611  0.5659759334623686  1.0000
  H   H22       1.0  0.1793568132669421  0.4340251392595533  0.4099169360609594  1.0000
  H   H23       1.0  0.6793439938031157  0.4099160703852647  0.4340277698282407  1.0000
  H   H24       1.0  0.8206474211166607  0.5659721975176097  0.5900843299432807  1.0000
  H   H25       1.0  0.3635432385042492  0.6928760875082245  0.2802040520035547  1.0000
  H   H26       1.0  0.13646167155952335  0.7197943497280902  0.3071210981544681  1.0000
  H   H27       1.0  0.6364541286141758  0.3071234639291021  0.7197982286301112  1.0000
  H   H28       1.0  0.8635387917216236  0.2802030101067245  0.6928788873125455  1.0000
  H   H29       1.0  0.14297838518488257  0.8919896703894139  0.4566317703189924  1.0000
  H   H30       1.0  0.3570217310227619  0.5433659900613891  0.10801108378326767  1.0000
  H   H31       1.0  0.857021284520627  0.10801103431288078  0.5433634625238497  1.0000
  H   H32       1.0  0.6429760612446246  0.45663685978799856  0.8919914335478082  1.0000
  C   C1        1.0  0.14382866650267087  0.8477961513798105  0.6782559403290095  1.0000
  C   C2        1.0  0.356172218612997  0.3217406421204884  0.1522081059930542  1.0000
  C   C3        1.0  0.8561704417366371  0.15220675042914422  0.3217399846541937  1.0000
  C   C4        1.0  0.6438286521357881  0.678259998232754  0.8477942219294546  1.0000
  C   C5        1.0  0.09435120687533781  0.013455969634236498  0.6853094706489316  1.0000
  C   C6        1.0  0.4056456688759837  0.3146902493545625  0.9865462100671181  1.0000
  C   C7        1.0  0.9056468970674773  0.9865458129756844  0.31468901553531486  1.0000
  C   C8        1.0  0.594356188487957  0.6853114923040805  0.013455662412425868  1.0000
  C   C9        1.0  0.3961356722863842  0.8586013015998899  0.46747031471936407  1.0000
  C   C10       1.0  0.10386536855033056  0.5325294473249329  0.14140061110762758  1.0000
  C   C11       1.0  0.6038641248957007  0.14139389863685636  0.5325250421647426  1.0000
  C   C12       1.0  0.8961329409799248  0.46747116068371514  0.8586064784782863  1.0000
  C   C13       1.0  0.4071604261227792  0.9608966456434086  0.31739803496729024  1.0000
  C   C14       1.0  0.09284215576143151  0.6826022890525251  0.039108078448848026  1.0000
  C   C15       1.0  0.5928410326141956  0.03910182444361961  0.6826004421777297  1.0000
  C   C16       1.0  0.9071583944712528  0.31739940959337787  0.9608993334995262  1.0000
  C   C17       1.0  0.22233264583879733  0.6661276383971567  0.5093251096217202  1.0000
  C   C18       1.0  0.2776723632856175  0.49067561226510037  0.33387306087990964  1.0000
  C   C19       1.0  0.7776631820389355  0.33387301778824247  0.49067726571622217  1.0000
  C   C20       1.0  0.7223303230166209  0.5093228203133293  0.6661293527076495  1.0000
  C   C21       1.0  0.2500030328828231  0.6513549251275279  0.3486448227962455  1.0000
  C   C22       1.0  0.7499971364042253  0.3486435198403938  0.6513570880595198  1.0000
  N   N1        1.0  0.2222951151587864  0.8194806009370411  0.5243366241454482  1.0000
  N   N2        1.0  0.2777086924913803  0.4756608557934001  0.18052097443621315  1.0000
  N   N3        1.0  0.7777035502502374  0.1805189845662198  0.4756611698984301  1.0000
  N   N4        1.0  0.7222937086574319  0.5243386708649495  0.8194823116610552  1.0000
  O   O1        1.0  0.047940628732710905  0.0443642908813189  0.8151425739803672  1.0000
  O   O2        1.0  0.4520557926312563  0.1848509885790151  0.9556405829605198  1.0000
  O   O3        1.0  0.9520569756285652  0.9556397514629751  0.18484923419094906  1.0000
  O   O4        1.0  0.5479425611023315  0.8151496641637125  0.044361242230188204  1.0000
  O   O5        1.0  0.09599346026210041  0.10298459138552829  0.5658667446600489  1.0000
  O   O6        1.0  0.4040064335434651  0.43412641668991364  0.8970224754215151  1.0000
  O   O7        1.0  0.9040071039446645  0.8970227548749674  0.43412369718238586  1.0000
  O   O8        1.0  0.5960004490101912  0.565875291242932  0.10298145540067334  1.0000
  O   O9        1.0  0.5480351115482238  0.0032837321602627997  0.2662515431266783  1.0000
  O   O10       1.0  0.9519668617227592  0.7337468413021709  0.9967192304798473  1.0000
  O   O11       1.0  0.4519653959362486  0.9967136724086317  0.7337431779451294  1.0000
  O   O12       1.0  0.048034552810882765  0.266251584050771  0.0032845110603716052  1.0000
  O   O13       1.0  0.27646105166815715  0.992654421795869  0.2601204706580588  1.0000
  O   O14       1.0  0.2235403266809683  0.7398804135304502  0.007347284353720285  1.0000
  O   O15       1.0  0.7235388678281182  0.007345153039239001  0.7398781011912448  1.0000
  O   O16       1.0  0.7764599737609432  0.26012241498263927  0.9926567885881924  1.0000
