data_image0
_chemical_formula_structural       Cd2H36C48N18O10
_chemical_formula_sum              "Cd2 H36 C48 N18 O10"
_cell_length_a       8.27684805678981
_cell_length_b       9.146011767271288
_cell_length_c       19.64
_cell_angle_alpha    95.38944292222479
_cell_angle_beta     99.98377993916053
_cell_angle_gamma    106.41684600158533

_space_group_name_H-M_alt    "P 1"
_space_group_IT_number       1

loop_
  _space_group_symop_operation_xyz
  'x, y, z'

loop_
  _atom_site_type_symbol
  _atom_site_label
  _atom_site_symmetry_multiplicity
  _atom_site_fract_x
  _atom_site_fract_y
  _atom_site_fract_z
  _atom_site_occupancy
  Cd  Cd1       1.0  0.34985206221011117  0.381985781358793  0.3033580049908053  1.0000
  Cd  Cd2       1.0  0.6501444206385614  0.6180136130247433  0.6966417115473362  1.0000
  H   H1        1.0  0.5327133233081014  0.9383699626598911  0.37817176704129446  1.0000
  H   H2        1.0  0.4672852204015783  0.061628278607756194  0.621827031302665  1.0000
  H   H3        1.0  0.39401746277412303  0.2211607085283305  0.5312022199071009  1.0000
  H   H4        1.0  0.605980688263621  0.7788363796234279  0.46879700847577505  1.0000
  H   H5        1.0  0.7716445852105737  0.8136189672541647  0.8581956492479178  1.0000
  H   H6        1.0  0.22835022944902766  0.1863827333611496  0.14180200962064046  1.0000
  H   H7        1.0  0.27445302856512654  0.6286257385374583  0.9025870834738966  1.0000
  H   H8        1.0  0.7255466931603536  0.371375962077849  0.09741551640301792  1.0000
  H   H9        1.0  0.4402371174487101  0.6662542161785581  0.018987618203404104  1.0000
  H   H10       1.0  0.5597617701822415  0.3337486375526453  0.9810119161788434  1.0000
  H   H11       1.0  0.5658785170695638  0.8079110436110071  0.13859138477126007  1.0000
  H   H12       1.0  0.4341223339210529  0.192097575699627  0.8614085452412681  1.0000
  H   H13       1.0  0.9140844747049357  0.1593675343486609  0.0563727145172379  1.0000
  H   H14       1.0  0.0859164737870159  0.8406341662666534  0.9436248833408883  1.0000
  H   H15       1.0  0.7596696789763726  0.3696301446241677  0.3315155735928812  1.0000
  H   H16       1.0  0.24033426197245691  0.6303623310640418  0.6684828577412674  1.0000
  H   H17       1.0  0.7361328966064988  0.4450485361306136  0.45002387864724364  1.0000
  H   H18       1.0  0.26387055416906696  0.5549497051370338  0.5499742598904049  1.0000
  H   H19       1.0  0.0484114598063741  0.1619747293703071  0.5260692753890481  1.0000
  H   H20       1.0  0.9515866912313699  0.8380223587814513  0.47393249881866945  1.0000
  H   H21       1.0  0.06982340531744312  0.0857203288454258  0.4049725180732082  1.0000
  H   H22       1.0  0.930176806581308  0.9142756061904507  0.5950313929301458  1.0000
  H   H23       1.0  0.01773945800778161  0.2272906725863137  0.6275471789992081  1.0000
  H   H24       1.0  0.9822619319067769  0.7727087217972226  0.3724549327224409  1.0000
  H   H25       1.0  0.893496574502464  0.3507570968933607  0.7335141737055295  1.0000
  H   H26       1.0  0.10650393256688771  0.6492469099537317  0.26648654776361974  1.0000
  H   H27       1.0  0.6959339067268004  0.488421837123262  0.5467212153484765  1.0000
  H   H28       1.0  0.3040683172822938  0.5115764041443853  0.45327887021814217  1.0000
  H   H29       1.0  0.2810667306598091  0.5019225179341831  0.7692794186993339  1.0000
  H   H30       1.0  0.7189297034381924  0.4980803357970132  0.23072197308098197  1.0000
  H   H31       1.0  0.7811563969056864  0.0211123987843465  0.9357270003502833  1.0000
  H   H32       1.0  0.21884828063635103  0.9788858424833009  0.0642712278182742  1.0000
  H   H33       1.0  0.5854693791039197  0.9208010889978482  0.2515775754773131  1.0000
  H   H34       1.0  0.4145311279654322  0.0792029178492371  0.748421109331957  1.0000
  H   H35       1.0  0.5768642504197886  0.0974821108979853  0.2758947732917463  1.0000
  H   H36       1.0  0.4231379248386347  0.902519589717329  0.724103932527221  1.0000
  C   C1        1.0  0.4228258008511432  0.1875750551888302  0.3958217326294431  1.0000
  C   C2        1.0  0.5771719087640009  0.8124243391947061  0.6041775643746377  1.0000
  C   C3        1.0  0.4586576446341724  0.0884497541511493  0.449214531791732  1.0000
  C   C4        1.0  0.5413457573907224  0.911551946464165  0.5507852819880839  1.0000
  C   C5        1.0  0.5178562349907098  0.9636820095065346  0.4315340278103292  1.0000
  C   C6        1.0  0.4821455475957849  0.0363185379928908  0.5684651080475547  1.0000
  C   C7        1.0  0.4401824417017295  0.12397379529754461  0.5179958694628083  1.0000
  C   C8        1.0  0.5598193408847578  0.8760267522018736  0.4820032663950755  1.0000
  C   C9        1.0  0.6366949876724277  0.7474577900926178  0.8520754272421627  1.0000
  C   C10       1.0  0.363303507286588  0.2525439105226965  0.1479240280140246  1.0000
  C   C11       1.0  0.3773285568156268  0.6458244619996094  0.8740410448801866  1.0000
  C   C12       1.0  0.6226731770201965  0.3541795448474758  0.1259602753848341  1.0000
  C   C13       1.0  0.6039146610727146  0.8339507065826695  0.9700811556933289  1.0000
  C   C14       1.0  0.3960932553461305  0.1660498409167559  0.029920464978964396  1.0000
  C   C15       1.0  0.5412781493949197  0.7763998457531329  0.027042522083839098  1.0000
  C   C16       1.0  0.45872235767443215  0.2236041610939523  0.9729581993853104  1.0000
  C   C17       1.0  0.6127535573309687  0.8561747090825733  0.0945452419725115  1.0000
  C   C18       1.0  0.3872481765048477  0.1438292977645119  0.905455059962577  1.0000
  C   C19       1.0  0.7496856447246003  0.9938025496040767  0.10575545162299702  1.0000
  C   C20       1.0  0.25031486234475153  0.0062014572430087  0.8942437423512432  1.0000
  C   C21       1.0  0.808964678903692  0.0517587597265958  0.047713249763759805  1.0000
  C   C22       1.0  0.19103911579313856  0.9482440940046003  0.9522856248121768  1.0000
  C   C23       1.0  0.9201721853078055  0.1726802572699171  0.286760275992691  1.0000
  C   C24       1.0  0.0798276339190096  0.8273145246500704  0.7132405008947913  1.0000
  C   C25       1.0  0.8432810890571717  0.0753445920896425  0.1750596615582651  1.0000
  C   C26       1.0  0.15671774982310893  0.9246617209892207  0.8249390022413081  1.0000
  C   C27       1.0  0.9119980366429488  0.2182225692469615  0.3593133852402062  1.0000
  C   C28       1.0  0.08799525607958003  0.781771059557137  0.6406863552017157  1.0000
  C   C29       1.0  0.8205397782439976  0.3209109983770375  0.373478102754305  1.0000
  C   C30       1.0  0.17945999223215384  0.6790872428906098  0.6265228218804353  1.0000
  C   C31       1.0  0.8082126426589511  0.3649715564386469  0.4414190826837441  1.0000
  C   C32       1.0  0.19179041544467174  0.6350255317131186  0.5585820317176624  1.0000
  C   C33       1.0  0.885283103979937  0.3043487948847883  0.49646313343597365  1.0000
  C   C34       1.0  0.11471259352487104  0.6956482932669701  0.5035364248500613  1.0000
  C   C35       1.0  0.9824569561858996  0.2058035111385266  0.4834522205088732  1.0000
  C   C36       1.0  0.017539182741508317  0.7941912707814609  0.5165487966508593  1.0000
  C   C37       1.0  0.995532863818177  0.1633653871306393  0.41509363286311174  1.0000
  C   C38       1.0  0.004463275109230917  0.8366293947893483  0.5849063659666811  1.0000
  C   C39       1.0  0.9304040602301668  0.2963346394666218  0.6259657781595465  1.0000
  C   C40       1.0  0.06960297334347135  0.7036705204963525  0.37403445226024695  1.0000
  C   C41       1.0  0.8713270802279283  0.3612746669032987  0.678426741534345  1.0000
  C   C42       1.0  0.12867470235855905  0.6387258805961267  0.3215739218184481  1.0000
  C   C43       1.0  0.7655342020632858  0.4337168663040885  0.5826799441810238  1.0000
  C   C44       1.0  0.2344663537567371  0.5662836811953298  0.417319611210928  1.0000
  C   C45       1.0  0.3824207132391706  0.5853054808756326  0.8081127809055175  1.0000
  C   C46       1.0  0.6175777817198451  0.4146962197396817  0.1918887110105487  1.0000
  C   C47       1.0  0.7363399653656091  0.9738455729390126  0.9803723451765621  1.0000
  C   C48       1.0  0.26366672428676463  0.0261549745604128  0.019627149204950508  1.0000
  N   N1        1.0  0.5449695482559704  0.649184641695804  0.7954302148392073  1.0000
  N   N2        1.0  0.45502732726463796  0.3508159058036213  0.2045690716600177  1.0000
  N   N3        1.0  0.5400072778492843  0.7489164816903155  0.9017465498962663  1.0000
  N   N4        1.0  0.45999406331460346  0.2510863720408878  0.0982546912427011  1.0000
  N   N5        1.0  0.05843056722937941  0.2108610774211286  0.2582313002817003  1.0000
  N   N6        1.0  0.9415720982023077  0.7891348576147479  0.7417707533235856  1.0000
  N   N7        1.0  0.011342206071518004  0.1486885281144623  0.18895542856930087  1.0000
  N   N8        1.0  0.9886574181526342  0.8513200911961718  0.8110449209772881  1.0000
  N   N9        1.0  0.7807263039691108  0.0880772977194866  0.23503801003113267  1.0000
  N   N10       1.0  0.21927552736804765  0.9119197904322789  0.7649609780794933  1.0000
  N   N11       1.0  0.6071232843478  0.030160899153607104  0.2379176237071547  1.0000
  N   N12       1.0  0.3928780568160876  0.9698419545775893  0.7620810716069641  1.0000
  N   N13       1.0  0.8626497291228858  0.3433437148525798  0.5650950230256555  1.0000
  N   N14       1.0  0.13735205346360865  0.6566568326468456  0.43490564032713763  1.0000
  N   N15       1.0  0.7693765567706735  0.4467078698927338  0.6507656549912468  1.0000
  N   N16       1.0  0.23062483314387805  0.5532915244908025  0.3492354384004556  1.0000
  N   N17       1.0  0.6380350074705348  0.709243529580668  0.3163496310185252  1.0000
  N   N18       1.0  0.36196309481654504  0.2907570179187573  0.6836487267816764  1.0000
  O   O1        1.0  0.4216194072217831  0.1462888939525655  0.3317897826127734  1.0000
  O   O2        1.0  0.5783714319678026  0.853704734851533  0.668209269402368  1.0000
  O   O3        1.0  0.39631962034292206  0.3140787867435648  0.41658937090921455  1.0000
  O   O4        1.0  0.603678089272215  0.6859206076399715  0.5834073802700175  1.0000
  O   O5        1.0  0.6318742061074757  0.5900978305041065  0.34651454256226794  1.0000
  O   O6        1.0  0.3681238961795971  0.4099027169953189  0.6534843244028963  1.0000
  O   O7        1.0  0.5205727686686785  0.703016703788137  0.2640430243755318  1.0000
  O   O8        1.0  0.4794253336184014  0.2969838437112884  0.7359563517546021  1.0000
  O   O9        1.0  0.7606190022789648  0.831712508645019  0.3387782285417344  1.0000
  O   O10       1.0  0.2393823876355938  0.1682868857385174  0.6612193006951869  1.0000
