data_image0
_chemical_formula_structural       Zn8H16C80Cl24O26
_chemical_formula_sum              "Zn8 H16 C80 Cl24 O26"
_cell_length_a       23.876589758374994
_cell_length_b       23.87807768339593
_cell_length_c       23.876357887322936
_cell_angle_alpha    66.89122245944837
_cell_angle_beta     72.32193784416579
_cell_angle_gamma    107.68661916604984

_space_group_name_H-M_alt    "P 1"
_space_group_IT_number       1

loop_
  _space_group_symop_operation_xyz
  'x, y, z'

loop_
  _atom_site_type_symbol
  _atom_site_label
  _atom_site_symmetry_multiplicity
  _atom_site_fract_x
  _atom_site_fract_y
  _atom_site_fract_z
  _atom_site_occupancy
  Zn  Zn1       1.0  0.05741376275455691  0.9576939801199201  0.4849056938252759  1.0000
  Zn  Zn2       1.0  0.05741013375269691  0.09972134438726948  0.45769394170678623  1.0000
  Zn  Zn3       1.0  0.9425818580696304  0.9849055650390708  0.4576850099538492  1.0000
  Zn  Zn4       1.0  0.9426017171252639  0.957689735502697  0.5997224562593576  1.0000
  Zn  Zn5       1.0  0.9425875641349608  0.5423093157389687  0.015091794680891656  1.0000
  Zn  Zn6       1.0  0.057421557609117754  0.515097222628043  0.042314140132269445  1.0000
  Zn  Zn7       1.0  0.9425890661499139  0.4002803215752734  0.04231112944867732  1.0000
  Zn  Zn8       1.0  0.057396642803482396  0.5423066720459175  0.9002774838632706  1.0000
  H   H1        1.0  0.9236693503294475  0.6520303510925414  0.11238394890147439  1.0000
  H   H2        1.0  0.07632598951251181  0.6123748491671321  0.15206691422584837  1.0000
  H   H3        1.0  0.923670389087448  0.8876209105818945  0.3479375552023429  1.0000
  H   H4        1.0  0.07627081777216223  0.8478968396572738  0.3876905295133285  1.0000
  H   H5        1.0  0.07634164263311063  0.46392047198979475  0.7716490406945198  1.0000
  H   H6        1.0  0.9236828433917452  0.27161001047874583  0.9639623119560669  1.0000
  H   H7        1.0  0.0762737221209164  0.22837839149362074  0.5360530378708505  1.0000
  H   H8        1.0  0.923670045131871  0.036051834964432344  0.7283773119721387  1.0000
  H   H9        1.0  0.7355739683836546  0.46394216721816417  0.11235212115714423  1.0000
  H   H10       1.0  0.735569302839494  0.2716171975338568  0.1520719010839926  1.0000
  H   H11       1.0  0.2644325361377255  0.228387084711855  0.3479200316130786  1.0000
  H   H12       1.0  0.264430423957819  0.036077029405234336  0.38757159499908783  1.0000
  H   H13       1.0  0.2644373716128003  0.6123332336731339  0.9639392931607561  1.0000
  H   H14       1.0  0.2644233772368808  0.6520629972844744  0.7716070524573483  1.0000
  H   H15       1.0  0.7355796439834777  0.8479318334071164  0.7283937721538012  1.0000
  H   H16       1.0  0.7355615737809703  0.8875925478177962  0.5360753104760293  1.0000
  C   C1        1.0  0.1821472109894984  0.09108494355307069  0.40891359824437506  1.0000
  C   C2        1.0  0.9999958859084613  0.13688997298409306  0.36310950095727185  1.0000
  C   C3        1.0  0.9999877301552335  0.9089190659677441  0.4089392714594667  1.0000
  C   C4        1.0  0.8178554057316987  0.9089129900863282  0.591088807943244  1.0000
  C   C5        1.0  1.070702152382503e-05  0.8631132463824686  0.6368881528830314  1.0000
  C   C6        1.0  0.9999921986823709  0.09107619721810759  0.5910725250591896  1.0000
  C   C7        1.0  0.9999979208076938  0.5910631116655695  0.09107861463762382  1.0000
  C   C8        1.0  1.858302411671528e-06  0.3631099915395596  0.13689354075764018  1.0000
  C   C9        1.0  0.8178537710808342  0.4089231390597803  0.09106536971373914  1.0000
  C   C10       1.0  0.9999995922250166  0.408915183695356  0.9089381003690705  1.0000
  C   C11       1.0  0.99999385422894  0.6368883129028049  0.8631062037547326  1.0000
  C   C12       1.0  0.18214578865863046  0.5910659767059201  0.9089133752214664  1.0000
  C   C13       1.0  3.918051824660449e-06  0.8051723376615599  0.6948259335865004  1.0000
  C   C14       1.0  0.9999998073776909  0.694827352648346  0.8051723443376206  1.0000
  C   C15       1.0  0.9570332185066238  0.7769515165069265  0.7660154878072872  1.0000
  C   C16       1.0  0.04297046306507478  0.7230491692427562  0.7339824112307768  1.0000
  C   C17       1.0  0.9570322039340767  0.7230501235014655  0.8199183284163568  1.0000
  C   C18       1.0  0.04297211544063378  0.7769517181823743  0.6800785031858398  1.0000
  C   C19       1.0  0.9999961700886714  0.1948256619972708  0.30517344314945677  1.0000
  C   C20       1.0  5.3166402552527174e-06  0.3051762066529021  0.19482918010672282  1.0000
  C   C21       1.0  0.9570294949559044  0.1800853576831685  0.2769419774961648  1.0000
  C   C22       1.0  0.042971947927981154  0.3199175049655665  0.2230594297881296  1.0000
  C   C23       1.0  0.9570331483922772  0.23398939075177327  0.2230398103449006  1.0000
  C   C24       1.0  0.04296809650561789  0.2660127552527173  0.2769623580753091  1.0000
  C   C25       1.0  0.9999976238498077  0.6285559728553234  0.12857788158422095  1.0000
  C   C26       1.0  0.9569103166318274  0.6571705111300615  0.13483473066051485  1.0000
  C   C27       1.0  0.9570271969186167  0.6919935857396594  0.1697073741227729  1.0000
  C   C28       1.0  0.9999915923531476  0.699420742269886  0.19944944737174108  1.0000
  C   C29       1.0  0.04296363534750491  0.6696908264871126  0.19202284221490368  1.0000
  C   C30       1.0  0.04308347316745662  0.6348206519577602  0.15720049547287832  1.0000
  C   C31       1.0  0.9999864142170835  0.734664762306053  0.23470670600806917  1.0000
  C   C32       1.0  0.9999818844590537  0.7652891950273358  0.26534095691376086  1.0000
  C   C33       1.0  0.9999758931781246  0.8005360307999467  0.30059190784091777  1.0000
  C   C34       1.0  0.9570213292298959  0.8302878272488097  0.3079976876360108  1.0000
  C   C35       1.0  0.956899842399416  0.8651589535834814  0.3428205777556246  1.0000
  C   C36       1.0  0.9999712475578448  0.8714058196066146  0.3714598198486811  1.0000
  C   C37       1.0  0.04304392570399797  0.8427707268086663  0.36522408655515903  1.0000
  C   C38       1.0  0.04292924447678125  0.8079498515310917  0.33035158576483076  1.0000
  C   C39       1.0  1.0398277176256581e-05  0.37141309370509384  0.8714510128603267  1.0000
  C   C40       1.0  0.043099323475282  0.40823441838416136  0.7997500345119165  1.0000
  C   C41       1.0  0.04297740839661667  0.3732443694495088  0.7650464733013395  1.0000
  C   C42       1.0  5.721288673118234e-06  0.30054646149489633  0.8005830060471696  1.0000
  C   C43       1.0  0.9570380185787714  0.2650073739508089  0.8732856801393539  1.0000
  C   C44       1.0  0.956923216649088  0.29971128101657746  0.9082746175945432  1.0000
  C   C45       1.0  0.9999963250202981  0.26529799829791045  0.765331284195753  1.0000
  C   C46       1.0  0.9999862331068528  0.2346771394929305  0.7346950287174467  1.0000
  C   C47       1.0  0.9999760853303458  0.19943183735778536  0.6994404049101137  1.0000
  C   C48       1.0  0.04292976030119183  0.2349766516333176  0.6267351170092184  1.0000
  C   C49       1.0  0.04304555216721448  0.2002763270681385  0.5917419553315285  1.0000
  C   C50       1.0  0.9999744432223564  0.12856927345497127  0.6285686194825216  1.0000
  C   C51       1.0  0.9569007549312546  0.09174083383164332  0.7002736487336636  1.0000
  C   C52       1.0  0.9570204270605912  0.12672968247707636  0.7349787811008358  1.0000
  C   C53       1.0  0.7428632254877527  0.37142595026577396  0.12856372678150055  1.0000
  C   C54       1.0  0.7079860057721206  0.4082532550756283  0.13481321099786922  1.0000
  C   C55       1.0  0.6382928350292971  0.37326445349803083  0.16968384878892812  1.0000
  C   C56       1.0  0.601128697973117  0.3005621821926497  0.1994270255757441  1.0000
  C   C57       1.0  0.6382913292903396  0.2650194198453731  0.1920164288543092  1.0000
  C   C58       1.0  0.7079851266554442  0.2997229451364589  0.15719474854702037  1.0000
  C   C59       1.0  0.5306294079178855  0.2653190687135876  0.23466592460956562  1.0000
  C   C60       1.0  0.4693726534009386  0.23470095885404146  0.2652820433344021  1.0000
  C   C61       1.0  0.39887314279861386  0.1994524310480229  0.3005243987271983  1.0000
  C   C62       1.0  0.3617109284435074  0.23499096815034895  0.3079566373458463  1.0000
  C   C63       1.0  0.2920167351255857  0.2002860074089625  0.34277858429621944  1.0000
  C   C64       1.0  0.25713714164086815  0.12858564022718608  0.3713939418724125  1.0000
  C   C65       1.0  0.2920157474755953  0.09176332742642747  0.36512489924550817  1.0000
  C   C66       1.0  0.3617093580418285  0.1267525675733339  0.3302535366115791  1.0000
  C   C67       1.0  0.25713758605782316  0.6285503859978903  0.8714196736655495  1.0000
  C   C68       1.0  0.2920201766207527  0.6347935099036519  0.9082504445983022  1.0000
  C   C69       1.0  0.36171390763715305  0.66966515068993  0.8732611965653307  1.0000
  C   C70       1.0  0.39887279521412483  0.6994143167272142  0.8005569419502337  1.0000
  C   C71       1.0  0.3617071572839879  0.6920051834634791  0.7650103307446942  1.0000
  C   C72       1.0  0.29201079762825105  0.65718241635021  0.7997143289378247  1.0000
  C   C73       1.0  0.469372745620696  0.7346632852643608  0.7653151173433275  1.0000
  C   C74       1.0  0.5306307981770219  0.7652884190870565  0.7347025393820132  1.0000
  C   C75       1.0  0.6011272526787509  0.8005385630609182  0.6994558659795588  1.0000
  C   C76       1.0  0.6382978625961756  0.8079703353345593  0.7349954025661563  1.0000
  C   C77       1.0  0.7079918477610576  0.8427948848749052  0.7002897461568764  1.0000
  C   C78       1.0  0.7428646396426192  0.8714103812005121  0.6285872730266534  1.0000
  C   C79       1.0  0.7079813211217073  0.8651473005412312  0.5917624908211679  1.0000
  C   C80       1.0  0.6382873482678804  0.8302759378298813  0.6267517025610803  1.0000
  Cl  Cl1       1.0  0.9021622551674399  0.8054257462825163  0.7924043763996453  1.0000
  Cl  Cl2       1.0  0.09784298766081917  0.6945759828650183  0.7075947327462018  1.0000
  Cl  Cl3       1.0  0.9021603172569429  0.6945698443124396  0.9032636485347825  1.0000
  Cl  Cl4       1.0  0.09784336431475574  0.805430841437236  0.5967342505032817  1.0000
  Cl  Cl5       1.0  0.9021626740007278  0.0967434414578035  0.3054040864740559  1.0000
  Cl  Cl6       1.0  0.0978390107078014  0.40325914455721096  0.19459819418911908  1.0000
  Cl  Cl7       1.0  0.9021683947118148  0.2076072924877293  0.19454849441056163  1.0000
  Cl  Cl8       1.0  0.09783357569195775  0.29239402001258696  0.30545420143172203  1.0000
  Cl  Cl9       1.0  0.09609789751146287  0.67710559845802  0.22706470139669935  1.0000
  Cl  Cl10      1.0  0.9038862606774316  0.7270199239230164  0.17711279238665179  1.0000
  Cl  Cl11      1.0  0.09604497816921059  0.7728910851897908  0.3229774672160772  1.0000
  Cl  Cl12      1.0  0.903904396714971  0.8228965865423702  0.272933769367512  1.0000
  Cl  Cl13      1.0  0.9039008512530559  0.17684218247819655  0.9190046271408789  1.0000
  Cl  Cl14      1.0  0.09611643437978058  0.4189683155408588  0.6768805043875902  1.0000
  Cl  Cl15      1.0  0.9039024432319707  0.08100235141933614  0.8231514363909157  1.0000
  Cl  Cl16      1.0  0.09604760087626123  0.32314798139236695  0.5810082980884347  1.0000
  Cl  Cl17      1.0  0.595844625276932  0.17684853882812496  0.22707171985257452  1.0000
  Cl  Cl18      1.0  0.5958505988349146  0.41899374083327257  0.17707169533697698  1.0000
  Cl  Cl19      1.0  0.40414933034784184  0.08102773271746591  0.32284074870776897  1.0000
  Cl  Cl20      1.0  0.40415697176705123  0.323156032301597  0.27292645469517407  1.0000
  Cl  Cl21      1.0  0.4041448933101677  0.7270641037972608  0.6768360503888716  1.0000
  Cl  Cl22      1.0  0.40416157192835567  0.6770500093267485  0.9189954825515445  1.0000
  Cl  Cl23      1.0  0.5958393507518523  0.822862162040387  0.5810259781908087  1.0000
  Cl  Cl24      1.0  0.5958597117278476  0.7729364679749012  0.823163289107015  1.0000
  O   O1        1.0  1.2227256720005914e-07  1.7984849450001094e-06  0.49999951159307443  1.0000
  O   O2        1.0  0.15325037194335067  0.02598177951876577  0.4329047496855055  1.0000
  O   O3        1.0  0.03990085035601962  0.154372797013643  0.38550871760465105  1.0000
  O   O4        1.0  0.9588694193020757  0.9329064338560965  0.4138451643249256  1.0000
  O   O5        1.0  0.15325011847225775  0.12728486978664222  0.4138441240258359  1.0000
  O   O6        1.0  0.0411188215248616  0.9138484992641196  0.4329103525322465  1.0000
  O   O7        1.0  0.9600819976514144  0.0745865955373546  0.3855226605280465  1.0000
  O   O8        1.0  0.8467466240717345  0.9328936105357855  0.5259845793319327  1.0000
  O   O9        1.0  0.960122681772049  0.8855279749507758  0.6543792971816914  1.0000
  O   O10       1.0  0.8467589105732499  0.9138385107654441  0.6272896604769688  1.0000
  O   O11       1.0  0.039900276317766326  0.8855163435528437  0.5745891980869118  1.0000
  O   O12       1.0  0.041115978358639914  0.1272794026884299  0.5259731881667804  1.0000
  O   O13       1.0  0.9588824353815184  0.025971555553297793  0.6272786239184998  1.0000
  O   O14       1.0  9.863654925334111e-07  0.4999999661122203  9.64115486064169e-07  1.0000
  O   O15       1.0  0.9588732027307357  0.5861418757489784  0.06709965149605077  1.0000
  O   O16       1.0  0.03991904928603432  0.42541483094048266  0.11447859485642199  1.0000
  O   O17       1.0  0.846749675522453  0.3727189309759138  0.0861498743206611  1.0000
  O   O18       1.0  0.04112823490391565  0.5670916377612443  0.08615717023153724  1.0000
  O   O19       1.0  0.8467506977276501  0.47402432518544657  0.06708250981719739  1.0000
  O   O20       1.0  0.960095424949209  0.34562750672409215  0.11449777617139037  1.0000
  O   O21       1.0  0.9588717890282011  0.3727147146192348  0.9740375780516718  1.0000
  O   O22       1.0  0.03987279746183256  0.614466069889012  0.8456195146471616  1.0000
  O   O23       1.0  0.04111386273402934  0.47401653137489314  0.8727310962198518  1.0000
  O   O24       1.0  0.9601039114068403  0.6144884930975748  0.9254115193721051  1.0000
  O   O25       1.0  0.15325538474699849  0.5670929291634009  0.9740168865810405  1.0000
  O   O26       1.0  0.15324199930956448  0.5861521289939801  0.8727113606914545  1.0000
