data_image0
_chemical_formula_structural       Zn4H26C40I8N4O21
_chemical_formula_sum              "Zn4 H26 C40 I8 N4 O21"
_cell_length_a       10.726563744977941
_cell_length_b       19.10031020332512
_cell_length_c       19.292171072801327
_cell_angle_alpha    93.79853512738939
_cell_angle_beta     92.75286861281417
_cell_angle_gamma    96.41676641999473

_space_group_name_H-M_alt    "P 1"
_space_group_IT_number       1

loop_
  _space_group_symop_operation_xyz
  'x, y, z'

loop_
  _atom_site_type_symbol
  _atom_site_label
  _atom_site_symmetry_multiplicity
  _atom_site_fract_x
  _atom_site_fract_y
  _atom_site_fract_z
  _atom_site_occupancy
  Zn  Zn1       1.0  0.3933504216708741  0.4500709768421983  0.43572205336843683  1.0000
  Zn  Zn2       1.0  0.6186355455845103  0.5747737781976241  0.45352034932729873  1.0000
  Zn  Zn3       1.0  0.6062198968977128  0.4480801414204977  0.5575401992822435  1.0000
  Zn  Zn4       1.0  0.4173633523617966  0.5622523226490089  0.5699370289800426  1.0000
  H   H1        1.0  0.3382272121380012  0.4663585769233761  0.22759517829033624  1.0000
  H   H2        1.0  0.14777947649911027  0.4850783322228622  0.6890441255052906  1.0000
  H   H3        1.0  0.2626420360478505  0.5543430058278958  0.7258782347661918  1.0000
  H   H4        1.0  0.8449075918429897  0.458466836162124  0.23127043869839528  1.0000
  H   H5        1.0  0.7602524320897786  0.469203885937887  0.30901741281058287  1.0000
  H   H6        1.0  0.9039182979084757  0.5236357643858939  0.3000955684522992  1.0000
  H   H7        1.0  0.879968787378502  0.6267944223286648  0.6379651996730402  1.0000
  H   H8        1.0  0.9453834540024249  0.6826060663607835  0.5737955178519059  1.0000
  H   H9        1.0  0.028219845863695466  0.6798697312838795  0.6565892536575999  1.0000
  H   H10       1.0  0.2637869535492001  0.8694796106269109  0.3318755648423704  1.0000
  H   H11       1.0  0.27332541968274876  0.9573758248782693  0.3739343481369914  1.0000
  H   H12       1.0  0.7183221845707736  0.5504803648339591  0.10846158187650448  1.0000
  H   H13       1.0  0.12422568825417102  0.9041553809578319  0.3600208506089828  1.0000
  H   H14       1.0  0.712985018911361  0.7113747715052908  0.5819307363389469  1.0000
  H   H15       1.0  0.6235654524718298  0.7674531359199932  0.6333210327683716  1.0000
  H   H16       1.0  0.7912604612929856  0.7869190362734599  0.6324945209098444  1.0000
  H   H17       1.0  0.816138228682469  0.9239566457926573  0.5803591371075143  1.0000
  H   H18       1.0  0.6755211421139223  0.9385449942726327  0.6241581114864657  1.0000
  H   H19       1.0  0.768693327557962  0.011318784304521002  0.5908277945420721  1.0000
  H   H20       1.0  0.9080530884846638  0.3735315176523103  0.5122611196761042  1.0000
  H   H21       1.0  0.045097474530990694  0.3633270335980114  0.46319729032221346  1.0000
  H   H22       1.0  0.8920291270511173  0.3564655500947112  0.4194873986410101  1.0000
  H   H23       1.0  0.17478548127804322  0.4942029385517729  0.1570604123562021  1.0000
  H   H24       1.0  0.11841643421053052  0.43940381783155413  0.0800390618506555  1.0000
  H   H25       1.0  0.19479064558149162  0.4017620591732936  0.1510701451539731  1.0000
  H   H26       1.0  0.15181070595206592  0.51008964079017  0.7809323900526977  1.0000
  C   C1        1.0  0.4977796794598675  0.6958658522547766  0.5116116822396464  1.0000
  C   C2        1.0  0.478806988545621  0.7719735479858302  0.5050277888421206  1.0000
  C   C3        1.0  0.5808665395896783  0.8244820044304859  0.5198022915426392  1.0000
  C   C4        1.0  0.5027660968892391  0.3221194857643043  0.4733392832907484  1.0000
  C   C5        1.0  0.5700011226267705  0.8946799373607988  0.5036911416504353  1.0000
  C   C6        1.0  0.5100457724778026  0.4877651574520884  0.7661804725125592  1.0000
  C   C7        1.0  0.6185026870098511  0.5005999735861623  0.810675153141652  1.0000
  C   C8        1.0  0.6104103792936398  0.49668638788792663  0.8828037541054101  1.0000
  C   C9        1.0  0.49107508982930176  0.47881448321697934  0.9097283198884014  1.0000
  C   C10       1.0  0.38375911628696  0.4626370967547473  0.8638036191231249  1.0000
  C   C11       1.0  0.3921405509341724  0.4684240313383796  0.7922217851095466  1.0000
  C   C12       1.0  0.4480290357118761  0.2030288184567368  0.5189201688709559  1.0000
  C   C13       1.0  0.41385182154126443  0.4833709253456747  0.1274118380952629  1.0000
  C   C14       1.0  0.4207176158112489  0.48354767949913224  0.19981173251522213  1.0000
  C   C15       1.0  0.5246507654909465  0.5077883908494912  0.09403938677726129  1.0000
  C   C16       1.0  0.5243421271905079  0.5076930537606827  0.3172796896931018  1.0000
  C   C17       1.0  0.5324419082156311  0.5056466534465756  0.2402012341938189  1.0000
  C   C18       1.0  0.6427683369575162  0.5285412474652277  0.20667762082238988  1.0000
  C   C19       1.0  0.6350056829269377  0.5312111585061458  0.13475376467923178  1.0000
  C   C20       1.0  0.5128372634471958  0.4936053415783663  0.6888315292289349  1.0000
  C   C21       1.0  0.8402102055507542  0.5373467675324263  0.5308928006930103  1.0000
  C   C22       1.0  0.1768487622816437  0.4964702001373596  0.5031544550106872  1.0000
  C   C23       1.0  0.4474075491827278  0.12933080955620818  0.5148129438131122  1.0000
  C   C24       1.0  0.04071321308976649  0.49932138022851547  0.5017353210346158  1.0000
  C   C25       1.0  0.9816272834294395  0.5449843448660089  0.5423019995979175  1.0000
  C   C26       1.0  0.49766850925523437  0.24280431257569993  0.4658002040223225  1.0000
  C   C27       1.0  0.9525932659986935  0.3830425505851452  0.46298665801893424  1.0000
  C   C28       1.0  0.19263470225025975  0.4491555124593774  0.12169164700889469  1.0000
  C   C29       1.0  0.2083651662077131  0.5039537153398898  0.7353169671992745  1.0000
  C   C30       1.0  0.8190201247598167  0.4968432739580209  0.2718666431283623  1.0000
  C   C31       1.0  0.9672559724964598  0.6490222722116743  0.6157546023678718  1.0000
  C   C32       1.0  0.2249852130564277  0.903425506867407  0.37178759435144565  1.0000
  C   C33       1.0  0.7052761198259816  0.7661151793645259  0.6012003426979575  1.0000
  C   C34       1.0  0.4979958252582576  0.0958664921111918  0.45667295905155914  1.0000
  C   C35       1.0  0.7359730653717307  0.9548000268719078  0.582251742662045  1.0000
  C   C36       1.0  0.5452443630083863  0.1361347141894456  0.4029325894036262  1.0000
  C   C37       1.0  0.5450192873157887  0.20936466192370767  0.4073700467429191  1.0000
  C   C38       1.0  0.3495131346382223  0.8583217504498889  0.4618086319036223  1.0000
  C   C39       1.0  0.36350360388954084  0.789053529431506  0.477121730275293  1.0000
  C   C40       1.0  0.45377668115945374  0.911345002369224  0.4739072213219443  1.0000
  I   I1        1.0  0.3764601270992785  0.2587003080100558  0.603622745045655  1.0000
  I   I2        1.0  0.20918700318132014  0.42916082205891126  0.902928934145983  1.0000
  I   I3        1.0  0.7781292389242295  0.5104318998796843  0.9466400021823205  1.0000
  I   I4        1.0  0.7904894426628531  0.5269395739203021  0.764082961848267  1.0000
  I   I5        1.0  0.21075335983719162  0.7106531882865356  0.4518819499329751  1.0000
  I   I6        1.0  0.606930968145754  0.07939442068114032  0.31673019196581  1.0000
  I   I7        1.0  0.6186653175839042  0.2721613547018649  0.3298952834980184  1.0000
  I   I8        1.0  0.38038648707105693  0.0706859854640314  0.5968569008420843  1.0000
  N   N1        1.0  0.5185931105099257  0.024138904108980293  0.451405175521124  1.0000
  N   N2        1.0  0.4279672747473739  0.9804992635872125  0.4662566615966028  1.0000
  N   N3        1.0  0.46957287620758587  0.47015226585693887  0.9808714849940185  1.0000
  N   N4        1.0  0.5365923409653277  0.5141369436020043  0.02264612527782361  1.0000
  O   O1        1.0  0.5097686197869251  0.5087902643674412  0.5035474481608161  1.0000
  O   O2        1.0  0.7940140604981137  0.5800255295945931  0.4918455464528577  1.0000
  O   O3        1.0  0.24068209613771072  0.5276691366351757  0.5563904971188336  1.0000
  O   O4        1.0  0.7833902042642791  0.48881069923741177  0.5633744900233066  1.0000
  O   O5        1.0  0.21922850504893893  0.46275672337250046  0.45142939756525635  1.0000
  O   O6        1.0  0.9640001410815132  0.45746218518899445  0.45189099158742607  1.0000
  O   O7        1.0  0.3067262879816824  0.4642297405787161  0.0872338831826269  1.0000
  O   O8        1.0  0.2922924710534219  0.45047882212581686  0.7448403968596011  1.0000
  O   O9        1.0  0.7573828652481039  0.5507944386543288  0.24039211981411057  1.0000
  O   O10       1.0  0.03895902543169431  0.5940058939928079  0.5903705321149104  1.0000
  O   O11       1.0  0.23456316679298791  0.8738525885225243  0.43848121616773017  1.0000
  O   O12       1.0  0.43021910125342094  0.4707704976545771  0.3400865433478515  1.0000
  O   O13       1.0  0.6970289603565548  0.8107766110851103  0.5444423438188224  1.0000
  O   O14       1.0  0.66508933761655  0.9476001097707328  0.5160897554557309  1.0000
  O   O15       1.0  0.4753547613392399  0.5493748317915107  0.6666144277593133  1.0000
  O   O16       1.0  0.5676600113259128  0.670451978123275  0.4673404963710084  1.0000
  O   O17       1.0  0.5974488885244751  0.35406044805320386  0.509288895715663  1.0000
  O   O18       1.0  0.44383592775557906  0.6645781580104142  0.560117630668266  1.0000
  O   O19       1.0  0.41281277797023824  0.34876013591294003  0.44395219812351167  1.0000
  O   O20       1.0  0.6097225322278632  0.547119033856447  0.35437822587707757  1.0000
  O   O21       1.0  0.5507592315724567  0.4426646718512829  0.6530405659998948  1.0000
