data_image0
_chemical_formula_structural       Zn4H48C82O16
_chemical_formula_sum              "Zn4 H48 C82 O16"
_cell_length_a       16.501529548231005
_cell_length_b       16.67014949085917
_cell_length_c       28.839320205128484
_cell_angle_alpha    90.38557076378353
_cell_angle_beta     90.63578676889395
_cell_angle_gamma    90.71467027273388

_space_group_name_H-M_alt    "P 1"
_space_group_IT_number       1

loop_
  _space_group_symop_operation_xyz
  'x, y, z'

loop_
  _atom_site_type_symbol
  _atom_site_label
  _atom_site_symmetry_multiplicity
  _atom_site_fract_x
  _atom_site_fract_y
  _atom_site_fract_z
  _atom_site_occupancy
  Zn  Zn1       1.0  0.5005675409415814  0.07655740777853032  0.500599166558537  1.0000
  Zn  Zn2       1.0  0.4994267209527052  0.9234409482306064  0.4994001104189109  1.0000
  Zn  Zn3       1.0  0.07732886961465368  0.5017506392273248  0.0012004795763757995  1.0000
  Zn  Zn4       1.0  0.9226685219221622  0.49825611677711373  0.9988019721178886  1.0000
  H   H1        1.0  0.31615855386124986  0.12993125341943573  0.3977912563886078  1.0000
  H   H2        1.0  0.13021076651177307  0.7952076532354296  0.8424289276516957  1.0000
  H   H3        1.0  0.19796678188051683  0.8719550997049269  0.3391888307119046  1.0000
  H   H4        1.0  0.8020281533928895  0.12804865598641868  0.6608097784122222  1.0000
  H   H5        1.0  0.6865900363658498  0.87416636302995  0.4000589239646573  1.0000
  H   H6        1.0  0.313793173834206  0.12584651683043552  0.6001871517378915  1.0000
  H   H7        1.0  0.1295087784019344  0.3300577871491939  0.10882298200444039  1.0000
  H   H8        1.0  0.8705228964251787  0.6696628247993102  0.8909965407903753  1.0000
  H   H9        1.0  0.8626415417615335  0.6899079810548726  0.0951732399104515  1.0000
  H   H10       1.0  0.1373531556082384  0.3101239724368908  0.904808833791172  1.0000
  H   H11       1.0  0.1228188860872308  0.6949790190620321  0.09813478023669121  1.0000
  H   H12       1.0  0.68384791374541  0.8700731068818968  0.6021994578746969  1.0000
  H   H13       1.0  0.8771760531792834  0.30497913971262847  0.9018958984715937  1.0000
  H   H14       1.0  0.8700443262635531  0.3179285192287579  0.10074114014641818  1.0000
  H   H15       1.0  0.12994143235357566  0.6823313940619967  0.8994231131284138  1.0000
  H   H16       1.0  0.3117948450788361  0.8723898662361194  0.3972097238273875  1.0000
  H   H17       1.0  0.6881976790274962  0.1276150883604572  0.6027902606663318  1.0000
  H   H18       1.0  0.6778715213675567  0.13096958625481386  0.3959335131634205  1.0000
  H   H19       1.0  0.32172183451233144  0.8689770464847726  0.6038069494544658  1.0000
  H   H20       1.0  0.2024753405019766  0.1306700131192002  0.3396913197935163  1.0000
  H   H21       1.0  0.7975408230214639  0.8693337510871827  0.6602942564893368  1.0000
  H   H22       1.0  0.24005176933464156  0.24388917051546594  0.12041711795530567  1.0000
  H   H23       1.0  0.7984802172690236  0.8758765863442193  0.3420387592344553  1.0000
  H   H24       1.0  0.231495364601237  0.3137639316186808  0.16684719889568805  1.0000
  H   H25       1.0  0.28315879095050883  0.22229414927235785  0.1754692676121863  1.0000
  H   H26       1.0  0.14785786236068788  0.21102351206203449  0.2111787943543817  1.0000
  H   H27       1.0  0.1555065456703346  0.1433213513301084  0.16518657604794376  1.0000
  H   H28       1.0  0.7687393580146207  0.6857473860426353  0.8328341802599153  1.0000
  H   H29       1.0  0.7598391100763705  0.755602825807948  0.879245909597401  1.0000
  H   H30       1.0  0.7169049229526578  0.7771025239860094  0.8241363028345106  1.0000
  H   H31       1.0  0.8443572903249859  0.8563488079640748  0.8345924318353963  1.0000
  H   H32       1.0  0.8523424974535061  0.788661766630689  0.7886146849752365  1.0000
  H   H33       1.0  0.693889577872703  0.2332644770278023  0.3399133495392874  1.0000
  H   H34       1.0  0.20193073041462378  0.12412670352222936  0.6582251508168325  1.0000
  H   H35       1.0  0.7666865287439961  0.24115310818301344  0.38564428005899737  1.0000
  H   H36       1.0  0.7868190124712483  0.2852235095772286  0.3311055731943569  1.0000
  H   H37       1.0  0.8647197889680169  0.15939739100748077  0.3379910564074676  1.0000
  H   H38       1.0  0.7939076027079892  0.15215557076077602  0.2928367697170771  1.0000
  H   H39       1.0  0.23231027398011858  0.7590884955295822  0.6137746374344744  1.0000
  H   H40       1.0  0.30525273821798743  0.7662884592980248  0.6594605187933523  1.0000
  H   H41       1.0  0.2121320188075728  0.7146365270744254  0.6682043989881805  1.0000
  H   H42       1.0  0.2057652482846493  0.847449132561522  0.706847762019258  1.0000
  H   H43       1.0  0.134738182041275  0.8408281597419245  0.6617766262956833  1.0000
  H   H44       1.0  0.8603503893926002  0.8043251972724124  0.1516832893992799  1.0000
  H   H45       1.0  0.1396472986421884  0.19570375750749489  0.8483008733117712  1.0000
  H   H46       1.0  0.1217198011587612  0.809443462054091  0.1546464888661347  1.0000
  H   H47       1.0  0.8782788095358924  0.19051769762635468  0.8453856133914214  1.0000
  H   H48       1.0  0.8697673296891181  0.205070854563651  0.15774540213997304  1.0000
  C   C1        1.0  0.6131173190830737  0.9989364833142533  0.563559776633511  1.0000
  C   C2        1.0  0.07356188691404239  0.766930208566663  0.8530836445538694  1.0000
  C   C3        1.0  0.9264383864849532  0.2956317338483885  0.115421757879389  1.0000
  C   C4        1.0  0.07356050367008751  0.7045052029569804  0.8846630451477181  1.0000
  C   C5        1.0  0.22424170605385285  0.9282795206208404  0.3519789981254249  1.0000
  C   C6        1.0  0.7757580902314132  0.0717248370250516  0.6480154852419061  1.0000
  C   C7        1.0  0.2874184789719862  0.9284461779241584  0.3842007181231039  1.0000
  C   C8        1.0  0.7125782848944624  0.07155817851472789  0.6157954784733306  1.0000
  C   C9        1.0  0.7667742094266997  0.0786233101034313  0.3508150803201318  1.0000
  C   C10       1.0  0.2329655874212904  0.9213161698536538  0.6490314097764767  1.0000
  C   C11       1.0  0.7050675619214954  0.07585779839477173  0.3834005233458768  1.0000
  C   C12       1.0  0.38687824526550674  0.0010690724467395  0.4364381502784056  1.0000
  C   C13       1.0  0.2946917667964327  0.9240936868309861  0.6164534274772109  1.0000
  C   C14       1.0  0.9947322099292746  0.0048246684398663  0.24811650373074196  1.0000
  C   C15       1.0  0.0052639056996141975  0.995176687838743  0.751883837750057  1.0000
  C   C16       1.0  0.611243660508748  0.0023484496428310005  0.4367411955163902  1.0000
  C   C17       1.0  0.3887456071088876  0.9976379059902812  0.563256613814488  1.0000
  C   C18       1.0  0.1926933360147558  0.0013265801415230005  0.3357721106459478  1.0000
  C   C19       1.0  0.807312540315564  0.9986789798112318  0.6642186043036274  1.0000
  C   C20       1.0  0.3204923633073378  0.0011450329796290001  0.4009050250116815  1.0000
  C   C21       1.0  0.6795092354640319  0.9988581254097467  0.5990901593611113  1.0000
  C   C22       1.0  0.800776750241667  0.0047950109712787  0.33625151091806765  1.0000
  C   C23       1.0  0.9188598973692094  0.7165555384091462  0.1085711916690002  1.0000
  C   C24       1.0  0.19922499879081806  0.9951721508746942  0.6637535895952383  1.0000
  C   C25       1.0  0.6763438107734174  0.0028662258965753  0.4012492603551934  1.0000
  C   C26       1.0  0.32365021483315815  0.9971129321789506  0.5987499400414507  1.0000
  C   C27       1.0  0.9998936610573846  0.20428844200193907  0.1652918638982257  1.0000
  C   C28       1.0  0.0001091037409253018  0.7957111171258333  0.8347047012990956  1.0000
  C   C29       1.0  0.0001930429862185  0.3298637832617928  0.10158679583128818  1.0000
  C   C30       1.0  0.9998167916336697  0.6701183809431512  0.8984007337730019  1.0000
  C   C31       1.0  0.9909593850150104  0.8141085209841067  0.15695661341144526  1.0000
  C   C32       1.0  0.009039098708839798  0.18588863640447778  0.843047195175842  1.0000
  C   C33       1.0  0.9928254660969102  0.6856207606238626  0.09351443560589699  1.0000
  C   C34       1.0  0.0811370472285375  0.2834632166557469  0.8914222883962849  1.0000
  C   C35       1.0  0.007163348256533202  0.314378792885705  0.9064910506828383  1.0000
  C   C36       1.0  0.0680154597745997  0.002271307077514  0.2780507733104328  1.0000
  C   C37       1.0  0.9319867658747468  0.9977336512716308  0.721945462579363  1.0000
  C   C38       1.0  0.9964016551283379  0.0787603655880815  0.22012463445194894  1.0000
  C   C39       1.0  0.003589026495852501  0.9212427884340569  0.7798770642914689  1.0000
  C   C40       1.0  0.2267940415812433  0.07426754584075469  0.35227763029298836  1.0000
  C   C41       1.0  0.7732190738765183  0.9257350172438095  0.6477103479243596  1.0000
  C   C42       1.0  0.9228728666174318  0.004203989561972299  0.27826434262436806  1.0000
  C   C43       1.0  0.0771280421625917  0.9957931687482715  0.7217387888713204  1.0000
  C   C44       1.0  0.9922392758658276  0.9349779375121514  0.2162102564885444  1.0000
  C   C45       1.0  0.0651814331635165  0.7829283520903658  0.1415946790633384  1.0000
  C   C46       1.0  0.007753187850262599  0.0650222175350947  0.7837907490975056  1.0000
  C   C47       1.0  0.12624412795738488  0.0016350443798814  0.3041695172201599  1.0000
  C   C48       1.0  0.8737599354267545  0.9983711147401381  0.6958229215517234  1.0000
  C   C49       1.0  0.9907524721079922  0.8791469603280717  0.1889194258216307  1.0000
  C   C50       1.0  0.009241178468691697  0.12085139519792419  0.8110840080059204  1.0000
  C   C51       1.0  0.9981565877032493  0.13775094539153798  0.1956274138003522  1.0000
  C   C52       1.0  0.0018304667967541008  0.8622528073373702  0.8043728757526976  1.0000
  C   C53       1.0  0.8658565613081777  0.0043964431724959  0.3045603881220416  1.0000
  C   C54       1.0  0.1341466578131971  0.9955917168302406  0.6954451510974025  1.0000
  C   C55       1.0  0.9941073786875876  0.6174355750297379  0.0597705559583162  1.0000
  C   C56       1.0  0.9348161971558183  0.21705020615760873  0.8584236145617367  1.0000
  C   C57       1.0  0.005893005711449501  0.38256818237273654  0.9402322510161552  1.0000
  C   C58       1.0  0.0008450846452987997  0.3944712296751759  0.06605004532883639  1.0000
  C   C59       1.0  0.9991661430610036  0.6055265327402779  0.9339462233435113  1.0000
  C   C60       1.0  0.2899089639995083  0.073942233930147  0.3845282178315158  1.0000
  C   C61       1.0  0.710100488206507  0.9260585277898415  0.6154635428105378  1.0000
  C   C62       1.0  0.7713834412918104  0.9315481902287248  0.3538939388718134  1.0000
  C   C63       1.0  0.22886747488781367  0.06844124989688538  0.6462630762483029  1.0000
  C   C64       1.0  0.7095105359103185  0.9304486566218133  0.3860866965384701  1.0000
  C   C65       1.0  0.29071988393737763  0.06954857586308799  0.614059807916462  1.0000
  C   C66       1.0  0.0750598222127081  0.23969681544587473  0.1523486649103774  1.0000
  C   C67       1.0  0.0658541251228257  0.7194060743634695  0.1102304119960706  1.0000
  C   C68       1.0  0.9249604654560456  0.7601401747302106  0.8475443994282299  1.0000
  C   C69       1.0  0.07338600704698449  0.3019730569454424  0.1203471486099303  1.0000
  C   C70       1.0  0.9266402290733069  0.6978543367657724  0.8795410639966902  1.0000
  C   C71       1.0  0.9176814094625599  0.7801010285499642  0.13996125520053226  1.0000
  C   C72       1.0  0.0823136648748388  0.2199135262867031  0.8600325425584712  1.0000
  C   C73       1.0  0.1526906904797301  0.20805739295200704  0.1730849115859243  1.0000
  C   C74       1.0  0.2309031462924054  0.249498861468652  0.15800044474697464  1.0000
  C   C75       1.0  0.8473460139833335  0.791625427061348  0.8267025967229671  1.0000
  C   C76       1.0  0.769147980581586  0.7500147897556105  0.841674847232319  1.0000
  C   C77       1.0  0.7989129020779798  0.15617213713426986  0.3309603821015799  1.0000
  C   C78       1.0  0.9341428365647388  0.2805676840058666  0.8897906323505396  1.0000
  C   C79       1.0  0.7591596309908937  0.23291447120233497  0.3479763843623473  1.0000
  C   C80       1.0  0.20057648098444497  0.8437408654134231  0.6687206453481948  1.0000
  C   C81       1.0  0.23996619029255578  0.7669786172472611  0.6514586885166409  1.0000
  C   C82       1.0  0.9264299594398577  0.2332265227274277  0.1470129776056197  1.0000
  O   O1        1.0  0.5877970561354715  0.0672665610416914  0.5500108428589883  1.0000
  O   O2        1.0  0.936316845743562  0.4078576922276867  0.9524503074547324  1.0000
  O   O3        1.0  0.9320384236687572  0.4179905528570416  0.050674195404532406  1.0000
  O   O4        1.0  0.0679591401635093  0.5820312009176974  0.9493380250021273  1.0000
  O   O5        1.0  0.06996665242782288  0.4211953192608746  0.05302037574819709  1.0000
  O   O6        1.0  0.9300322942278996  0.5787886407347216  0.9469681274726582  1.0000
  O   O7        1.0  0.9256940267120939  0.5893510173654307  0.045418675014254006  1.0000
  O   O8        1.0  0.07429384462542289  0.4106689344107721  0.9545726678619104  1.0000
  O   O9        1.0  0.4122197355842586  0.9327390031903916  0.4499747447033471  1.0000
  O   O10       1.0  0.5853821374495142  0.9337904352805281  0.4504038846350653  1.0000
  O   O11       1.0  0.414636808675887  0.06619652978730528  0.5496138925032454  1.0000
  O   O12       1.0  0.5861123846705425  0.07035522190455618  0.4512109598407221  1.0000
  O   O13       1.0  0.4138539304382505  0.9296353262129173  0.5487665991823434  1.0000
  O   O14       1.0  0.5867258526972421  0.9306548669706558  0.549030331073169  1.0000
  O   O15       1.0  0.4132466417980467  0.0693488797448083  0.4509816494380274  1.0000
  O   O16       1.0  0.0636743271236497  0.5921370623465452  0.0475603772765609  1.0000
