data_image0
_chemical_formula_structural       Zn8H40C80O42
_chemical_formula_sum              "Zn8 H40 C80 O42"
_cell_length_a       23.76506188165929
_cell_length_b       23.766352361806476
_cell_length_c       23.764870168955383
_cell_angle_alpha    66.37531186880786
_cell_angle_beta     72.56996643848197
_cell_angle_gamma    107.438565743504

_space_group_name_H-M_alt    "P 1"
_space_group_IT_number       1

loop_
  _space_group_symop_operation_xyz
  'x, y, z'

loop_
  _atom_site_type_symbol
  _atom_site_label
  _atom_site_symmetry_multiplicity
  _atom_site_fract_x
  _atom_site_fract_y
  _atom_site_fract_z
  _atom_site_occupancy
  Zn  Zn1       1.0  0.05713464385987522  0.9565972066104749  0.4862781519638518  1.0000
  Zn  Zn2       1.0  0.05713306786526571  0.1005381918862795  0.45659890585557855  1.0000
  Zn  Zn3       1.0  0.9428600092091058  0.9862748694667759  0.4565914630097223  1.0000
  Zn  Zn4       1.0  0.9428766117547905  0.9565937522383546  0.6005414635739756  1.0000
  Zn  Zn5       1.0  0.9428656884541838  0.5434027233916227  0.013721477264617263  1.0000
  Zn  Zn6       1.0  0.057141446511955934  0.5137256610209349  0.04340800996189397  1.0000
  Zn  Zn7       1.0  0.9428660434529448  0.3994603942134702  0.0434065081749324  1.0000
  Zn  Zn8       1.0  0.05712115420344319  0.5434004675995964  0.8994599690437893  1.0000
  H   H1        1.0  0.9236338040881121  0.7983364206606751  0.7780271940859862  1.0000
  H   H2        1.0  0.07636832372663356  0.7016632149674464  0.7219720325395044  1.0000
  H   H3        1.0  0.9236295097689505  0.7016605387513903  0.8747035985989843  1.0000
  H   H4        1.0  0.07637237579240255  0.7983393781791932  0.6252955889248141  1.0000
  H   H5        1.0  0.9236290564134463  0.12530011800274826  0.29832339824389453  1.0000
  H   H6        1.0  0.07637201559815307  0.3747009652623419  0.2016779070111312  1.0000
  H   H7        1.0  0.9236351129733578  0.22197775142537066  0.20165039495461912  1.0000
  H   H8        1.0  0.07636688413289512  0.2780232121392956  0.2983502588343967  1.0000
  H   H9        1.0  0.9228900955238755  0.6520973751745912  0.11218554768235825  1.0000
  H   H10       1.0  0.0771085715731274  0.6121771758289895  0.152135128162854  1.0000
  H   H11       1.0  0.9228883678610628  0.8878162064715129  0.3478689700984388  1.0000
  H   H12       1.0  0.0770598984007548  0.8478389256506204  0.3878785425727359  1.0000
  H   H13       1.0  0.07711818855531052  0.46490103017160317  0.7707993351295955  1.0000
  H   H14       1.0  0.9228973927542369  0.27076167459873085  0.9649386496078305  1.0000
  H   H15       1.0  0.07706390984698429  0.22922734875267278  0.5350735512599626  1.0000
  H   H16       1.0  0.9228905567002669  0.03507573075285837  0.729223671596465  1.0000
  H   H17       1.0  0.7357044344944582  0.4649203532739392  0.11215684868920299  1.0000
  H   H18       1.0  0.735697785650828  0.27076651528580703  0.1521391148601623  1.0000
  H   H19       1.0  0.26430300024754416  0.22923586551369377  0.34785797280632375  1.0000
  H   H20       1.0  0.26429802820991444  0.035096470339347284  0.3877759156192582  1.0000
  H   H21       1.0  0.26430769075587773  0.6121415458233911  0.9649163492630991  1.0000
  H   H22       1.0  0.26429152219656515  0.6521287620481786  0.7707568524204048  1.0000
  H   H23       1.0  0.7357116186244779  0.8478687562637858  0.7292391252171058  1.0000
  H   H24       1.0  0.7356931955373581  0.8877919068327882  0.5350940292107396  1.0000
  H   H25       1.0  0.08022845336383706  0.7004907251013037  0.24210888396457622  1.0000
  H   H26       1.0  0.9197556168496561  0.7420666270756371  0.20050324824283172  1.0000
  H   H27       1.0  0.08017230256265855  0.7578380722229595  0.29959395018470064  1.0000
  H   H28       1.0  0.9197865287066093  0.7995265305095957  0.2578722868651722  1.0000
  H   H29       1.0  0.919765252848407  0.1776663679848556  0.8797453703773357  1.0000
  H   H30       1.0  0.0802408506159865  0.37971197261478556  0.6776997660585308  1.0000
  H   H31       1.0  0.9197895894208725  0.12025767288612607  0.8223300659193029  1.0000
  H   H32       1.0  0.08017620515347801  0.32232953004895387  0.6202591236334101  1.0000
  H   H33       1.0  0.5574108069156619  0.17766610158368912  0.24213039757810872  1.0000
  H   H34       1.0  0.5574168624719674  0.37973962260181787  0.20044425025013624  1.0000
  H   H35       1.0  0.4425864166058061  0.12028491244010552  0.2994599510470977  1.0000
  H   H36       1.0  0.44258971376770967  0.3223317593206758  0.2578879256459601  1.0000
  H   H37       1.0  0.4425769958920397  0.7421251544419506  0.6776558111395374  1.0000
  H   H38       1.0  0.4425941908759511  0.7004273824523963  0.8797394705652835  1.0000
  H   H39       1.0  0.5574054362859185  0.7994770337995049  0.6202820046096705  1.0000
  H   H40       1.0  0.5574251345136574  0.7578954396551936  0.8223375958403948  1.0000
  C   C1        1.0  0.1821630013361499  0.09109394510981875  0.40890854227659895  1.0000
  C   C2        1.0  0.9999954622292149  0.1388730415449189  0.361126087743898  1.0000
  C   C3        1.0  0.9999842565889593  0.9089146875341355  0.40892774942572163  1.0000
  C   C4        1.0  0.8178403827809217  0.9089076637655608  0.5910953181603985  1.0000
  C   C5        1.0  7.525292716012549e-06  0.861127132319652  0.6388750969677445  1.0000
  C   C6        1.0  0.9999924682091927  0.09107982763730159  0.5910838716830183  1.0000
  C   C7        1.0  3.584959671295931e-06  0.5910711315299082  0.09108756728865325  1.0000
  C   C8        1.0  3.36293885542609e-06  0.3611268353876724  0.13887721533185265  1.0000
  C   C9        1.0  0.81783833581661  0.4089116446472616  0.09107574068841016  1.0000
  C   C10       1.0  0.9999939144936575  0.40890202872075326  0.9089340177935765  1.0000
  C   C11       1.0  0.9999941619489119  0.6388720630845837  0.8611240166736421  1.0000
  C   C12       1.0  0.18215980446004207  0.59107327185513  0.9089068873365633  1.0000
  C   C13       1.0  3.7217134620467026e-06  0.8036870673764086  0.6963124942632319  1.0000
  C   C14       1.0  0.9999979655207908  0.6963121266875163  0.803687040704915  1.0000
  C   C15       1.0  0.956800922017358  0.7767238013244436  0.7664743276484385  1.0000
  C   C16       1.0  0.04320120579738057  0.7232758343036777  0.733524898977052  1.0000
  C   C17       1.0  0.9567983880008061  0.7232741720138378  0.8199233919295781  1.0000
  C   C18       1.0  0.04320373982131524  0.7767254649546016  0.68007541336916  1.0000
  C   C19       1.0  0.9999977457694198  0.19631106429015693  0.30368827761368067  1.0000
  C   C20       1.0  3.3262274072524556e-06  0.3036900162942969  0.1963138702948584  1.0000
  C   C21       1.0  0.9567969464203612  0.18007639861664146  0.2767175798744077  1.0000
  C   C22       1.0  0.04320388334522815  0.31992496729121456  0.22328326495217252  1.0000
  C   C23       1.0  0.9568007582151878  0.23352835008739706  0.22326931065305905  1.0000
  C   C24       1.0  0.043199432650183694  0.26647185272991436  0.2767317686337591  1.0000
  C   C25       1.0  0.9999998782784233  0.6286892298087777  0.1287104430785391  1.0000
  C   C26       1.0  0.9564234552878902  0.6571822265666966  0.13463266546934  1.0000
  C   C27       1.0  0.9564146526657282  0.6921180733555234  0.16953776598070625  1.0000
  C   C28       1.0  0.9999943875798536  0.6990733974410049  0.19910224741482083  1.0000
  C   C29       1.0  0.04357686969903802  0.669521901205222  0.19215207209775534  1.0000
  C   C30       1.0  0.04357369450144703  0.6346181526215987  0.15721297025507402  1.0000
  C   C31       1.0  0.9999859427664148  0.7345030657585171  0.234547033024867  1.0000
  C   C32       1.0  0.9999797288725816  0.7654465635264032  0.26550310850621606  1.0000
  C   C33       1.0  0.9999766815586848  0.8008842725417223  0.3009397028539952  1.0000
  C   C34       1.0  0.9564103542167925  0.8304570043544145  0.30786786588519277  1.0000
  C   C35       1.0  0.9564131993305692  0.8653630465996967  0.34280489155383254  1.0000
  C   C36       1.0  0.99997756497703  0.871281962975175  0.3713176119843951  1.0000
  C   C37       1.0  0.04353814818949092  0.842767292685977  0.36541930327243227  1.0000
  C   C38       1.0  0.04354115670221155  0.8078219675079056  0.33052056095148424  1.0000
  C   C39       1.0  4.059005448236052e-06  0.3712801859177759  0.8713154631438512  1.0000
  C   C40       1.0  0.04358248880482315  0.4089276248871699  0.7992470289922693  1.0000
  C   C41       1.0  0.04358669299372759  0.3740286503496932  0.7643042271877148  1.0000
  C   C42       1.0  1.7234656154978713e-06  0.3008946812980041  0.8009285110059211  1.0000
  C   C43       1.0  0.95642321367891  0.2642673263294313  0.8740647636366673  1.0000
  C   C44       1.0  0.9564308655813106  0.29921074807236886  0.9089640019164306  1.0000
  C   C45       1.0  0.9999949187573947  0.2654599114771798  0.7654902057030241  1.0000
  C   C46       1.0  0.9999901421670572  0.2345206134867085  0.734530715435298  1.0000
  C   C47       1.0  0.999984445832929  0.19908830924098445  0.6990891298071772  1.0000
  C   C48       1.0  0.04354621629947529  0.2357198700453083  0.6259503480164526  1.0000
  C   C49       1.0  0.04354129573999188  0.20077709068961977  0.5910496114461097  1.0000
  C   C50       1.0  0.9999803479785  0.12870103970473667  0.6287029897130907  1.0000
  C   C51       1.0  0.9564150676320933  0.09105261160772933  0.7007733317185159  1.0000
  C   C52       1.0  0.9564125152758718  0.12595061851646258  0.7357168633424037  1.0000
  C   C53       1.0  0.7425976208260604  0.3712913264218044  0.12870024345637185  1.0000
  C   C54       1.0  0.7081771705422071  0.40894341756706626  0.13461177435901558  1.0000
  C   C55       1.0  0.638334727002622  0.3740459023061788  0.1695134479668495  1.0000
  C   C56       1.0  0.6018243206004994  0.3009090522600885  0.19908293241955732  1.0000
  C   C57       1.0  0.6383315556226206  0.2642765926145642  0.19214858532772897  1.0000
  C   C58       1.0  0.7081734323982686  0.2992186708142341  0.1572108268349837  1.0000
  C   C59       1.0  0.5309500342331076  0.26547685319335557  0.23450833037615848  1.0000
  C   C60       1.0  0.4690517453124982  0.2345397511843926  0.26544324155052124  1.0000
  C   C61       1.0  0.3981778328370637  0.19910423284186152  0.30087784345528945  1.0000
  C   C62       1.0  0.3616705748976301  0.23573189933167527  0.3078309372458605  1.0000
  C   C63       1.0  0.29182609855052977  0.20078616489705314  0.34277177499404843  1.0000
  C   C64       1.0  0.2574029458691386  0.12871615296150918  0.37127047452808876  1.0000
  C   C65       1.0  0.29182498311686084  0.09106990774429134  0.3653363617131546  1.0000
  C   C66       1.0  0.3616664137830554  0.1259695644469829  0.3304303532117032  1.0000
  C   C67       1.0  0.25740162022086105  0.6286894483424135  0.8712849645937697  1.0000
  C   C68       1.0  0.2918287696395012  0.634595916311973  0.9089397313562416  1.0000
  C   C69       1.0  0.3616720063841327  0.6694963042751211  0.8740425665456187  1.0000
  C   C70       1.0  0.3981772551203732  0.6990709164774316  0.8009023148822081  1.0000
  C   C71       1.0  0.3616613816851597  0.6921365962352155  0.7642704333576021  1.0000
  C   C72       1.0  0.29182001192749135  0.6571986748690719  0.7992126963265633  1.0000
  C   C73       1.0  0.46905154159113466  0.7345031343085536  0.7654710183510288  1.0000
  C   C74       1.0  0.5309512413052957  0.7654500144822974  0.7345385226658435  1.0000
  C   C75       1.0  0.601823612356128  0.8008892195956676  0.6991058623461085  1.0000
  C   C76       1.0  0.6383410523624132  0.807845539016405  0.7357318809524145  1.0000
  C   C77       1.0  0.7081821359625518  0.8427847498750789  0.7007879283554461  1.0000
  C   C78       1.0  0.7425990063494153  0.8712814576498574  0.6287173144227792  1.0000
  C   C79       1.0  0.7081726250188889  0.8653521817944418  0.5910692924837451  1.0000
  C   C80       1.0  0.6383291673399613  0.8304463341021063  0.6259678557137105  1.0000
  O   O1        1.0  0.9999998779060987  6.238781721511515e-07  0.5000007118974069  1.0000
  O   O2        1.0  0.15317993890364787  0.02544578043777789  0.43386576621319517  1.0000
  O   O3        1.0  0.0405013689641009  0.15718465182293073  0.38331795248240036  1.0000
  O   O4        1.0  0.9592919508150788  0.9338672258437131  0.4129491549197578  1.0000
  O   O5        1.0  0.15318263465465518  0.12775543722549537  0.412949885160849  1.0000
  O   O6        1.0  0.04068374682906048  0.9129496471758144  0.4338789300285982  1.0000
  O   O7        1.0  0.959486499606889  0.07618106963394675  0.3833141668882262  1.0000
  O   O8        1.0  0.8468173454406696  0.9338603434333594  0.5254478491004304  1.0000
  O   O9        1.0  0.9595083594030738  0.8833185601608804  0.657189007606405  1.0000
  O   O10       1.0  0.8468255271983265  0.9129402783489907  0.6277619984977038  1.0000
  O   O11       1.0  0.04051126710147198  0.8833181069690711  0.5761820766077294  1.0000
  O   O12       1.0  0.0406878973091125  0.1277462544990229  0.5254374580849301  1.0000
  O   O13       1.0  0.959308304915062  0.025432937136614125  0.6277504666622846  1.0000
  O   O14       1.0  3.56892947173337e-07  0.49999857611032883  3.326086925281384e-07  1.0000
  O   O15       1.0  0.9593054604021131  0.5870364950923275  0.06613500555036471  1.0000
  O   O16       1.0  0.04051320673693235  0.4238196931076672  0.11668767684870564  1.0000
  O   O17       1.0  0.8468174684172214  0.3722467846525746  0.08704705041984062  1.0000
  O   O18       1.0  0.0407054291848468  0.5661265953403641  0.08705547765239174  1.0000
  O   O19       1.0  0.846819834261623  0.4745587672694851  0.06611898135131614  1.0000
  O   O20       1.0  0.9594958482385108  0.34281517784676646  0.11668837793409643  1.0000
  O   O21       1.0  0.9592993514922908  0.3722383447156543  0.9745783759450148  1.0000
  O   O22       1.0  0.040491807762585076  0.6166785863437879  0.8428117998340313  1.0000
  O   O23       1.0  0.04068171913340277  0.4745512962752515  0.8722655196033885  1.0000
  O   O24       1.0  0.9594919401939778  0.6166831333137993  0.923816607214874  1.0000
  O   O25       1.0  0.15318427400892184  0.5661246467445338  0.9745527321589051  1.0000
  O   O26       1.0  0.15317404372745347  0.5870442270227512  0.8722406544647684  1.0000
  O   O27       1.0  0.0863663517039869  0.6746939387613226  0.2195844737395233  1.0000
  O   O28       1.0  0.9136189262290556  0.71953783220529  0.1747074050642112  1.0000
  O   O29       1.0  0.0863192370977757  0.7803797703585501  0.325376525024879  1.0000
  O   O30       1.0  0.9136329889376353  0.8253023702058896  0.2804189993444481  1.0000
  O   O31       1.0  0.913630413743931  0.19405279038488027  0.9116810965553128  1.0000
  O   O32       1.0  0.08638371016309779  0.4116451653908797  0.6940889414412014  1.0000
  O   O33       1.0  0.9136322813381808  0.08832889078977493  0.8059359074484576  1.0000
  O   O34       1.0  0.0863238849019012  0.30593866310943707  0.5883271946168023  1.0000
  O   O35       1.0  0.6057329558922219  0.19405807197177435  0.219588486254608  1.0000
  O   O36       1.0  0.6057397463960469  0.41166926756638833  0.17466628060375194  1.0000
  O   O37       1.0  0.3942631797766012  0.0883527854055544  0.3252491139703507  1.0000
  O   O38       1.0  0.3942675877232205  0.3059445847689304  0.28041024761721184  1.0000
  O   O39       1.0  0.39425463964670365  0.7195816325647969  0.6940495507957322  1.0000
  O   O40       1.0  0.3942707648016037  0.6746453866395469  0.9116694948361755  1.0000
  O   O41       1.0  0.6057281368881963  0.8252703514139416  0.5883493745376709  1.0000
  O   O42       1.0  0.6057480831567329  0.7804201730036197  0.8059482121699659  1.0000
