data_image0
_chemical_formula_structural       Cd2H38C46N8O8
_chemical_formula_sum              "Cd2 H38 C46 N8 O8"
_cell_length_a       9.81773720182288
_cell_length_b       10.159688675999625
_cell_length_c       10.955011448193353
_cell_angle_alpha    70.49044142269487
_cell_angle_beta     77.05729314619825
_cell_angle_gamma    84.7492192589317

_space_group_name_H-M_alt    "P 1"
_space_group_IT_number       1

loop_
  _space_group_symop_operation_xyz
  'x, y, z'

loop_
  _atom_site_type_symbol
  _atom_site_label
  _atom_site_symmetry_multiplicity
  _atom_site_fract_x
  _atom_site_fract_y
  _atom_site_fract_z
  _atom_site_occupancy
  Cd  Cd1       1.0  0.10068835696620233  0.5153172578449484  0.8325300574602326  1.0000
  Cd  Cd2       1.0  0.8993123431540155  0.48468218881512126  0.16746958933509162  1.0000
  H   H1        1.0  0.15861842214550143  0.5978601430992327  0.4495968347136099  1.0000
  H   H2        1.0  0.8413822404335675  0.40214034139751936  0.5504043266166294  1.0000
  H   H3        1.0  0.4125739642635295  0.2954529559008848  0.6896519161759402  1.0000
  H   H4        1.0  0.5874277228170115  0.7045485833493785  0.3103478079022822  1.0000
  H   H5        1.0  0.18049018996574523  0.021231644447524897  0.7959143301963039  1.0000
  H   H6        1.0  0.8195115812452728  0.9787667649350174  0.20408542509222366  1.0000
  H   H7        1.0  0.2221647893009262  0.18580399414121723  0.4172055740993414  1.0000
  H   H8        1.0  0.7778358585313682  0.8141975412783539  0.5827934419137648  1.0000
  H   H9        1.0  0.43320924515759873  0.6588642327470848  0.6955837544759264  1.0000
  H   H10       1.0  0.5667914264696634  0.3411351975553174  0.3044204671344488  1.0000
  H   H11       1.0  0.5193913708263552  0.5334834743269566  0.6234401119586153  1.0000
  H   H12       1.0  0.48060925991016745  0.4665180512780153  0.37656164894352184  1.0000
  H   H13       1.0  0.6488398415815126  0.4297915757166066  0.7986234669851415  1.0000
  H   H14       1.0  0.3511587311038796  0.5702088945756926  0.2013781081408794  1.0000
  H   H15       1.0  0.19196775182595624  0.3080358370630378  0.10000472659756807  1.0000
  H   H16       1.0  0.8080308845445356  0.6919625510128284  0.8999956493846498  1.0000
  H   H17       1.0  0.8933347397152219  0.7698969291416732  0.13293411303553881  1.0000
  H   H18       1.0  0.10666599224754952  0.23010147641017653  0.8670649341878801  1.0000
  H   H19       1.0  0.4470560652417248  0.9192469944200641  0.7287069899534375  1.0000
  H   H20       1.0  0.5529435694862812  0.08075349278906428  0.2712916333856583  1.0000
  H   H21       1.0  0.3969313812502619  0.0604454175900742  0.788462162725331  1.0000
  H   H22       1.0  0.6030693245685512  0.9395540323415331  0.21153656910697544  1.0000
  H   H23       1.0  0.6426237709984193  0.28037913372879336  0.034741111183549826  1.0000
  H   H24       1.0  0.3573758670791776  0.7196202960144545  0.9652614873986992  1.0000
  H   H25       1.0  0.4072161301414852  0.22092140456391013  0.18868485247323724  1.0000
  H   H26       1.0  0.592782506229014  0.7790769835119561  0.8113155235089808  1.0000
  H   H27       1.0  0.5890119960095533  0.09371487826182087  0.867018635460049  1.0000
  H   H28       1.0  0.4109886052334133  0.906288749188789  0.1329788348078297  1.0000
  H   H29       1.0  0.8846441481399692  0.11230562700987429  0.43615040949962514  1.0000
  H   H30       1.0  0.11535761402286941  0.8876938365670172  0.5638462855087667  1.0000
  H   H31       1.0  0.8428756631786671  0.1489937371448136  0.8236200538859039  1.0000
  H   H32       1.0  0.1571228015812807  0.8510119681323757  0.17637628443254263  1.0000
  H   H33       1.0  0.9941203487750413  0.15728340054494794  0.6032865077222027  1.0000
  H   H34       1.0  0.005880330899806601  0.842717093766403  0.3967119087189985  1.0000
  H   H35       1.0  0.3615260818372263  0.023521520111202707  0.546131902536672  1.0000
  H   H36       1.0  0.6384745716936635  0.9764800185798987  0.45386619851341703  1.0000
  H   H37       1.0  0.27401051264253334  0.6531000392100025  0.5867992431600086  1.0000
  H   H38       1.0  0.7259901556351309  0.34690044855828717  0.41320100320721326  1.0000
  C   C1        1.0  0.08915477925430082  0.4296140477276537  0.32674161831104  1.0000
  C   C2        1.0  0.910845851482222  0.5703874778773181  0.6732601425911043  1.0000
  C   C3        1.0  0.18450147326412036  0.39525881449223016  0.42306287374952944  1.0000
  C   C4        1.0  0.8154981182241556  0.6047427072820497  0.5769381790874917  1.0000
  C   C5        1.0  0.04315947224898051  0.8825562562892557  0.9596550659929125  1.0000
  C   C6        1.0  0.9568423251060023  0.11744110871353539  0.04034500468672073  1.0000
  C   C7        1.0  0.28737907209983865  0.45650775966980456  0.5767554406871085  1.0000
  C   C8        1.0  0.7126225888367443  0.5434948239602093  0.4232439680000084  1.0000
  C   C9        1.0  0.09239668316034509  0.7597233428698543  0.9135652993487613  1.0000
  C   C10       1.0  0.9076029981569962  0.24027505230823462  0.08643486973556241  1.0000
  C   C11       1.0  0.327761203292475  0.2232949012776828  0.5568000439142724  1.0000
  C   C12       1.0  0.6722404837880659  0.7767066379725803  0.4431996801639502  1.0000
  C   C13       1.0  0.20722829528408232  0.4945719326610813  0.4790172276138734  1.0000
  C   C14       1.0  0.7927723672949937  0.5054285518356776  0.5209839337163658  1.0000
  C   C15       1.0  0.3486009033149032  0.32278007268966746  0.6151379824058767  1.0000
  C   C16       1.0  0.651400783765638  0.6772214665605957  0.3848617416723459  1.0000
  C   C17       1.0  0.42382258048780125  0.45129711422279667  0.8286374933802778  1.0000
  C   C18       1.0  0.5761771531174631  0.5486991921957908  0.17136330648625636  1.0000
  C   C19       1.0  0.102909943534101  0.012958876626157698  0.8862331613553709  1.0000
  C   C20       1.0  0.8970918481222866  0.9870384851051026  0.11376782428727258  1.0000
  C   C21       1.0  0.2439032931309413  0.26168596270765937  0.46055315996057533  1.0000
  C   C22       1.0  0.7560973228587998  0.7383166138201317  0.5394464556244359  1.0000
  C   C23       1.0  0.42506307740185184  0.5532307276853031  0.6914063877596277  1.0000
  C   C24       1.0  0.5749376431637359  0.44676767132348527  0.30859448938980455  1.0000
  C   C25       1.0  0.5497411141177153  0.40179493460232857  0.8689787293761243  1.0000
  C   C26       1.0  0.45025644546338833  0.5982044874795277  0.13102245307589303  1.0000
  C   C27       1.0  0.605384317171641  0.0729704725124449  0.6743443779522951  1.0000
  C   C28       1.0  0.39461427260953025  0.9270300075944604  0.32565445228469514  1.0000
  C   C29       1.0  0.29550445329807934  0.3331577079845757  0.037336524027530495  1.0000
  C   C30       1.0  0.7044952860057734  0.6668386017055496  0.9626633608759932  1.0000
  C   C31       1.0  0.9391655437719064  0.8707621616609985  0.07370019627944653  1.0000
  C   C32       1.0  0.06083520863623449  0.12923519623956986  0.9263000812980879  1.0000
  C   C33       1.0  0.45345427824231876  0.03345245145945339  0.700525354897522  1.0000
  C   C34       1.0  0.5465463957339339  0.9665480395803667  0.29947397650668967  1.0000
  C   C35       1.0  0.5461166292181617  0.31774969375997125  0.9994690987784765  1.0000
  C   C36       1.0  0.453881975309784  0.682249735424115  0.0005318767756463783  1.0000
  C   C37       1.0  0.4164406639649841  0.2840866240948188  0.08526837907183456  1.0000
  C   C38       1.0  0.5835579610083313  0.7159117574379792  0.914733826836404  1.0000
  C   C39       1.0  0.6584842438880187  0.0970834129226006  0.7730912491261039  1.0000
  C   C40       1.0  0.34151533855206395  0.902919163046029  0.22690674343078138  1.0000
  C   C41       1.0  0.8228032004637597  0.10685630304331539  0.5338475940771945  1.0000
  C   C42       1.0  0.17719643426424617  0.893144184165813  0.4661510292619013  1.0000
  C   C43       1.0  0.7995417987673079  0.12697569919107107  0.7494539606058482  1.0000
  C   C44       1.0  0.20045778937137024  0.873026880049089  0.25054311698802684  1.0000
  C   C45       1.0  0.8838578785076407  0.1316268300996626  0.6273608542379778  1.0000
  C   C46       1.0  0.11614274887928391  0.868375752971197  0.3726369314210131  1.0000
  N   N1        1.0  0.2998020367909788  0.41533909179044304  0.9115135348542296  1.0000
  N   N2        1.0  0.7001977343554272  0.584656176791455  0.08848575047738906  1.0000
  N   N3        1.0  0.2987763815297058  0.5543649035856147  0.6410239746103559  1.0000
  N   N4        1.0  0.7012242401586306  0.445637676213707  0.3589747260116455  1.0000
  N   N5        1.0  0.3833765295392412  0.09072787700881692  0.5919036996717679  1.0000
  N   N6        1.0  0.6166251632398952  0.9092736655129773  0.40809510944344396  1.0000
  N   N7        1.0  0.6864449115528685  0.0781992607472333  0.55619245187323  1.0000
  N   N8        1.0  0.31355472317513733  0.9218012264618949  0.4438061714658659  1.0000
  O   O1        1.0  0.062085773515328  0.5571802503144027  0.26612190594777735  1.0000
  O   O2        1.0  0.9379148572211875  0.44282127529056936  0.7338798549543668  1.0000
  O   O3        1.0  0.0352470954047845  0.3281471581610944  0.3105945649121439  1.0000
  O   O4        1.0  0.9647524960834916  0.6718543636131855  0.6894064879248775  1.0000
  O   O5        1.0  0.0194995058759062  0.6471029095203419  0.969217200644991  1.0000
  O   O6        1.0  0.9805012465322349  0.35289444838021927  0.030783076932536402  1.0000
  O   O7        1.0  0.19856053901187215  0.7688094201946924  0.8225207646664005  1.0000
  O   O8        1.0  0.8014371160968848  0.23118687856251088  0.17747861906990184  1.0000
