data_image0
_chemical_formula_structural       Zn8H42C72N6O26
_chemical_formula_sum              "Zn8 H42 C72 N6 O26"
_cell_length_a       18.130126119099707
_cell_length_b       18.14362725715945
_cell_length_c       18.4695457769914
_cell_angle_alpha    119.26995330799616
_cell_angle_beta     90.03216207557075
_cell_angle_gamma    120.00576840929624

_space_group_name_H-M_alt    "P 1"
_space_group_IT_number       1

loop_
  _space_group_symop_operation_xyz
  'x, y, z'

loop_
  _atom_site_type_symbol
  _atom_site_label
  _atom_site_symmetry_multiplicity
  _atom_site_fract_x
  _atom_site_fract_y
  _atom_site_fract_z
  _atom_site_occupancy
  Zn  Zn1       1.0  0.026635803558662  0.0761503622487112  0.9299594144085721  1.0000
  Zn  Zn2       1.0  0.8513288217325581  0.8989525791314533  0.9324070118283393  1.0000
  Zn  Zn3       1.0  0.027511206555608705  0.07197868919149641  0.10001021518180415  1.0000
  Zn  Zn4       1.0  0.027916526639984205  0.8997679577089455  0.9293071989241856  1.0000
  Zn  Zn5       1.0  0.4369403942360108  0.8966699476998272  0.5122797674621113  1.0000
  Zn  Zn6       1.0  0.614635776560469  0.0744432415867067  0.5178549018402381  1.0000
  Zn  Zn7       1.0  0.438412920383314  0.07505832310379651  0.5148271979334356  1.0000
  Zn  Zn8       1.0  0.44251686828291525  0.9007805721647131  0.3424241929225363  1.0000
  H   H1        1.0  0.8494259227806252  0.1475703918119606  0.8563382483131011  1.0000
  H   H2        1.0  0.7488572106902042  0.13879704116194352  0.7551998686493139  1.0000
  H   H3        1.0  0.7106349409288484  0.8183135238885059  0.6844387730381672  1.0000
  H   H4        1.0  0.47940269655380513  0.7540040891024234  0.5449213219676853  1.0000
  H   H5        1.0  0.4321809004176202  0.5791964982981809  0.38957028056086096  1.0000
  H   H6        1.0  0.5875343046296494  0.5906957412769246  0.3780326511594368  1.0000
  H   H7        1.0  0.720309649694812  0.7727047690851448  0.527526490317449  1.0000
  H   H8        1.0  0.27461271811705507  0.3958408339376335  0.10120248264499315  1.0000
  H   H9        1.0  0.36929454734691813  0.5881192734912305  0.20329219995677061  1.0000
  H   H10       1.0  0.08192702230120123  0.3810822734905344  0.23944071829375713  1.0000
  H   H11       1.0  0.2486485945439298  0.6722063731352961  0.470052068564556  1.0000
  H   H12       1.0  0.1251735973205542  0.7124993758070134  0.5226539230407642  1.0000
  H   H13       1.0  0.987915970417525  0.6034445150545764  0.37296542018721385  1.0000
  H   H14       1.0  0.03629158266792139  0.502887119542706  0.23791026175894117  1.0000
  H   H15       1.0  0.09747586953889008  0.9783638289821682  0.6857788513282377  1.0000
  H   H16       1.0  0.1939041505879545  0.9733562224961361  0.5891823363031893  1.0000
  H   H17       1.0  0.2797640140833976  0.009859008912044904  0.8657294894755059  1.0000
  H   H18       1.0  0.40405604029070485  0.9025979428101537  0.691598857916333  1.0000
  H   H19       1.0  0.5690607065616076  0.006418344589967304  0.8058552343113025  1.0000
  H   H20       1.0  0.5963804767945435  0.18187728528946687  0.94668249381963  1.0000
  H   H21       1.0  0.44582968904597203  0.17415883973147564  0.9092795725297199  1.0000
  H   H22       1.0  0.7072369010474517  0.9986600828982118  0.10621815803067858  1.0000
  H   H23       1.0  0.6187451789891584  0.005321492494694302  0.21021228086787158  1.0000
  H   H24       1.0  0.8628033530507011  0.9621475790410728  0.2454750240985178  1.0000
  H   H25       1.0  0.7892192359630101  0.0640651057216672  0.4760619039168861  1.0000
  H   H26       1.0  0.8077031855725423  0.9600306709588365  0.5335014648399083  1.0000
  H   H27       1.0  0.7866663600803464  0.7916899551203683  0.38841786353533103  1.0000
  H   H28       1.0  0.7569519068163829  0.804073557853073  0.2511486649505985  1.0000
  H   H29       1.0  0.6991058552673834  0.5762906867100881  0.8529702682141509  1.0000
  H   H30       1.0  0.6059543184348045  0.3840226388072381  0.7517049283548051  1.0000
  H   H31       1.0  0.862195575783481  0.5944004331694543  0.6849323293425659  1.0000
  H   H32       1.0  0.7844833113465697  0.28745528884567056  0.5479647087188015  1.0000
  H   H33       1.0  0.8094354197860625  0.2595630835332301  0.39356620242998747  1.0000
  H   H34       1.0  0.7921949516771035  0.3938050457257987  0.37964251453326653  1.0000
  H   H35       1.0  0.7567786345912139  0.49491206482669264  0.526612907031691  1.0000
  H   H36       1.0  0.09987391210058409  0.8232836506382242  0.10069312168197805  1.0000
  H   H37       1.0  0.1971691107401269  0.8300963248354091  0.20314529468993212  1.0000
  H   H38       1.0  0.2812628512333291  0.15269625255642438  0.23549289753064795  1.0000
  H   H39       1.0  0.40535029881086604  0.21418844642565202  0.46682689074953054  1.0000
  H   H40       1.0  0.5717833896563178  0.38619858325213124  0.5191528544501909  1.0000
  H   H41       1.0  0.6006708461110435  0.37427684942415607  0.3697376850342027  1.0000
  H   H42       1.0  0.4489018783138547  0.19532583610934753  0.23489405279403303  1.0000
  C   C1        1.0  0.8426055708731967  0.9857617638593653  0.8375843192442933  1.0000
  C   C2        1.0  0.785065687639694  0.9830177369804858  0.7771303794379496  1.0000
  C   C3        1.0  0.7971497718569367  0.0740750060948727  0.7968602506292303  1.0000
  C   C4        1.0  0.7414219910842589  0.0689886915429554  0.7403672975277547  1.0000
  C   C5        1.0  0.6755069874954813  0.975042699066485  0.6623614109082471  1.0000
  C   C6        1.0  0.6195406843467095  0.979184374508982  0.6068422367713072  1.0000
  C   C7        1.0  0.6662452364508766  0.8838870309210022  0.640436584226649  1.0000
  C   C8        1.0  0.7196355569991723  0.8889555979605744  0.6997945515083548  1.0000
  C   C9        1.0  0.5206685252577755  0.7290004910091028  0.5149710935854943  1.0000
  C   C10       1.0  0.4992066423022905  0.6410453237014835  0.43704993375133244  1.0000
  C   C11       1.0  0.5800422754078198  0.6464367684783098  0.43147464117788575  1.0000
  C   C12       1.0  0.6485422408636057  0.7371608869957175  0.5065310485872775  1.0000
  C   C13       1.0  0.1173667882110152  0.26157478441707127  0.10741175562427696  1.0000
  C   C14       1.0  0.17325655343103114  0.3765885492747216  0.1651775665683176  1.0000
  C   C15       1.0  0.2536019744639901  0.4347770697155653  0.15378991821588545  1.0000
  C   C16       1.0  0.30597058353210116  0.5416841956002967  0.21048487288101114  1.0000
  C   C17       1.0  0.2781759504290235  0.5924122934242746  0.2769139369831566  1.0000
  C   C18       1.0  0.3386487169776871  0.7076763257429874  0.33402420003597666  1.0000
  C   C19       1.0  0.19508873139619004  0.5339008751218017  0.2856569202322989  1.0000
  C   C20       1.0  0.1448230757176603  0.42628956510741034  0.23105881816871948  1.0000
  C   C21       1.0  0.18502041841551886  0.6451886889101032  0.43163257433680274  1.0000
  C   C22       1.0  0.12084931328489991  0.6634455439619982  0.45581754133922214  1.0000
  C   C23       1.0  0.04886382258765557  0.605899162881272  0.3777893718582279  1.0000
  C   C24       1.0  0.07082511819274369  0.553555458771406  0.30809766353139184  1.0000
  C   C25       1.0  0.12354418530182441  0.9917804370790791  0.8378140870149909  1.0000
  C   C26       1.0  0.1820188007779961  0.9926491583430489  0.7809379118673127  1.0000
  C   C27       1.0  0.1581847543503372  0.9838806122526053  0.7036020057253514  1.0000
  C   C28       1.0  0.21207857168416677  0.9814249329654319  0.6501455093359785  1.0000
  C   C29       1.0  0.29158879449482095  0.9913068482681879  0.6739490292918193  1.0000
  C   C30       1.0  0.3455999814028986  0.9886483221286398  0.6125920621287481  1.0000
  C   C31       1.0  0.31773026958239825  0.004874840279733003  0.7539131276206635  1.0000
  C   C32       1.0  0.2610478066262232  0.002408691543102702  0.8052741907326537  1.0000
  C   C33       1.0  0.44055031111788173  0.9756915138584786  0.7547827243143674  1.0000
  C   C34       1.0  0.5236074388569633  0.0301458501257699  0.8144561026567774  1.0000
  C   C35       1.0  0.5375835018542291  0.12129921471267122  0.8882015189932136  1.0000
  C   C36       1.0  0.462388124042306  0.11966190941332402  0.8717481429682866  1.0000
  C   C37       1.0  0.8469713599531516  0.9812750226069867  0.1111302512114849  1.0000
  C   C38       1.0  0.7911099642500332  0.9811821703745593  0.17033875589773131  1.0000
  C   C39       1.0  0.7216406581293243  0.9922636678096026  0.15935960232587848  1.0000
  C   C40       1.0  0.6725046571756579  0.9957291437391903  0.21715933410424548  1.0000
  C   C41       1.0  0.6889438627410199  0.9845153643479918  0.28419372872551235  1.0000
  C   C42       1.0  0.6294667285605512  0.9861097187202149  0.3403025573775554  1.0000
  C   C43       1.0  0.7565143705811296  0.9690000059417303  0.29294337927549935  1.0000
  C   C44       1.0  0.8086474705785774  0.9706483495447386  0.2371475576724935  1.0000
  C   C45       1.0  0.7850768925290198  0.9932692932073692  0.4397400685079094  1.0000
  C   C46       1.0  0.794814535299288  0.9389032124291107  0.46654672956454174  1.0000
  C   C47       1.0  0.7848717932823562  0.8518221436525197  0.39110682569884186  1.0000
  C   C48       1.0  0.770118312110597  0.8558975911456486  0.3203568538811868  1.0000
  C   C49       1.0  0.8459763712317923  0.7118692315990882  0.836602081366657  1.0000
  C   C50       1.0  0.7874018281143906  0.5970632329148984  0.7758076556563158  1.0000
  C   C51       1.0  0.7141957158920463  0.53808245043426  0.7942775282509803  1.0000
  C   C52       1.0  0.6624619274779704  0.431188518501898  0.7377122717561239  1.0000
  C   C53       1.0  0.6802823116354374  0.3812779285111959  0.6610261085304432  1.0000
  C   C54       1.0  0.6215447200200543  0.26580722417102015  0.60631745874084  1.0000
  C   C55       1.0  0.7512243258903338  0.44103790580996355  0.6400609399878265  1.0000
  C   C56       1.0  0.8055076143606358  0.5483705746905727  0.6994227626661175  1.0000
  C   C57       1.0  0.7818382341304186  0.3240335962832361  0.5171942303985662  1.0000
  C   C58       1.0  0.7950461214274184  0.3128191607413983  0.4398862485757748  1.0000
  C   C59       1.0  0.7871646492619107  0.38376396232263943  0.4331322751429101  1.0000
  C   C60       1.0  0.7701220350761774  0.4370059492873395  0.5068910490339038  1.0000
  C   C61       1.0  0.12494027673925226  0.9865802636207872  0.10544561751626705  1.0000
  C   C62       1.0  0.1838684179493414  0.9879069564596109  0.16300980104963983  1.0000
  C   C63       1.0  0.16056727963080422  0.8964116549277534  0.15266504110447007  1.0000
  C   C64       1.0  0.21484441390699532  0.900475574018664  0.20966569842421034  1.0000
  C   C65       1.0  0.29405450498758506  0.9942433847384818  0.275308198342124  1.0000
  C   C66       1.0  0.3489226367618699  0.9912631319512782  0.33309165417203734  1.0000
  C   C67       1.0  0.3197512775131414  0.0856150407686727  0.2828255267695568  1.0000
  C   C68       1.0  0.26286616162758486  0.0817124815899177  0.22797201572171139  1.0000
  C   C69       1.0  0.44243166595765615  0.2388311740436464  0.4283230274848508  1.0000
  C   C70       1.0  0.5261971993289264  0.32545958529501473  0.452426139891813  1.0000
  C   C71       1.0  0.5407620918072596  0.3199543035736879  0.3746229875057383  1.0000
  C   C72       1.0  0.46513056052485513  0.23044093083306905  0.30502983409339646  1.0000
  N   N1        1.0  0.612494461413938  0.7885203444848088  0.5574446745336846  1.0000
  N   N2        1.0  0.1547008726303929  0.5784381892673308  0.34102474666893573  1.0000
  N   N3        1.0  0.40323380233307654  0.030882485778555204  0.7895218381214167  1.0000
  N   N4        1.0  0.769270001298729  0.9420994803698763  0.34991113513043387  1.0000
  N   N5        1.0  0.7658747873397687  0.3997415228501779  0.5581393670902987  1.0000
  N   N6        1.0  0.40520091535518094  0.18019984207480635  0.33787450190976664  1.0000
  O   O1        1.0  0.9829028459035811  0.9863415128061489  0.9717150180657944  1.0000
  O   O2        1.0  0.8064278332910533  0.9068009594503932  0.8409010432554074  1.0000
  O   O3        1.0  0.9232036892142258  0.06671986289723722  0.8805222290547551  1.0000
  O   O4        1.0  0.6624033608504902  0.04565888048107071  0.5888327291114666  1.0000
  O   O5        1.0  0.5344689756808948  0.9195393533948676  0.5857402693696944  1.0000
  O   O6        1.0  0.07255325668194253  0.21435427030770177  0.14178050174224682  1.0000
  O   O7        1.0  0.1188297545183161  0.21987608315755117  0.028608070956011006  1.0000
  O   O8        1.0  0.36115831351884975  0.7529793885911645  0.2946045954777505  1.0000
  O   O9        1.0  0.3645023901338221  0.7499132980725065  0.4163548485740664  1.0000
  O   O10       1.0  0.12310713978232721  0.954355862138904  0.8812654773375076  1.0000
  O   O11       1.0  0.078838939514668  0.0284674723164002  0.8382047516406036  1.0000
  O   O12       1.0  0.36935919869377176  0.054114484145394194  0.5933611996330515  1.0000
  O   O13       1.0  0.3601774448031136  0.9191324555733545  0.5828598282022317  1.0000
  O   O14       1.0  0.9284666774219302  0.0162299864122346  0.1435367683719521  1.0000
  O   O15       1.0  0.8088600838597415  0.9467191830524372  0.0329624879516218  1.0000
  O   O16       1.0  0.5452055618407314  0.9204681993390054  0.2992128195137059  1.0000
  O   O17       1.0  0.6671641064524465  0.054457065264728  0.4224684252191795  1.0000
  O   O18       1.0  0.9275626627155231  0.7572549297593837  0.8374879235896205  1.0000
  O   O19       1.0  0.8097014586558515  0.7552177133086603  0.882396346856702  1.0000
  O   O20       1.0  0.5369606063921212  0.22282794004708958  0.5821582337995468  1.0000
  O   O21       1.0  0.6612129094400956  0.22108570389291776  0.5926145708658201  1.0000
  O   O22       1.0  0.1251105161297872  0.0672645203304043  0.13906245214899127  1.0000
  O   O23       1.0  0.07924411409958054  0.9053353242827172  0.027482102660251098  1.0000
  O   O24       1.0  0.37721637901886157  0.9351685376953117  0.2943505336900717  1.0000
  O   O25       1.0  0.3593881103735511  0.041604737639090714  0.4146734987693821  1.0000
  O   O26       1.0  0.48287956419198247  0.987380038616223  0.4714034255634233  1.0000
