data_image0
_chemical_formula_structural       Cd2H28C40Br4N6O2
_chemical_formula_sum              "Cd2 H28 C40 Br4 N6 O2"
_cell_length_a       8.028252764820433
_cell_length_b       9.297915273219653
_cell_length_c       13.662972030179741
_cell_angle_alpha    79.83686276468299
_cell_angle_beta     83.51715828347817
_cell_angle_gamma    77.34725800589547

_space_group_name_H-M_alt    "P 1"
_space_group_IT_number       1

loop_
  _space_group_symop_operation_xyz
  'x, y, z'

loop_
  _atom_site_type_symbol
  _atom_site_label
  _atom_site_symmetry_multiplicity
  _atom_site_fract_x
  _atom_site_fract_y
  _atom_site_fract_z
  _atom_site_occupancy
  Cd  Cd1       1.0  0.4603816434656025  0.5217302529646801  0.1421848039187452  1.0000
  Cd  Cd2       1.0  0.5395697485471659  0.47827496564772787  0.8578084149756863  1.0000
  H   H1        1.0  0.5491527575682935  0.9331391332457386  0.7586033759159533  1.0000
  H   H2        1.0  0.4508438202589673  0.0668516668357952  0.24142137663368146  1.0000
  H   H3        1.0  0.7576313874902144  0.8437810003655956  0.8535620295528474  1.0000
  H   H4        1.0  0.24236752281071006  0.15623421558031225  0.14642816204596437  1.0000
  H   H5        1.0  0.563676489837924  0.23356918584548234  0.9984249222693649  1.0000
  H   H6        1.0  0.4363413893525133  0.7664421751668441  0.0015874132976633959  1.0000
  H   H7        1.0  0.7460589559962045  0.126266661219276  0.13352998821669357  1.0000
  H   H8        1.0  0.25397103513402197  0.8737617208042251  0.8664730481570257  1.0000
  H   H9        1.0  0.19301914224700312  0.9353722449931821  0.5125579101465688  1.0000
  H   H10       1.0  0.806976877560764  0.06462392511774338  0.48744352737977437  1.0000
  H   H11       1.0  0.22204039959100189  0.5077561444729569  0.7182686013079191  1.0000
  H   H12       1.0  0.7779703732336855  0.4922435375957475  0.28171478153007  1.0000
  H   H13       1.0  0.9358300325930528  0.7310463528053576  0.9945776496250217  1.0000
  H   H14       1.0  0.06422369278057968  0.2690002441998018  0.005397749344751907  1.0000
  H   H15       1.0  0.38327522423074356  0.022225794248093702  0.5784519992446988  1.0000
  H   H16       1.0  0.6167318064464383  0.9777168702704557  0.421566306608156  1.0000
  H   H17       1.0  0.18478882526542859  0.2447563945281175  0.4930430328686981  1.0000
  H   H18       1.0  0.8152193636199385  0.7551873652444739  0.5069699536161706  1.0000
  H   H19       1.0  0.022846958013211304  0.0390182027545549  0.3663719596382649  1.0000
  H   H20       1.0  0.9771380971022764  0.9609911958923193  0.6336284645730856  1.0000
  H   H21       1.0  0.36082343110282283  0.5162789086161084  0.4005637773517207  1.0000
  H   H22       1.0  0.6391631656853107  0.48371136271305176  0.5994300946955065  1.0000
  H   H23       1.0  0.35740471034326754  0.6733540591365852  0.5319327346447978  1.0000
  H   H24       1.0  0.6425922937862012  0.3266397854626319  0.46805868233327885  1.0000
  H   H25       1.0  0.9239831415814093  0.026217372625495696  0.22471679263841077  1.0000
  H   H26       1.0  0.07602725187805251  0.9738004351016797  0.7752827184685742  1.0000
  H   H27       1.0  0.10206650442813733  0.478998073063572  0.5640562418873145  1.0000
  H   H28       1.0  0.8979642039758747  0.5209583103202957  0.4359342418211368  1.0000
  C   C1        1.0  0.5447565512019776  0.11999717035662627  0.8335348439089856  1.0000
  C   C2        1.0  0.4552267670542633  0.8800123159624957  0.16647810841693908  1.0000
  C   C3        1.0  0.857067960511429  0.9189131385042374  0.0735765679341895  1.0000
  C   C4        1.0  0.1429671654294894  0.081093817049819  0.9264068242225107  1.0000
  C   C5        1.0  0.754846636838188  0.9060427497193331  0.9145598745493827  1.0000
  C   C6        1.0  0.24516161204177675  0.09397733672214768  0.08544752873742568  1.0000
  C   C7        1.0  0.3710209650239804  0.2803135204103596  0.7349801619597327  1.0000
  C   C8        1.0  0.6289923953169276  0.7196705691386285  0.2650108265043726  1.0000
  C   C9        1.0  0.08995893353135645  0.8385042839385759  0.2995679915864358  1.0000
  C   C10       1.0  0.9100272509622369  0.16150621668582224  0.7004278460810767  1.0000
  C   C11       1.0  0.6497310128639809  0.1260014602366439  0.995327881997099  1.0000
  C   C12       1.0  0.3502708007028729  0.8740105694644881  0.004674253064870017  1.0000
  C   C13       1.0  0.751938154269929  0.0635882132983951  0.0724912656349588  1.0000
  C   C14       1.0  0.248080649532433  0.9364218841058262  0.9275050672956695  1.0000
  C   C15       1.0  0.19151820566035122  0.8671805340751816  0.4557429856582261  1.0000
  C   C16       1.0  0.8084627687305285  0.13281428822607924  0.5442689393251214  1.0000
  C   C17       1.0  0.25687577821033597  0.4033957724080963  0.6880897975507948  1.0000
  C   C18       1.0  0.7431474110583522  0.5965851026672981  0.31189519607679717  1.0000
  C   C19       1.0  0.8549802660637763  0.8419341847117324  0.9926624862439793  1.0000
  C   C20       1.0  0.14505830953335416  0.15808193708462437  0.007331324619720194  1.0000
  C   C21       1.0  0.34769058335800185  0.12707145432847264  0.6080331608550297  1.0000
  C   C22       1.0  0.6523284384583476  0.8729028352417172  0.3919762805309688  1.0000
  C   C23       1.0  0.6499264125915187  0.05031607777417688  0.9140617674227015  1.0000
  C   C24       1.0  0.3500549020423804  0.9497012116617752  0.08594961561462358  1.0000
  C   C25       1.0  0.19562960809944482  0.6866565222750082  0.30609731064735973  1.0000
  C   C26       1.0  0.8043596817080993  0.3133427743702768  0.6938945922003085  1.0000
  C   C27       1.0  0.23742691625444218  0.251188756310782  0.5618949607177155  1.0000
  C   C28       1.0  0.762591090598036  0.7487809432812824  0.4381070377903171  1.0000
  C   C29       1.0  0.09683978015452514  0.92452389928593  0.3744718938086819  1.0000
  C   C30       1.0  0.9031435991925674  0.07547204489632969  0.6255346417026715  1.0000
  C   C31       1.0  0.4107341317939656  0.1433263533964393  0.6956443572411146  1.0000
  C   C32       1.0  0.5892827090828591  0.8566658472147138  0.30436376484226463  1.0000
  C   C33       1.0  0.2869780308937635  0.6305539688608234  0.394602796092812  1.0000
  C   C34       1.0  0.7129973959608762  0.3694631067585519  0.6054001435747479  1.0000
  C   C35       1.0  0.28527761652433986  0.717695306129059  0.4662732651449701  1.0000
  C   C36       1.0  0.7147038777138945  0.2823028562561661  0.533734567128846  1.0000
  C   C37       1.0  0.9851125724318308  0.9086323737774648  0.22022597044912828  1.0000
  C   C38       1.0  0.014901243234867004  0.0913821266822339  0.7797722932862924  1.0000
  C   C39       1.0  0.19112221184108347  0.38600744356580907  0.6022502692868414  1.0000
  C   C40       1.0  0.808904228941543  0.6139611454564075  0.3977345731365887  1.0000
  Br  Br1       1.0  0.26311174772479967  0.5105421112489734  0.9987934932804307  1.0000
  Br  Br2       1.0  0.7368314934157212  0.4894707571750345  0.0011963083729895833  1.0000
  Br  Br3       1.0  0.5431420171549701  0.28012524702327113  0.27673988242673175  1.0000
  Br  Br4       1.0  0.4567155747373874  0.719900589618774  0.723274174453735  1.0000
  N   N1        1.0  0.5189324319515123  0.04634649451172378  0.7594572109249853  1.0000
  N   N2        1.0  0.48106982569562007  0.9536477118206932  0.24055877155417701  1.0000
  N   N3        1.0  0.4580307754989903  0.2635369819172766  0.8188314898556969  1.0000
  N   N4        1.0  0.5419668122868372  0.7364570439490024  0.18117671197384064  1.0000
  N   N5        1.0  0.9609850867249533  0.8428908425523288  0.14706108137357182  1.0000
  N   N6        1.0  0.03904481724651992  0.15712612786501265  0.852924306833465  1.0000
  O   O1        1.0  0.2108255660333072  0.6099736621778431  0.23593540490728054  1.0000
  O   O2        1.0  0.7891651112419139  0.3900391561668783  0.7640577148818933  1.0000
