data_image0
_chemical_formula_structural       Zr6H72C110O36
_chemical_formula_sum              "Zr6 H72 C110 O36"
_cell_length_a       19.012898163749217
_cell_length_b       19.01362417108017
_cell_length_c       19.01654863596376
_cell_angle_alpha    60.05018089980953
_cell_angle_beta     59.99617821429669
_cell_angle_gamma    60.010190719492556

_space_group_name_H-M_alt    "P 1"
_space_group_IT_number       1

loop_
  _space_group_symop_operation_xyz
  'x, y, z'

loop_
  _atom_site_type_symbol
  _atom_site_label
  _atom_site_symmetry_multiplicity
  _atom_site_fract_x
  _atom_site_fract_y
  _atom_site_fract_z
  _atom_site_occupancy
  Zr  Zr1       1.0  0.9065889797679957  0.9070960118653059  0.5921673084825511  1.0000
  Zr  Zr2       1.0  0.0941653408246808  0.09099822252690608  0.40819312845648875  1.0000
  Zr  Zr3       1.0  0.0928506043064205  0.905877565488488  0.5935161178364297  1.0000
  Zr  Zr4       1.0  0.9078036996661822  0.09239441912686171  0.4069843487549461  1.0000
  Zr  Zr5       1.0  0.09335727426452689  0.9060117108893234  0.40725222501315966  1.0000
  Zr  Zr6       1.0  0.9073322549788897  0.09209778194426824  0.59325373230444  1.0000
  H   H1        1.0  0.07308358518540817  0.7797454698216412  0.5721434747671807  1.0000
  H   H2        1.0  0.07504466150545139  0.07096351577471437  0.2808939115631901  1.0000
  H   H3        1.0  0.07332168629663016  0.0715255295548189  0.5745150936056831  1.0000
  H   H4        1.0  0.7806248422478744  0.07340641586485203  0.5726704339070067  1.0000
  H   H5        1.0  0.12183716644832294  0.31099703175579657  0.3980000372183881  1.0000
  H   H6        1.0  0.8755048943020541  0.3338546451975898  0.5985993317615338  1.0000
  H   H7        1.0  0.8967530483880001  0.6689858004048542  0.6207837778780599  1.0000
  H   H8        1.0  0.09770793597550664  0.6913773681999726  0.37477586614294006  1.0000
  H   H9        1.0  0.18777046138860237  0.4245570128760647  0.42228295048195  1.0000
  H   H10       1.0  0.18369676993869186  0.42594986735037565  0.33064744937989576  1.0000
  H   H11       1.0  0.8094798663119034  0.5344410451225697  0.5794951574161401  1.0000
  H   H12       1.0  0.816928800830894  0.4394349271516302  0.6700076296598849  1.0000
  H   H13       1.0  0.9221606008475334  0.4646670965241593  0.6875952785877286  1.0000
  H   H14       1.0  0.8302760511818903  0.5586114295128437  0.6835277013578106  1.0000
  H   H15       1.0  0.07943667249278259  0.5746872220399338  0.3094840970063331  1.0000
  H   H16       1.0  0.16974020306043516  0.5724100148418926  0.31681679425343384  1.0000
  H   H17       1.0  0.312917275744354  0.11988303372583421  0.17009419467908052  1.0000
  H   H18       1.0  0.33584852458393766  0.8738658048857668  0.1922518925850625  1.0000
  H   H19       1.0  0.6686994958919145  0.8973715993319188  0.8118586602683703  1.0000
  H   H20       1.0  0.6915032999306449  0.09792183025711401  0.8348833638404685  1.0000
  H   H21       1.0  0.4245995629282785  0.18703529003037292  0.96555592653619  1.0000
  H   H22       1.0  0.42666808352633007  0.1830124684161375  0.05944561978933646  1.0000
  H   H23       1.0  0.5357450687496622  0.8088410983605951  0.07519959683132532  1.0000
  H   H24       1.0  0.4402974463331121  0.8164040786072844  0.07290474888939973  1.0000
  H   H25       1.0  0.4645704599438215  0.9221353558975731  0.925205958441978  1.0000
  H   H26       1.0  0.5588411418342718  0.8304221501268857  0.9263539547444636  1.0000
  H   H27       1.0  0.5757495380712853  0.07928186166699179  0.035126535266954244  1.0000
  H   H28       1.0  0.5725990332652913  0.1697460746644594  0.9401010913653209  1.0000
  H   H29       1.0  0.8973627132566051  0.11911579246576294  0.813230705897027  1.0000
  H   H30       1.0  0.09918317380338948  0.8735962561278325  0.8357807969921324  1.0000
  H   H31       1.0  0.1217957527938721  0.8975885906035898  0.16893742341677856  1.0000
  H   H32       1.0  0.8759755685737076  0.09897794249629727  0.19093245664475936  1.0000
  H   H33       1.0  0.9231554692966808  0.1867778180218733  0.9241642980240529  1.0000
  H   H34       1.0  0.8310504604740812  0.18264145816529967  0.9267070928401892  1.0000
  H   H35       1.0  0.07943520860055754  0.8086957879775054  0.03691568393410452  1.0000
  H   H36       1.0  0.16984780624562756  0.8150277010692902  0.9417433927669377  1.0000
  H   H37       1.0  0.1881504500256528  0.9213209425779707  0.9652287384102819  1.0000
  H   H38       1.0  0.18382566386703272  0.8300083196797202  0.05972499197618216  1.0000
  H   H39       1.0  0.8096116446886229  0.0800473496586989  0.0761000216781226  1.0000
  H   H40       1.0  0.8181797322333749  0.17067520819914958  0.0718704397550524  1.0000
  H   H41       1.0  0.31223454113467153  0.668121166886621  0.39827729141589424  1.0000
  H   H42       1.0  0.3347032030121396  0.6900745175542367  0.5996752633712389  1.0000
  H   H43       1.0  0.6706110633826158  0.3122450764264497  0.6199518645166718  1.0000
  H   H44       1.0  0.6919022587935545  0.33466618719047836  0.37444180136280636  1.0000
  H   H45       1.0  0.42593825951127684  0.46478747887793737  0.42151875644658776  1.0000
  H   H46       1.0  0.42737794100261084  0.559296653200924  0.3302491095313299  1.0000
  H   H47       1.0  0.5352695690418869  0.5753506265505521  0.5801241347945875  1.0000
  H   H48       1.0  0.4403359210516485  0.5714471705217717  0.6708662502401735  1.0000
  H   H49       1.0  0.46651296205060067  0.423688092648355  0.6873612366039551  1.0000
  H   H50       1.0  0.5603606676707783  0.42609292148026856  0.6830663827620781  1.0000
  H   H51       1.0  0.5759007006197835  0.5360336754229207  0.30920735141791056  1.0000
  H   H52       1.0  0.5741085112127351  0.4409676079695967  0.3155567571655381  1.0000
  H   H53       1.0  0.11314608822330291  0.3235657511919854  0.1791898729795349  1.0000
  H   H54       1.0  0.1803706295670935  0.4342434465466096  0.06323565648893481  1.0000
  H   H55       1.0  0.8940581867960873  0.3144887684853825  0.1778123489663982  1.0000
  H   H56       1.0  0.8840165621357909  0.6785024263172726  0.8244292700853605  1.0000
  H   H57       1.0  0.8221697934217929  0.5624789207800304  0.9349980481373876  1.0000
  H   H58       1.0  0.11356654003041206  0.6770699539470968  0.8153437326634146  1.0000
  H   H59       1.0  0.3130031027473806  0.8955211274820909  0.6232650220394973  1.0000
  H   H60       1.0  0.3343883187154617  0.09594959243182889  0.3771053800408167  1.0000
  H   H61       1.0  0.6683856026022  0.12181233299403256  0.3966750745278418  1.0000
  H   H62       1.0  0.6926884014625183  0.8756690847877591  0.5971349778787385  1.0000
  H   H63       1.0  0.4262088982647966  0.9215814784728947  0.6883660790823497  1.0000
  H   H64       1.0  0.4280162245176128  0.8294977600143268  0.6847288042155454  1.0000
  H   H65       1.0  0.5344236719517212  0.07854040451382344  0.31022994282046307  1.0000
  H   H66       1.0  0.4388881578938211  0.16855650588908586  0.31816469051603485  1.0000
  H   H67       1.0  0.4641327840097276  0.18709912565637413  0.422733330321023  1.0000
  H   H68       1.0  0.557996622008922  0.18324296346921168  0.33060278770451385  1.0000
  H   H69       1.0  0.5765940507692663  0.8089573520043201  0.5797589400410389  1.0000
  H   H70       1.0  0.574492361386646  0.8166998907336733  0.6697249920875735  1.0000
  H   H71       1.0  0.11250799424868071  0.6872012102255095  0.9178552580457264  1.0000
  H   H72       1.0  0.7825173432276885  0.4168898230321786  0.1878785365855008  1.0000
  C   C1        1.0  0.9968255093269106  0.7659297573393359  0.49746219368002886  1.0000
  C   C2        1.0  0.2396680962451825  0.9962631543840671  0.26712456569160264  1.0000
  C   C3        1.0  0.9984633792568187  0.23733668356086915  0.4979275533212401  1.0000
  C   C4        1.0  0.7660508538897022  0.9970180922928404  0.738469957291997  1.0000
  C   C5        1.0  0.9970332850205638  0.7644938896437166  0.7378034738615895  1.0000
  C   C6        1.0  0.7662268616162605  0.9985659661860421  0.49629428123801467  1.0000
  C   C7        1.0  0.0007918830754504928  0.2367923460047336  0.2652746691685479  1.0000
  C   C8        1.0  0.2388772321885995  0.9950889104406639  0.4998710773215435  1.0000
  C   C9        1.0  0.23828142586052087  0.7646094813532399  0.49871387090720276  1.0000
  C   C10       1.0  0.99711567774272  0.9956522978518048  0.7399425207866058  1.0000
  C   C11       1.0  0.767481037352738  0.23879037364822864  0.4966576043448965  1.0000
  C   C12       1.0  0.9985351494688147  0.9976296711789978  0.26573686871781627  1.0000
  C   C13       1.0  0.1452054519698933  0.4503605770774328  0.3851727345200828  1.0000
  C   C14       1.0  0.8537947500115521  0.4810645484086533  0.6148435995690491  1.0000
  C   C15       1.0  0.8849449094279151  0.5182216089364288  0.6450486676539383  1.0000
  C   C16       1.0  0.11469249109875801  0.5488532098596435  0.35375960212469687  1.0000
  C   C17       1.0  0.0683859952836983  0.3456358537135172  0.4416827253483007  1.0000
  C   C18       1.0  0.06981928157859585  0.41780231753643443  0.4422571133426273  1.0000
  C   C19       1.0  0.9290784133005018  0.35854461471968313  0.5551752317954806  1.0000
  C   C20       1.0  0.9285289511689427  0.431517918405923  0.5561771706266966  1.0000
  C   C21       1.0  0.9408073684306331  0.6437612750988746  0.5676229460254587  1.0000
  C   C22       1.0  0.941798647817628  0.5691854291113354  0.5694731024998703  1.0000
  C   C23       1.0  0.05443039814350208  0.6564311833255586  0.4284652680088143  1.0000
  C   C24       1.0  0.05577099724015237  0.5826615343662879  0.4282639593121544  1.0000
  C   C25       1.0  0.9984495019829392  0.315575310837488  0.497992928562681  1.0000
  C   C26       1.0  0.9992792332561747  0.4614464560290371  0.4993810157031504  1.0000
  C   C27       1.0  0.9970292840098551  0.6874857470040182  0.49761196408076785  1.0000
  C   C28       1.0  0.9991404007602114  0.538691188450812  0.4991343677624511  1.0000
  C   C29       1.0  0.45091045929329  0.1445323783438964  0.019041158650672664  1.0000
  C   C30       1.0  0.48203049127062075  0.8532542747060885  0.04940650946473106  1.0000
  C   C31       1.0  0.5185186455274216  0.8848485152483576  0.9509155524374364  1.0000
  C   C32       1.0  0.5494261322347924  0.11447887762492544  0.9817927352578264  1.0000
  C   C33       1.0  0.34725994348563927  0.06679857536410326  0.1447494667789257  1.0000
  C   C34       1.0  0.4188325034068896  0.06885320473144667  0.07003232390387379  1.0000
  C   C35       1.0  0.36026605797851347  0.9276253680706645  0.1573021728616197  1.0000
  C   C36       1.0  0.43272810220848634  0.9276337119723832  0.08337753535235486  1.0000
  C   C37       1.0  0.6437716269123969  0.9411016022167827  0.846464608043071  1.0000
  C   C38       1.0  0.5694628291572955  0.9418133680856826  0.9184851762799155  1.0000
  C   C39       1.0  0.6566177192842061  0.05457131959605726  0.8594627115342063  1.0000
  C   C40       1.0  0.5830370741384457  0.05570999553386003  0.9322981676499396  1.0000
  C   C41       1.0  0.3175223129927788  0.9966513434844726  0.18850487155362572  1.0000
  C   C42       1.0  0.46232833109011306  0.9985903293255374  0.0394243371622949  1.0000
  C   C43       1.0  0.6875464335583817  0.9972918347780604  0.8165498128490043  1.0000
  C   C44       1.0  0.539166279791374  0.9989288024443254  0.9621628286759505  1.0000
  C   C45       1.0  0.8856904805354089  0.14428990286636167  0.9508903370982223  1.0000
  C   C46       1.0  0.11495549661776035  0.8526248057331997  0.9828742214956491  1.0000
  C   C47       1.0  0.1454603134334319  0.8843815148338762  0.019165063923281888  1.0000
  C   C48       1.0  0.8544598197173272  0.1150005804823094  0.049299307455470245  1.0000
  C   C49       1.0  0.941285478309382  0.06603535746137364  0.8476883739733908  1.0000
  C   C50       1.0  0.9422836317501935  0.06828832605057755  0.9192084480667687  1.0000
  C   C51       1.0  0.05505244547832432  0.9269945840820383  0.8606854576079003  1.0000
  C   C52       1.0  0.05617030052785331  0.9269902705045393  0.9333455778018375  1.0000
  C   C53       1.0  0.06854502070741122  0.9413849954253236  0.1438485758775272  1.0000
  C   C54       1.0  0.07008153768098406  0.9417643577644269  0.06974756159440419  1.0000
  C   C55       1.0  0.92950546694383  0.05531737816690439  0.15630610112825838  1.0000
  C   C56       1.0  0.9290294462792585  0.05612171625339352  0.08293472402668553  1.0000
  C   C57       1.0  0.9975225153162203  0.9958846263169999  0.8179148834695126  1.0000
  C   C58       1.0  0.9995004030428161  0.9981030301150109  0.9628303300234364  1.0000
  C   C59       1.0  0.9986389527436546  0.9979202177106495  0.1873288534016595  1.0000
  C   C60       1.0  0.9996310780453399  0.9988669416298135  0.03943062936204437  1.0000
  C   C61       1.0  0.45178369998575363  0.5186103677380769  0.384718315039997  1.0000
  C   C62       1.0  0.48213172232159024  0.5487034179862745  0.6152920962501865  1.0000
  C   C63       1.0  0.5198270848965977  0.45028058990197173  0.6447776197301494  1.0000
  C   C64       1.0  0.5503369192017756  0.4820984591385907  0.35313251259582057  1.0000
  C   C65       1.0  0.3468206220104264  0.6430736451506076  0.4420245494234009  1.0000
  C   C66       1.0  0.41914678034737574  0.5690899419826747  0.442226484456789  1.0000
  C   C67       1.0  0.35947181884860424  0.6555139057768002  0.555951038164153  1.0000
  C   C68       1.0  0.4326610436862737  0.5822862547423283  0.5565598938256713  1.0000
  C   C69       1.0  0.6453894271806674  0.346749808502814  0.5668168308252888  1.0000
  C   C70       1.0  0.5707923046667319  0.4184456122571944  0.5689008139545917  1.0000
  C   C71       1.0  0.6577397414289478  0.3596793071156127  0.42776886707543577  1.0000
  C   C72       1.0  0.5841312314637506  0.4325122460021331  0.4276016255529028  1.0000
  C   C73       1.0  0.3165806754077919  0.6864525292379112  0.4986914693829618  1.0000
  C   C74       1.0  0.4628343206320762  0.5387865935858683  0.499295790551585  1.0000
  C   C75       1.0  0.6890237929923018  0.3168724800518558  0.4967466411240905  1.0000
  C   C76       1.0  0.5402548372534213  0.462109416139647  0.4986307234182447  1.0000
  C   C77       1.0  0.06441531604120593  0.3521576863729763  0.14940456233517804  1.0000
  C   C78       1.0  0.0650448080024333  0.42520018703943646  0.07504127714803839  1.0000
  C   C79       1.0  0.12982645416585104  0.4636014465208119  0.03548796338618125  1.0000
  C   C80       1.0  0.9383446930196654  0.3495056234044325  0.14905408329761366  1.0000
  C   C81       1.0  0.933834181028779  0.42475531502757485  0.07690132800176026  1.0000
  C   C82       1.0  0.8685348550146584  0.4640418910458804  0.03773264988284795  1.0000
  C   C83       1.0  0.933939494682001  0.6486501263010495  0.8530450857945693  1.0000
  C   C84       1.0  0.9346798341606046  0.5742597237058572  0.926028905547909  1.0000
  C   C85       1.0  0.8710851684859052  0.5347243459418607  0.9643676901936828  1.0000
  C   C86       1.0  0.06304366988916149  0.6482932093260131  0.8503672711895546  1.0000
  C   C87       1.0  0.0644656703477368  0.576132178836616  0.9255725697365235  1.0000
  C   C88       1.0  0.12965756952336688  0.5369927531977438  0.9648149256974391  1.0000
  C   C89       1.0  0.0014418431723300083  0.31488583648739876  0.18596500536099106  1.0000
  C   C90       1.0  0.9989588854452197  0.4630409625141138  0.03853580869558441  1.0000
  C   C91       1.0  0.9976125658609829  0.6851970018650557  0.8158276997529368  1.0000
  C   C92       1.0  0.999445865004169  0.5377348326900985  0.9638502193772708  1.0000
  C   C93       1.0  0.45205216217389976  0.8842378248356152  0.6459748851845362  1.0000
  C   C94       1.0  0.4809728787195481  0.1137218715304725  0.35472053924409147  1.0000
  C   C95       1.0  0.5179003253685083  0.14460901317914213  0.3854345169918076  1.0000
  C   C96       1.0  0.5505810511738644  0.8533801479298331  0.6149615683489741  1.0000
  C   C97       1.0  0.3471255818929962  0.9395736932418113  0.5697683054320207  1.0000
  C   C98       1.0  0.41909257238042846  0.9409147239139483  0.5708670970740001  1.0000
  C   C99       1.0  0.35927778311052094  0.052984393076897555  0.4305331043195223  1.0000
  C   C100      1.0  0.4320173806560561  0.054714616961262987  0.42963784594159893  1.0000
  C   C101      1.0  0.6436998468962899  0.06831767090278619  0.44072659508024964  1.0000
  C   C102      1.0  0.569263933892863  0.06946335819417732  0.4420950671126107  1.0000
  C   C103      1.0  0.6573402529648289  0.9290913842755442  0.5541612932925515  1.0000
  C   C104      1.0  0.5837333883504884  0.9282330944411185  0.5559126693720771  1.0000
  C   C105      1.0  0.31683570322010024  0.9955031799684589  0.49998636376044187  1.0000
  C   C106      1.0  0.46223103919656694  0.998342881648767  0.5001713341246512  1.0000
  C   C107      1.0  0.6878104654897969  0.9985608009142408  0.496677530205808  1.0000
  C   C108      1.0  0.5393231903289294  0.998825290820832  0.4995793838437308  1.0000
  C   C109      1.0  0.1984217897557841  0.5732023534540502  0.9338982702091486  1.0000
  C   C110      1.0  0.7943210004210286  0.43338689668429675  0.07384566441995585  1.0000
  O   O1        1.0  0.9377191404806807  0.7960599607364072  0.5580457061448455  1.0000
  O   O2        1.0  0.20814134701661405  0.056750092859878955  0.2973567510676958  1.0000
  O   O3        1.0  0.05909057732963423  0.20559845874223018  0.4389002803925379  1.0000
  O   O4        1.0  0.7962304930543385  0.9379317184659751  0.7067931869260775  1.0000
  O   O5        1.0  0.05717901005616014  0.794231783575526  0.7078938084017351  1.0000
  O   O6        1.0  0.7964101044323825  0.05909362962552937  0.43749721401114516  1.0000
  O   O7        1.0  0.9408058987431716  0.20687858088656685  0.29504776268951344  1.0000
  O   O8        1.0  0.206971472614896  0.9362683372469645  0.5603704014154047  1.0000
  O   O9        1.0  0.20678961295448786  0.7948095372354941  0.43955330901631845  1.0000
  O   O10       1.0  0.9386245333650083  0.056669016582993746  0.7078496423255203  1.0000
  O   O11       1.0  0.7969898443808816  0.20668049043948852  0.5577150997808928  1.0000
  O   O12       1.0  0.0588676613706485  0.9383312806754699  0.29605335400450616  1.0000
  O   O13       1.0  0.05617493911254443  0.9351481224770878  0.7096434595997324  1.0000
  O   O14       1.0  0.7991832999164643  0.20844668066894187  0.4361955876354313  1.0000
  O   O15       1.0  0.9388771674141836  0.0575014650799871  0.29664532774967245  1.0000
  O   O16       1.0  0.20707813207672396  0.7954243630644766  0.5586766820519597  1.0000
  O   O17       1.0  0.9370311327869133  0.7950307226437159  0.7077843327096857  1.0000
  O   O18       1.0  0.20835034918081874  0.054593761406337565  0.4397799570724317  1.0000
  O   O19       1.0  0.06030619607177107  0.2067209469971018  0.2957955718515707  1.0000
  O   O20       1.0  0.7973006264155488  0.9385396552476447  0.5558574753168981  1.0000
  O   O21       1.0  0.7971163516810833  0.05660564067503763  0.7077376992520856  1.0000
  O   O22       1.0  0.05662453757614125  0.7968127194043575  0.43775195982664167  1.0000
  O   O23       1.0  0.20877649688668498  0.9364885132787888  0.2980600711985417  1.0000
  O   O24       1.0  0.9386301808559382  0.20653825608982868  0.5576253976786987  1.0000
  O   O25       1.0  0.8430579623565108  0.05237253627956294  0.5519501599435157  1.0000
  O   O26       1.0  0.052649671184077707  0.050789952310779526  0.5534893072798184  1.0000
  O   O27       1.0  0.05337706376027277  0.05150537249106431  0.34327287088520814  1.0000
  O   O28       1.0  0.051828974298714796  0.8421256710057817  0.5526871889790357  1.0000
  O   O29       1.0  0.11614962848313577  0.9599627017725965  0.46227662569354055  1.0000
  O   O30       1.0  0.9616079597754563  0.9611113691612654  0.4611514259380839  1.0000
  O   O31       1.0  0.9624123860473831  0.11477115556407806  0.461540661805138  1.0000
  O   O32       1.0  0.9612761866171838  0.9604454741291234  0.6158837713435404  1.0000
  O   O33       1.0  0.17378683169886253  0.6606189271443907  0.911365438712359  1.0000
  O   O34       1.0  0.27238682895917077  0.5289525094903026  0.9316008781425326  1.0000
  O   O35       1.0  0.7541616497454485  0.41063118694586337  0.16127294791417762  1.0000
  O   O36       1.0  0.7666557829270674  0.43158433004967356  0.029492033201904546  1.0000
