data_image0
_chemical_formula_structural       Ba4H32C24O32
_chemical_formula_sum              "Ba4 H32 C24 O32"
_cell_length_a       4.675962582000548
_cell_length_b       11.504454973000895
_cell_length_c       15.584536665000716
_cell_angle_alpha    89.9999907396517
_cell_angle_beta     89.99996669471267
_cell_angle_gamma    89.9999556056119

_space_group_name_H-M_alt    "P 1"
_space_group_IT_number       1

loop_
  _space_group_symop_operation_xyz
  'x, y, z'

loop_
  _atom_site_type_symbol
  _atom_site_label
  _atom_site_symmetry_multiplicity
  _atom_site_fract_x
  _atom_site_fract_y
  _atom_site_fract_z
  _atom_site_occupancy
  Ba  Ba1       1.0  0.27035333913708115  0.8933233644075784  0.8632902660434353  1.0000
  Ba  Ba2       1.0  0.22964637822124698  0.1066768593957832  0.3632902095205566  1.0000
  Ba  Ba3       1.0  0.7296455633488463  0.3933239674513588  0.6367098914151726  1.0000
  Ba  Ba4       1.0  0.7703540430679752  0.6066761480921697  0.1367097681548231  1.0000
  H   H1        1.0  0.4596986753194798  0.6476550402259917  0.7282532050925212  1.0000
  H   H2        1.0  0.0402991664129431  0.3523460823619472  0.2282531521018853  1.0000
  H   H3        1.0  0.5403006943400612  0.1476548042624515  0.771746981686384  1.0000
  H   H4        1.0  0.9596986491047375  0.8523452817253269  0.271746796253332  1.0000
  H   H5        1.0  0.7904432953296521  0.7927248792014723  0.703578067785088  1.0000
  H   H6        1.0  0.7095561808673948  0.20727609093508187  0.2035773610798799  1.0000
  H   H7        1.0  0.209555798459121  0.2927247422546131  0.7964221016798874  1.0000
  H   H8        1.0  0.2904440491181504  0.7072754961842164  0.2964226045890896  1.0000
  H   H9        1.0  0.6314726731467388  0.953064530392453  0.69657048478566  1.0000
  H   H10       1.0  0.8685246781000373  0.04693557204963378  0.1965704112965057  1.0000
  H   H11       1.0  0.36852611573434046  0.4530643417243283  0.8034290238812716  1.0000
  H   H12       1.0  0.1314737181975545  0.54693589518088  0.3034295735090494  1.0000
  H   H13       1.0  0.76802308919558  0.08727296931327537  0.5237851503664785  1.0000
  H   H14       1.0  0.7319767371309923  0.9127271709461908  0.0237856388995965  1.0000
  H   H15       1.0  0.2319763952891023  0.5872732228978492  0.9762144019572503  1.0000
  H   H16       1.0  0.2680231021600931  0.4127269761896456  0.4762143022489838  1.0000
  H   H17       1.0  0.451845806729679  0.737226445765131  0.5792202166495314  1.0000
  H   H18       1.0  0.0481523252313423  0.2627738402133843  0.07922017298666621  1.0000
  H   H19       1.0  0.5481533925972855  0.23722617470333057  0.920779959439123  1.0000
  H   H20       1.0  0.9518456606189147  0.7627747478938787  0.4207797860587945  1.0000
  H   H21       1.0  0.9903786891205683  0.8377960981105801  0.5672788400384334  1.0000
  H   H22       1.0  0.5096189139103514  0.16220316340126567  0.0672788150642347  1.0000
  H   H23       1.0  0.0096203189595485  0.3377959944521222  0.9327206823856571  1.0000
  H   H24       1.0  0.4903814017869549  0.6622033449260272  0.4327211559840904  1.0000
  H   H25       1.0  0.44424718541251457  0.9455144555153295  0.5666802106400226  1.0000
  H   H26       1.0  0.055750970970621  0.054484094750854695  0.06668019051784309  1.0000
  H   H27       1.0  0.5557516178247327  0.4455150485385174  0.9333199405896337  1.0000
  H   H28       1.0  0.9442495495683048  0.5544850020851441  0.4333204350482731  1.0000
  H   H29       1.0  0.9483901165180342  0.07560701133938609  0.6514110021802182  1.0000
  H   H30       1.0  0.5516115998647705  0.9243939702145025  0.15141216227711854  1.0000
  H   H31       1.0  0.0516093901518531  0.5756064805717216  0.848588551535876  1.0000
  H   H32       1.0  0.44839035583613196  0.42439374644936106  0.34858906080221885  1.0000
  C   C1        1.0  0.12509603833922966  0.6229081695219421  0.6229122790263945  1.0000
  C   C2        1.0  0.37490200853483907  0.377092976122121  0.1229121650268823  1.0000
  C   C3        1.0  0.8749076555726204  0.1229095433232246  0.877087910705555  1.0000
  C   C4        1.0  0.6250914827305393  0.8770905196084298  0.3770877803752839  1.0000
  C   C5        1.0  0.29725940297916503  0.7360686519377282  0.6329805707805036  1.0000
  C   C6        1.0  0.20273648569215647  0.2639316222745903  0.1329798584964124  1.0000
  C   C7        1.0  0.7027397985487127  0.23606921306752324  0.8670196054462807  1.0000
  C   C8        1.0  0.7972614979586296  0.7639308520674601  0.3670194587492901  1.0000
  C   C9        1.0  0.11517914776361951  0.8457366319646694  0.6269900265747026  1.0000
  C   C10       1.0  0.38481675257457226  0.15426277433032  0.1269892957875385  1.0000
  C   C11       1.0  0.8848198452152546  0.34573713429990954  0.8730101365633375  1.0000
  C   C12       1.0  0.6151814396260562  0.6542629295239094  0.3730100345469722  1.0000
  C   C13       1.0  0.2900371633464687  0.9574976580307324  0.6193208643201517  1.0000
  C   C14       1.0  0.2099630291191943  0.0425034883991131  0.11932017720988601  1.0000
  C   C15       1.0  0.7099616171038932  0.45749734466230035  0.8806792854793741  1.0000
  C   C16       1.0  0.790039652802683  0.5425018482544104  0.3806798081243842  1.0000
  C   C17       1.0  0.10116997096834979  0.06211150935722999  0.5985464955402618  1.0000
  C   C18       1.0  0.3988302619525399  0.937888772390856  0.098547593782115  1.0000
  C   C19       1.0  0.8988295613645647  0.562111568776892  0.9014530597864692  1.0000
  C   C20       1.0  0.6011716680861596  0.4378884888215139  0.4014536276866351  1.0000
  C   C21       1.0  0.28419742883303906  0.17255999913122366  0.5907477169956863  1.0000
  C   C22       1.0  0.21581351226354425  0.8274333304937684  0.0907527101452743  1.0000
  C   C23       1.0  0.7157997548696213  0.6725592453982329  0.9092524668110613  1.0000
  C   C24       1.0  0.7841971821997689  0.32743994126536785  0.4092523744751517  1.0000
  O   O1        1.0  0.8985346917039082  0.6221327004089615  0.5791701351551026  1.0000
  O   O2        1.0  0.6014650267663626  0.37786916618556166  0.07916814352086729  1.0000
  O   O3        1.0  0.10146258789377069  0.12213083190082588  0.9208306963318333  1.0000
  O   O4        1.0  0.39853487881380534  0.8778685100804394  0.4208305184646406  1.0000
  O   O5        1.0  0.23097161166668198  0.5344024347566786  0.6611880360789755  1.0000
  O   O6        1.0  0.26902636067099917  0.4655978332815635  0.1611866465630598  1.0000
  O   O7        1.0  0.7690258347623953  0.03440124267628868  0.8388121642167476  1.0000
  O   O8        1.0  0.7309712394829475  0.9655979594046896  0.3388120049522669  1.0000
  O   O9        1.0  0.4524722910924054  0.7312487467138808  0.7130086025047788  1.0000
  O   O10       1.0  0.04752771892536601  0.2687515099818469  0.21300855823702136  1.0000
  O   O11       1.0  0.5475290581988617  0.23124937436057286  0.7869909326353905  1.0000
  O   O12       1.0  0.9524702555583103  0.7687515775191539  0.2869914000950686  1.0000
  O   O13       1.0  0.9293793354844057  0.8584776466534405  0.6997582398189905  1.0000
  O   O14       1.0  0.570618009555929  0.14152158586252023  0.19975756506774192  1.0000
  O   O15       1.0  0.0706196332662046  0.3584775527331843  0.8002419217984595  1.0000
  O   O16       1.0  0.4293823454696337  0.6415218156407007  0.3002430501105806  1.0000
  O   O17       1.0  0.4361631209467163  0.9874660169657686  0.6976786494001316  1.0000
  O   O18       1.0  0.06383478032903162  0.012533373857159798  0.19767799122049468  1.0000
  O   O19       1.0  0.5638334639174474  0.48746576688050414  0.8023214968228913  1.0000
  O   O20       1.0  0.9361658199856822  0.5125343124153119  0.3023219976907114  1.0000
  O   O21       1.0  0.9515960333576673  0.0422599435202002  0.5198665092389803  1.0000
  O   O22       1.0  0.5484080777950879  0.9577393283677792  0.0198670242503951  1.0000
  O   O23       1.0  0.04840139812865369  0.5422593849735405  0.9801336901189188  1.0000
  O   O24       1.0  0.45159595309102935  0.45774081325648536  0.48013355318724377  1.0000
  O   O25       1.0  0.49466751274377424  0.17272686349208746  0.5385318377428661  1.0000
  O   O26       1.0  0.005330698458664101  0.8272699544781473  0.038530450814136  1.0000
  O   O27       1.0  0.5053360864319743  0.6727270340041899  0.9614683460433469  1.0000
  O   O28       1.0  0.9946693033394781  0.32727301045798635  0.4614682172101112  1.0000
  O   O29       1.0  0.2126826155156678  0.26041292886934286  0.6347926590905216  1.0000
  O   O30       1.0  0.2873196854179412  0.7395882141739134  0.13479123370054674  1.0000
  O   O31       1.0  0.7873186783146622  0.7604147698839298  0.8652068725688621  1.0000
  O   O32       1.0  0.7126826217204608  0.23958703410470147  0.36520744478848854  1.0000
