data_image0
_chemical_formula_structural       La4H24C20O32
_chemical_formula_sum              "La4 H24 C20 O32"
_cell_length_a       6.9380891092753805
_cell_length_b       6.9382368587227505
_cell_length_c       17.41521947537038
_cell_angle_alpha    90.00003164949922
_cell_angle_beta     90.0007127393184
_cell_angle_gamma    105.10114805389938

_space_group_name_H-M_alt    "P 1"
_space_group_IT_number       1

loop_
  _space_group_symop_operation_xyz
  'x, y, z'

loop_
  _atom_site_type_symbol
  _atom_site_label
  _atom_site_symmetry_multiplicity
  _atom_site_fract_x
  _atom_site_fract_y
  _atom_site_fract_z
  _atom_site_occupancy
  La  La1       1.0  0.7644944499391002  0.5822464023540306  0.9172599932029544  1.0000
  La  La2       1.0  0.23550882793055175  0.917754088683111  0.41726387093815737  1.0000
  La  La3       1.0  0.2355086969997657  0.417753296005877  0.0827397526593003  1.0000
  La  La4       1.0  0.7644943190083139  0.0822456096767894  0.5827358749240972  1.0000
  H   H1        1.0  0.477195565719029  0.16253949985381413  0.9475620407559833  1.0000
  H   H2        1.0  0.522804623932231  0.33746021639369417  0.44756273182502343  1.0000
  H   H3        1.0  0.5228028672519683  0.8374587237971126  0.05243713088403011  1.0000
  H   H4        1.0  0.4771952487917305  0.6625380012225364  0.5524375882393429  1.0000
  H   H5        1.0  0.6404887864832249  0.08947926254826652  0.8996216120344018  1.0000
  H   H6        1.0  0.35951056843643414  0.41052294844514864  0.39962265772386024  1.0000
  H   H7        1.0  0.3595100412551346  0.9105204539333657  0.10037813381713792  1.0000
  H   H8        1.0  0.6404893042875203  0.5894752691710821  0.6003776623405059  1.0000
  H   H9        1.0  0.06229666843520929  0.4518371325063201  0.7011507122191534  1.0000
  H   H10       1.0  0.9377085250623195  0.048161498963381205  0.2011551204623814  1.0000
  H   H11       1.0  0.9377035990171977  0.5481625779288565  0.2988478852151745  1.0000
  H   H12       1.0  0.06228886295225774  0.9518382235617651  0.7988451995959807  1.0000
  H   H13       1.0  0.010516280553915142  0.6861726989760581  0.6860655279399737  1.0000
  H   H14       1.0  0.9894838782598113  0.8138268993302163  0.1860696760010114  1.0000
  H   H15       1.0  0.989482152436537  0.31382552468075187  0.3139347921208255  1.0000
  H   H16       1.0  0.01051534423617537  0.1861743099791795  0.8139300698516723  1.0000
  H   H17       1.0  0.3402730460569145  0.7585665588166461  0.8201507959998866  1.0000
  H   H18       1.0  0.6597291708862655  0.7414359174184568  0.32015157096757463  1.0000
  H   H19       1.0  0.6597257816814447  0.24143315766498571  0.17984894985166022  1.0000
  H   H20       1.0  0.3402725363288255  0.25856378698495774  0.6798487491014954  1.0000
  H   H21       1.0  0.2979583396138636  0.514660284357717  0.7820937226464794  1.0000
  H   H22       1.0  0.7020440276688972  0.9853417961325804  0.2820947600316046  1.0000
  H   H23       1.0  0.702040488134223  0.48533943212685665  0.21790659741545682  1.0000
  H   H24       1.0  0.2979570293376739  0.0146608999698898  0.7179061342465687  1.0000
  C   C1        1.0  0.9801890164725718  0.5546265263430001  0.7243097553269922  1.0000
  C   C2        1.0  0.01981427257813804  0.945374950374493  0.22431429229757785  1.0000
  C   C3        1.0  0.01980693176959386  0.4453732022109591  0.2756882678862383  1.0000
  C   C4        1.0  0.9801853446852038  0.054627751765607996  0.7756860277666322  1.0000
  C   C5        1.0  0.7573707684887766  0.45458656344465  0.7221886332192897  1.0000
  C   C6        1.0  0.24263553258369797  0.04541377629350761  0.2221953369846048  1.0000
  C   C7        1.0  0.24263054396868708  0.5454116481310082  0.2778116868486435  1.0000
  C   C8        1.0  0.7573626449461414  0.954588931887166  0.7778049830760452  1.0000
  C   C9        1.0  0.23752555725030086  0.6083073383688673  0.8217198420916108  1.0000
  C   C10       1.0  0.7624763181047244  0.8916936611083202  0.32172115887703984  1.0000
  C   C11       1.0  0.7624732704977789  0.3916923781156996  0.17828047797032556  1.0000
  C   C12       1.0  0.23752578386799433  0.1083075361228651  0.6782791611931673  1.0000
  C   C13       1.0  0.23445653137218161  0.5245473301101528  0.9020363555948165  1.0000
  C   C14       1.0  0.7655436066809855  0.9754485325866966  0.4020388540860083  1.0000
  C   C15       1.0  0.7655419016085433  0.47545089354371584  0.09796339025558612  1.0000
  C   C16       1.0  0.2344558713047959  0.024548192207646504  0.5979626143979999  1.0000
  C   C17       1.0  0.09572852765485607  0.9969996501810742  0.9774580234489324  1.0000
  C   C18       1.0  0.9042765342015572  0.5030059417790582  0.47745593988651797  1.0000
  C   C19       1.0  0.9042751533483724  0.0030075183611729  0.022542296625836407  1.0000
  C   C20       1.0  0.09573146598272324  0.4970012086355808  0.5225432317781724  1.0000
  O   O1        1.0  0.038331159039437034  0.609988855146497  0.8014370890335982  1.0000
  O   O2        1.0  0.9616689841733218  0.8900134355110296  0.3014399672149609  1.0000
  O   O3        1.0  0.9616691084226971  0.3900108552916208  0.19856208261112585  1.0000
  O   O4        1.0  0.03833351255702409  0.1099892545479193  0.6985603528563972  1.0000
  O   O5        1.0  0.6547041802330257  0.4578511643125936  0.7817368677681744  1.0000
  O   O6        1.0  0.34529877417534754  0.0421513021851325  0.281742357183262  1.0000
  O   O7        1.0  0.3452975269723311  0.5421485400878866  0.21826287809050635  1.0000
  O   O8        1.0  0.6546994033447575  0.9578514059926065  0.7182573886669915  1.0000
  O   O9        1.0  0.6902493504375259  0.37658677249159206  0.657834977165628  1.0000
  O   O10       1.0  0.30974940609164037  0.1234144252462244  0.1578403078826298  1.0000
  O   O11       1.0  0.3097498720487266  0.6234144368148619  0.34216419447666624  1.0000
  O   O12       1.0  0.6902415727804153  0.8765883131402673  0.8421605863705681  1.0000
  O   O13       1.0  0.3987489714891125  0.5394396913174333  0.9366283468902598  1.0000
  O   O14       1.0  0.601250643364942  0.9605610161656558  0.4366306018594913  1.0000
  O   O15       1.0  0.6012509012056668  0.46055852628997945  0.0633702505429312  1.0000
  O   O16       1.0  0.3987463499211898  0.0394372135405447  0.5633714408289097  1.0000
  O   O17       1.0  0.06810489838861138  0.4412644062753586  0.9333918411168511  1.0000
  O   O18       1.0  0.9318952059483224  0.0587366577037756  0.4333939259919788  1.0000
  O   O19       1.0  0.9318935345726658  0.5587338173726267  0.0666067563127726  1.0000
  O   O20       1.0  0.06810531702306112  0.9412585682251658  0.5666081167048491  1.0000
  O   O21       1.0  0.08194528686912851  0.8582914005408638  0.9295292071136884  1.0000
  O   O22       1.0  0.9180565721184663  0.6417077293220713  0.42952837022865253  1.0000
  O   O23       1.0  0.9180596945900491  0.1417097846150526  0.0704722613844453  1.0000
  O   O24       1.0  0.08194434555218776  0.35828898941699794  0.5704702272069684  1.0000
  O   O25       1.0  0.2522381893575272  0.1341602965623991  0.9922235643378133  1.0000
  O   O26       1.0  0.7477611680715128  0.36584735928968837  0.49222595101844774  1.0000
  O   O27       1.0  0.747762217372433  0.8658453912185281  0.007773884676723202  1.0000
  O   O28       1.0  0.2522409339012057  0.6341538379414972  0.5077743690517665  1.0000
  O   O29       1.0  0.6129379004403929  0.20731997254012677  0.9241518243963115  1.0000
  O   O30       1.0  0.38706293576974815  0.2926794979390408  0.42415125861924713  1.0000
  O   O31       1.0  0.38705948756446423  0.7926797499820779  0.0758479214516683  1.0000
  O   O32       1.0  0.6129369369542134  0.7073187196771827  0.5758490614451119  1.0000
