data_image0
_chemical_formula_structural       Sm2H34C44N2O20F4
_chemical_formula_sum              "Sm2 H34 C44 N2 O20 F4"
_cell_length_a       9.639899904147391
_cell_length_b       10.724238403164277
_cell_length_c       13.087326523268272
_cell_angle_alpha    68.30547820790105
_cell_angle_beta     76.47876800983647
_cell_angle_gamma    63.95547964216301

_space_group_name_H-M_alt    "P 1"
_space_group_IT_number       1

loop_
  _space_group_symop_operation_xyz
  'x, y, z'

loop_
  _atom_site_type_symbol
  _atom_site_label
  _atom_site_symmetry_multiplicity
  _atom_site_fract_x
  _atom_site_fract_y
  _atom_site_fract_z
  _atom_site_occupancy
  Sm  Sm1       1.0  0.26882899508551367  0.46632775038582236  0.4879029015727171  1.0000
  Sm  Sm2       1.0  0.7311710462484058  0.5336735292483041  0.512097196769588  1.0000
  H   H1        1.0  0.301427981905519  0.6204660058715205  0.05263178158980252  1.0000
  H   H2        1.0  0.6985734166796789  0.37953201392966207  0.9473682851629663  1.0000
  H   H3        1.0  0.17231924273843896  0.5414464878435439  0.2619145079306975  1.0000
  H   H4        1.0  0.8276812484964109  0.4585537119077685  0.7380850689002545  1.0000
  H   H5        1.0  0.023885436431363843  0.6327175387212165  0.3223148812097492  1.0000
  H   H6        1.0  0.976115051029261  0.36728267112234647  0.677683929148948  1.0000
  H   H7        1.0  0.5531791464438669  0.4815022873541678  0.32762977047904945  1.0000
  H   H8        1.0  0.4468207283335771  0.5184968311467416  0.672369468594738  1.0000
  H   H9        1.0  0.11144218614025905  0.24651464310303334  0.16829109115710852  1.0000
  H   H10       1.0  0.8885576961856574  0.7534844552133819  0.8317096808611881  1.0000
  H   H11       1.0  0.09608319138708049  0.1899904332061979  0.8616765676555006  1.0000
  H   H12       1.0  0.9039177535229399  0.8100086765700495  0.1383232541363597  1.0000
  H   H13       1.0  0.26914317334710347  0.4993986222784557  0.8605515264781047  1.0000
  H   H14       1.0  0.7308571588797504  0.5005993961551385  0.13944872402884564  1.0000
  H   H15       1.0  0.3495878702728419  0.0169961324132615  0.45309567040885673  1.0000
  H   H16       1.0  0.6504143037777654  0.9830051499560422  0.5469040604250709  1.0000
  H   H17       1.0  0.12063861899285651  0.8294397274454894  0.340391711614764  1.0000
  H   H18       1.0  0.8793646138676292  0.17056157647589737  0.659606302520473  1.0000
  H   H19       1.0  0.8824008988224676  0.2696017350817215  0.35642991502659543  1.0000
  H   H20       1.0  0.11759853737674322  0.7303984330252573  0.6435721449753089  1.0000
  H   H21       1.0  0.6317584317174791  0.23581899639986392  0.32929461433109714  1.0000
  H   H22       1.0  0.368241450608437  0.7641801019165512  0.6707061576871995  1.0000
  H   H23       1.0  0.5823762976847675  0.36843280903802617  0.19656527434315055  1.0000
  H   H24       1.0  0.4176244844430243  0.6315641295127535  0.8034344546524467  1.0000
  H   H25       1.0  0.4450830552821047  0.2958248180922779  0.2846319703739653  1.0000
  H   H26       1.0  0.5549172769447495  0.7041732003413229  0.7153682801329851  1.0000
  H   H27       1.0  0.3412120575266753  0.7031895732551945  0.22161359442849723  1.0000
  H   H28       1.0  0.6587873673498307  0.2968106251285292  0.7783861661566364  1.0000
  H   H29       1.0  0.450722818885609  0.8856473985061014  0.1909577088431433  1.0000
  H   H30       1.0  0.5492785759253564  0.11435063138733173  0.8090415914373636  1.0000
  H   H31       1.0  0.4540010117386613  0.973537834017705  0.839261777484822  1.0000
  H   H32       1.0  0.546002519563224  0.0264601885186622  0.16073792175957652  1.0000
  H   H33       1.0  0.339914723334111  0.7911549162160867  0.8865226124001994  1.0000
  H   H34       1.0  0.6600877378351911  0.2088431150449352  0.11347650412612614  1.0000
  C   C1        1.0  0.22584748295854948  0.45841268398790197  0.08104191618902229  1.0000
  C   C2        1.0  0.7741519494664288  0.5415874942113207  0.9189593773406273  1.0000
  C   C3        1.0  0.19459215077839787  0.38082368806428235  0.020309853765525108  1.0000
  C   C4        1.0  0.8054087979058692  0.6191754116197147  0.9796907344985897  1.0000
  C   C5        1.0  0.13299244116809214  0.27496272253299026  0.07878436909786053  1.0000
  C   C6        1.0  0.8670085037419355  0.7250363872432574  0.9212154526939998  1.0000
  C   C7        1.0  0.09916846914823199  0.2093578073209343  0.019401712120632898  1.0000
  C   C8        1.0  0.9008314094034517  0.7906413010877243  0.9805982934254092  1.0000
  C   C9        1.0  0.12437976221502109  0.24376623171393416  0.9052414793194645  1.0000
  C   C10       1.0  0.8756201163366626  0.7562328766947245  0.09475852622657747  1.0000
  C   C11       1.0  0.1877614097311024  0.34852293187164923  0.8479981617608348  1.0000
  C   C12       1.0  0.8122395351789254  0.6514761779045982  0.1520016600310258  1.0000
  C   C13       1.0  0.22216308988372893  0.4167784485401214  0.9055203053524965  1.0000
  C   C14       1.0  0.777836338767017  0.5832217397513516  0.0944802217048988  1.0000
  C   C15       1.0  0.21853832134203788  0.3873830873909583  0.7255416709286636  1.0000
  C   C16       1.0  0.7814621661185865  0.6126171224525976  0.27445713943003375  1.0000
  C   C17       1.0  0.10893526336326433  0.2780717728638464  0.44182260100653553  1.0000
  C   C18       1.0  0.891064169061714  0.7219284053353832  0.5581786925231214  1.0000
  C   C19       1.0  0.11610937744906377  0.1561569254917714  0.4075355924798458  1.0000
  C   C20       1.0  0.8838906676590879  0.8438443440501117  0.5924652723347139  1.0000
  C   C21       1.0  0.2493320292087233  0.027152396178181  0.42095678101969725  1.0000
  C   C22       1.0  0.7506680121251961  0.9728488834559459  0.5790433173226006  1.0000
  C   C23       1.0  0.25053285525476804  0.9083146529606339  0.39903870870958263  1.0000
  C   C24       1.0  0.7494682524374952  0.0916866280410815  0.6009612058785336  1.0000
  C   C25       1.0  0.12222233162224659  0.9209574740589447  0.357198002330371  1.0000
  C   C26       1.0  0.8777777097116727  0.07904380557518918  0.642802096011934  1.0000
  C   C27       1.0  0.9948463102000107  0.052272165218006705  0.34011706736682623  1.0000
  C   C28       1.0  0.005154192357544184  0.9477280042565608  0.6598848088808965  1.0000
  C   C29       1.0  0.9864318412473594  0.1694664125494043  0.36670285478870573  1.0000
  C   C30       1.0  0.01356653236774714  0.8305337440977425  0.6333001554396419  1.0000
  C   C31       1.0  0.38393313246077554  0.7632897361363219  0.4273529782337988  1.0000
  C   C32       1.0  0.6160669050989114  0.23671155359005525  0.5726463536362447  1.0000
  C   C33       1.0  0.5381445326923072  0.3292499982943298  0.2826442726781124  1.0000
  C   C34       1.0  0.4618542757268003  0.6707491188389838  0.7173551501498565  1.0000
  C   C35       1.0  0.3677024522782872  0.7664569727909054  0.13850233301670303  1.0000
  C   C36       1.0  0.6322984888575077  0.23354214707759274  0.8614967223028956  1.0000
  C   C37       1.0  0.4298921997985446  0.8687437114995684  0.1198682259468954  1.0000
  C   C38       1.0  0.5701087413372504  0.13125540836892918  0.8801308293727033  1.0000
  C   C39       1.0  0.4654502996569079  0.9462409195303536  0.011542012032471429  1.0000
  C   C40       1.0  0.5345517116114636  0.05375819161348258  0.9884576260052073  1.0000
  C   C41       1.0  0.4317968517537238  0.9176025303944116  0.9257179373790337  1.0000
  C   C42       1.0  0.5682051557404079  0.08239659084167529  0.07428093418638336  1.0000
  C   C43       1.0  0.3683455506490388  0.8150774073886496  0.9511683233427208  1.0000
  C   C44       1.0  0.6316553942609886  0.1849217023876051  0.0488314984491396  1.0000
  N   N1        1.0  0.33855063937019736  0.7391944365846896  0.05539781478039876  1.0000
  N   N2        1.0  0.6614503055398302  0.2608046731915579  0.9446020070114614  1.0000
  O   O1        1.0  0.1933930474562046  0.43571205220072073  0.18219086362353207  1.0000
  O   O2        1.0  0.8066057647371282  0.5642870548403492  0.8178093256766917  1.0000
  O   O3        1.0  0.2880046963273273  0.5510077916836948  0.01624699117090237  1.0000
  O   O4        1.0  0.711997772390447  0.44899021939283296  0.9837536582999393  1.0000
  O   O5        1.0  0.17080824107702594  0.33709778572436727  0.6723573374353933  1.0000
  O   O6        1.0  0.8291916374746578  0.6629013226842986  0.32764266811064857  1.0000
  O   O7        1.0  0.2924399036957936  0.47054888415036067  0.6746552630407764  1.0000
  O   O8        1.0  0.7075604323052929  0.5294491241909894  0.3253457539384287  1.0000
  O   O9        1.0  0.13851340450646887  0.5998572288032733  0.31403276825838594  1.0000
  O   O10       1.0  0.8614860241442769  0.4001429594881998  0.6859677587990093  1.0000
  O   O11       1.0  0.47269748186071336  0.4456464777465214  0.33111203083873164  1.0000
  O   O12       1.0  0.5273008691089843  0.5543537394541075  0.6688863805560744  1.0000
  O   O13       1.0  0.2361987422986473  0.28450757971859275  0.44471366393302253  1.0000
  O   O14       1.0  0.7637997752275182  0.7154947986152534  0.5552856067303013  1.0000
  O   O15       1.0  0.9764332971617689  0.3668839357696285  0.46795218745204903  1.0000
  O   O16       1.0  0.02356781053049415  0.633117345232087  0.5320477271360674  1.0000
  O   O17       1.0  0.35985945711536965  0.6508886641629276  0.4379976416016192  1.0000
  O   O18       1.0  0.6401384628245596  0.3491125824592842  0.562005123665827  1.0000
  O   O19       1.0  0.5121904173986846  0.7585998516889206  0.4407161230508976  1.0000
  O   O20       1.0  0.48781173778075276  0.24140148114162946  0.5592797754217501  1.0000
  F   F1        1.0  0.8707358066911511  0.064216014599765  0.2979982019188938  1.0000
  F   F2        1.0  0.12926484732594173  0.9357863563770153  0.7020014677083211  1.0000
  F   F3        1.0  0.039307715618583886  0.1059321029097759  0.07512260272793721  1.0000
  F   F4        1.0  0.9606911003489882  0.8940669940390437  0.9248783530445479  1.0000
