data_image0
_chemical_formula_structural       Nd2H32C44N2O24
_chemical_formula_sum              "Nd2 H32 C44 N2 O24"
_cell_length_a       8.912968575171796
_cell_length_b       10.944007553445187
_cell_length_c       12.470799871740034
_cell_angle_alpha    98.76882281250376
_cell_angle_beta     105.8789994209214
_cell_angle_gamma    94.70382131933884

_space_group_name_H-M_alt    "P 1"
_space_group_IT_number       1

loop_
  _space_group_symop_operation_xyz
  'x, y, z'

loop_
  _atom_site_type_symbol
  _atom_site_label
  _atom_site_symmetry_multiplicity
  _atom_site_fract_x
  _atom_site_fract_y
  _atom_site_fract_z
  _atom_site_occupancy
  Nd  Nd1       1.0  0.258823626586647  0.5446286052530952  0.9757069886173254  1.0000
  Nd  Nd2       1.0  0.7411765154305954  0.4553729382797941  0.024291621669291892  1.0000
  H   H1        1.0  0.2162288562618997  0.6706934993706996  0.7206685792860128  1.0000
  H   H2        1.0  0.7837711363326036  0.32930711186414646  0.2793306790798696  1.0000
  H   H3        1.0  0.1414811964063034  0.650246296693922  0.1735697846064852  1.0000
  H   H4        1.0  0.858520979718989  0.3497533823767115  0.8264305731461761  1.0000
  H   H5        1.0  0.3255965049819025  0.6834631592991088  0.22228014795236112  1.0000
  H   H6        1.0  0.674404355243894  0.3165355874065625  0.777720632225801  1.0000
  H   H7        1.0  0.4097138281514745  0.7927302282895355  0.9548271608322095  1.0000
  H   H8        1.0  0.590287334525357  0.20727038319359548  0.04517312578615673  1.0000
  H   H9        1.0  0.5502749705319515  0.7382843683564176  0.040007070524460224  1.0000
  H   H10       1.0  0.4497260355110129  0.26171531046593094  0.9599922589757099  1.0000
  H   H11       1.0  0.37678332677113247  0.3205595122477334  0.6490678446996085  1.0000
  H   H12       1.0  0.6232211967299293  0.6794401676822234  0.35093617475548916  1.0000
  H   H13       1.0  0.5320477580168231  0.24584137834766304  0.5214946703344197  1.0000
  H   H14       1.0  0.4679566160615067  0.7541573692842434  0.47850999719994286  1.0000
  H   H15       1.0  0.7618791070455444  0.38540891020749507  0.5097318298249434  1.0000
  H   H16       1.0  0.23812059030905178  0.6145898366126233  0.4902695272981887  1.0000
  H   H17       1.0  0.8292902340815332  0.5998573190004636  0.6240522411930557  1.0000
  H   H18       1.0  0.1707107755669952  0.4001423600032581  0.3759478909058487  1.0000
  H   H19       1.0  0.4710218683495455  0.7717298537000019  0.6626162437520121  1.0000
  H   H20       1.0  0.5289789954818076  0.22826889318704255  0.337385339024884  1.0000
  H   H21       1.0  0.5399118177846063  0.994484491745212  0.7522255295413844  1.0000
  H   H22       1.0  0.4600870119387039  0.005516119604081401  0.24777430576946807  1.0000
  H   H23       1.0  0.7921512357464948  0.06690323600889772  0.903558228853278  1.0000
  H   H24       1.0  0.2078487640591433  0.9330973755886873  0.09644263471005846  1.0000
  H   H25       1.0  0.9759812711021638  0.9099721031811256  0.9631534422984201  1.0000
  H   H26       1.0  0.024019898785795097  0.09002850866475139  0.0368484495174073  1.0000
  H   H27       1.0  0.8758981826529039  0.22228451654316222  0.6426338531197048  1.0000
  H   H28       1.0  0.12410194854764713  0.7777170264456148  0.3573623493707317  1.0000
  H   H29       1.0  0.9323305181054805  0.8323473733301158  0.5826955252543868  1.0000
  H   H30       1.0  0.0676668318733391  0.1676513726306865  0.41730217016631593  1.0000
  H   H31       1.0  0.2636358824830367  0.08383466588578871  0.8618580957512094  1.0000
  H   H32       1.0  0.7363638004493042  0.9161640802088515  0.13814005097700752  1.0000
  C   C1        1.0  0.43306377590423045  0.530909731085849  0.7966134141175516  1.0000
  C   C2        1.0  0.5669387170943523  0.4690918134877293  0.20338966047022916  1.0000
  C   C3        1.0  0.5147067087537494  0.5024578107092594  0.7077774483229503  1.0000
  C   C4        1.0  0.4852943045003428  0.4975418684758283  0.2922234863746809  1.0000
  C   C5        1.0  0.47515950310921085  0.3820539333274339  0.6424252456274004  1.0000
  C   C6        1.0  0.5248418234126078  0.6179476111792255  0.3575776033066164  1.0000
  C   C7        1.0  0.5633029972411449  0.33991589174566883  0.5708943815094472  1.0000
  C   C8        1.0  0.43669685314174694  0.660083787553866  0.4291071301331542  1.0000
  C   C9        1.0  0.6919119396285821  0.4180195901177086  0.5651362451716508  1.0000
  C   C10       1.0  0.3080897954396207  0.5819772924215343  0.4348676620162522  1.0000
  C   C11       1.0  0.7297069672016291  0.5383634710996503  0.6291776108483019  1.0000
  C   C12       1.0  0.2702940424469062  0.46163620790406423  0.3708225212506023  1.0000
  C   C13       1.0  0.641649945041962  0.5828839768581348  0.7010299297938899  1.0000
  C   C14       1.0  0.3583490304985162  0.41711756660783555  0.2989684548389704  1.0000
  C   C15       1.0  0.6811390596505049  0.7140056155317609  0.7634452668251727  1.0000
  C   C16       1.0  0.3188609401551261  0.2859949960658241  0.23655559673816381  1.0000
  C   C17       1.0  0.5808575802850554  0.8021842792268644  0.7299274395843937  1.0000
  C   C18       1.0  0.4191422628867159  0.19781539970993117  0.2700724668607463  1.0000
  C   C19       1.0  0.6203924789015004  0.9280832915195419  0.7798852533315994  1.0000
  C   C20       1.0  0.37961086730611265  0.0719163877993907  0.220116132673553  1.0000
  C   C21       1.0  0.7625762678284074  0.9684669627981183  0.8644001608767766  1.0000
  C   C22       1.0  0.2374260505084891  0.03153364820782661  0.1355979435991657  1.0000
  C   C23       1.0  0.864012033224796  0.8817503530116043  0.89777822718154  1.0000
  C   C24       1.0  0.135988834212128  0.1182483940568062  0.1022241581940833  1.0000
  C   C25       1.0  0.8241505704714384  0.7551998616095971  0.8491598559357101  1.0000
  C   C26       1.0  0.1758492835170244  0.24479981787131072  0.1508424583056183  1.0000
  C   C27       1.0  0.931855396288995  0.665784097854335  0.8957218992762322  1.0000
  C   C28       1.0  0.06814329482826759  0.3342155817410202  0.10428099191006622  1.0000
  C   C29       1.0  0.13324221299264144  0.2958704086230455  0.8293671575947671  1.0000
  C   C30       1.0  0.866758793050323  0.7041292701993032  0.17063217190541022  1.0000
  C   C31       1.0  0.07552996337897612  0.1674568039028728  0.7607784409870105  1.0000
  C   C32       1.0  0.9244687024993468  0.8325428744228986  0.2392188320081844  1.0000
  C   C33       1.0  0.9410403379011356  0.14620647642703943  0.6673043230054461  1.0000
  C   C34       1.0  0.05896081035344033  0.8537941343306131  0.3326927532180122  1.0000
  C   C35       1.0  0.8932517482576756  0.0253901508286276  0.6052117342889005  1.0000
  C   C36       1.0  0.10674824073127101  0.9746104602248451  0.39478672147825483  1.0000
  C   C37       1.0  0.9735172443165538  0.9252632288204127  0.6331234525340365  1.0000
  C   C38       1.0  0.0264799634506616  0.07473458520508561  0.36687649616338547  1.0000
  C   C39       1.0  0.10784088161138072  0.947879528935907  0.7263619462444808  1.0000
  C   C40       1.0  0.8921576384497598  0.05211921727318013  0.27363677742870607  1.0000
  C   C41       1.0  0.1583718129979772  0.06840828805245282  0.7895820387895114  1.0000
  C   C42       1.0  0.8416267070631633  0.9315904581566344  0.21041668488368265  1.0000
  C   C43       1.0  0.20208435148781945  0.8466376409312563  0.7615461186791848  1.0000
  C   C44       1.0  0.7979166617662727  0.1533620382538317  0.2384548160184536  1.0000
  N   N1        1.0  0.7551055258165817  0.0024535117477669  0.5043952542598689  1.0000
  N   N2        1.0  0.24489314366730514  0.9975461667593708  0.49560282133406025  1.0000
  O   O1        1.0  0.5024650874793863  0.5112770989778354  0.895347093669116  1.0000
  O   O2        1.0  0.49753608240857267  0.48872351286803467  0.10465479814670434  1.0000
  O   O3        1.0  0.2954859583554139  0.5630743911502379  0.7763049174883961  1.0000
  O   O4        1.0  0.7045138848163504  0.4369252877865648  0.22369498895675122  1.0000
  O   O5        1.0  0.045660461384613917  0.3823756552779117  0.8171215735647408  1.0000
  O   O6        1.0  0.9543406976866536  0.6176249560238534  0.1828779104548986  1.0000
  O   O7        1.0  0.270878824354476  0.3167263395124991  0.8994232022039768  1.0000
  O   O8        1.0  0.7291221780829318  0.6832733391284762  0.10057532469747343  1.0000
  O   O9        1.0  0.6901834371359853  0.09336868365615916  0.4760624521587857  1.0000
  O   O10       1.0  0.309812902999937  0.9066309948985065  0.5239359747263492  1.0000
  O   O11       1.0  0.712322570210958  0.8937441354020167  0.4519497026200839  1.0000
  O   O12       1.0  0.2876762523012246  0.10625647558453723  0.5480485274933145  1.0000
  O   O13       1.0  0.1546480241776962  0.7383772795579377  0.6898258707820091  1.0000
  O   O14       1.0  0.8453481665354942  0.2616214666986849  0.3101732041823908  1.0000
  O   O15       1.0  0.31404643632200907  0.8669524765277857  0.8484311493709313  1.0000
  O   O16       1.0  0.6859475708603923  0.1330472018930422  0.15156682620668965  1.0000
  O   O17       1.0  0.8727225064143126  0.5710463150766216  0.9250882451949565  1.0000
  O   O18       1.0  0.12727586782965258  0.4289514990157954  0.07491192915622955  1.0000
  O   O19       1.0  0.2379899229105789  0.6800758034253108  0.15420502151255994  1.0000
  O   O20       1.0  0.7620122568202774  0.319923875826703  0.8457961388388354  1.0000
  O   O21       1.0  0.43611788219966746  0.7431587383306494  0.01607790693861942  1.0000
  O   O22       1.0  0.5638832804771569  0.2568418731524816  0.9839223796797469  1.0000
  O   O23       1.0  0.0778954086800567  0.6893387158061373  0.9069469540266722  1.0000
  O   O24       1.0  0.9221042922801034  0.3106600311953542  0.09305520569519396  1.0000
