data_image0
_chemical_formula_structural       Zn4H22C44O21
_chemical_formula_sum              "Zn4 H22 C44 O21"
_cell_length_a       15.063500451574361
_cell_length_b       15.179988866712042
_cell_length_c       17.811180989385342
_cell_angle_alpha    80.81494063245667
_cell_angle_beta     80.46531042277432
_cell_angle_gamma    89.62511261375965

_space_group_name_H-M_alt    "P 1"
_space_group_IT_number       1

loop_
  _space_group_symop_operation_xyz
  'x, y, z'

loop_
  _atom_site_type_symbol
  _atom_site_label
  _atom_site_symmetry_multiplicity
  _atom_site_fract_x
  _atom_site_fract_y
  _atom_site_fract_z
  _atom_site_occupancy
  Zn  Zn1       1.0  0.4308849142189786  0.4436996424322928  0.4284313814628576  1.0000
  Zn  Zn2       1.0  0.5447877739682314  0.39495237489489193  0.5603927206347381  1.0000
  Zn  Zn3       1.0  0.41886743923375763  0.565591305716815  0.5629973580719182  1.0000
  Zn  Zn4       1.0  0.5975127127770394  0.5743665832482137  0.44370783735526237  1.0000
  H   H1        1.0  0.6969027340815542  0.6678010510261816  0.9395138070277653  1.0000
  H   H2        1.0  0.9961684642488038  0.6695657330733411  0.49657503373872214  1.0000
  H   H3        1.0  0.9886050357773399  0.2970706054568312  0.5479667833128303  1.0000
  H   H4        1.0  0.1411436608725083  0.7258458728725118  0.48385551090856893  1.0000
  H   H5        1.0  0.14083077037197705  0.3722953712525624  0.5286580794292206  1.0000
  H   H6        1.0  0.6041749380466115  0.13837157336909198  0.5085532563764232  1.0000
  H   H7        1.0  0.7339837393730947  0.9477947369638927  0.5211147528184625  1.0000
  H   H8        1.0  0.5150652778857464  0.55057756798675  0.7943159493053573  1.0000
  H   H9        1.0  0.2644106673696882  0.039542608201671194  0.4445421236233429  1.0000
  H   H10       1.0  0.6692083819183383  0.7605709382455076  0.5025022554411294  1.0000
  H   H11       1.0  0.4008175053631718  0.3063473001509465  0.7269705650232512  1.0000
  H   H12       1.0  0.8484505317649536  0.5944447667610719  0.504169924827373  1.0000
  H   H13       1.0  0.4749061814006765  0.47876599411191734  0.19436151503767718  1.0000
  H   H14       1.0  0.670156323751982  0.6413943241031818  0.8303394813863535  1.0000
  H   H15       1.0  0.4275475467389854  0.40571283316945284  0.13165600539257838  1.0000
  H   H16       1.0  0.33782728899166165  0.16899979110848312  0.45088294076727226  1.0000
  H   H17       1.0  0.3863207179266297  0.8514504428762779  0.4837324963151702  1.0000
  H   H18       1.0  0.3631329570259467  0.312487589915321  0.05367610612470489  1.0000
  H   H19       1.0  0.7237641502911246  0.692314690944542  0.06690258211787638  1.0000
  H   H20       1.0  0.6843033096242904  0.6603475618503296  0.21029241261975787  1.0000
  H   H21       1.0  0.32677881229238176  0.22495230092929572  0.8965906453828724  1.0000
  H   H22       1.0  0.8473709674900151  0.241154485535958  0.5562237772109172  1.0000
  C   C1        1.0  0.7288049772711673  0.46538675911602934  0.5217979714751096  1.0000
  C   C2        1.0  0.4431668559955925  0.4218894680609041  0.06914072007161558  1.0000
  C   C3        1.0  0.4065803023531629  0.3695462766367683  0.02608435864846111  1.0000
  C   C4        1.0  0.2600382986730665  0.507857192931077  0.508051697507824  1.0000
  C   C5        1.0  0.42434914912296756  0.38863173978496957  0.9441913201696864  1.0000
  C   C6        1.0  0.47811434661829116  0.4660281420157021  0.9060074644133779  1.0000
  C   C7        1.0  0.389869258570215  0.33134035904975434  0.9003260585529561  1.0000
  C   C8        1.0  0.4055820020264562  0.349618158656675  0.8201596408975361  1.0000
  C   C9        1.0  0.4824566365738506  0.4890115526909539  0.8255258102451322  1.0000
  C   C10       1.0  0.8259995908426135  0.4536181599089204  0.5274034954803  1.0000
  C   C11       1.0  0.16014088598949883  0.5137106188661704  0.5120787643140474  1.0000
  C   C12       1.0  0.6474163964988336  0.6282904145470881  0.1739959946392133  1.0000
  C   C13       1.0  0.027716343762449504  0.6044646189099794  0.5053140329597596  1.0000
  C   C14       1.0  0.11943565674611278  0.5989138553061081  0.5035732595059059  1.0000
  C   C15       1.0  0.10799947421978828  0.4367740788480249  0.5232442763511642  1.0000
  C   C16       1.0  0.4787842979681898  0.2594332461995847  0.48238663164678297  1.0000
  C   C17       1.0  0.0132817335012803  0.44010342686880927  0.5276137214639505  1.0000
  C   C18       1.0  0.9731080335730555  0.5261922305811809  0.5169162276343472  1.0000
  C   C19       1.0  0.879789607740676  0.5298258337312093  0.5156608397432407  1.0000
  C   C20       1.0  0.8657031377499963  0.3680894691600117  0.5410611569924839  1.0000
  C   C21       1.0  0.9576489023702238  0.36254931283990294  0.5400405292410113  1.0000
  C   C22       1.0  0.4718974712576483  0.16189733003993473  0.48087300659373267  1.0000
  C   C23       1.0  0.5290995450497816  0.5246232879485575  0.16427688645414665  1.0000
  C   C24       1.0  0.5233146592473048  0.8294405554052703  0.49918941297676866  1.0000
  C   C25       1.0  0.6126330870797646  0.9601221515557088  0.5064348678670001  1.0000
  C   C26       1.0  0.6066702614493877  0.8689447203840005  0.5051691238511182  1.0000
  C   C27       1.0  0.44917920494564356  0.8826931556015438  0.48926630342436545  1.0000
  C   C28       1.0  0.5157095995874742  0.7318329166652904  0.5028873381475307  1.0000
  C   C29       1.0  0.456169523440174  0.9757087558610921  0.48479867610046773  1.0000
  C   C30       1.0  0.5383076127885644  0.015795223242186303  0.49617563135436893  1.0000
  C   C31       1.0  0.5436289322004767  0.10861221709172501  0.49653702127134386  1.0000
  C   C32       1.0  0.3922858746346733  0.12475708000316392  0.46478712559744656  1.0000
  C   C33       1.0  0.38401613788401073  0.033634337655179494  0.46849962371180015  1.0000
  C   C34       1.0  0.5503459665011334  0.5398583403838445  0.08314132885875128  1.0000
  C   C35       1.0  0.4539159744510357  0.45575204330550884  0.6987841622366491  1.0000
  C   C36       1.0  0.5509628720846607  0.5490664069800886  0.2946917983076959  1.0000
  C   C37       1.0  0.5758446196209093  0.5677728982390206  0.20938277628204105  1.0000
  C   C38       1.0  0.4470330214696858  0.43221642901723817  0.7831103977495888  1.0000
  C   C39       1.0  0.6689150477981584  0.6455786507531232  0.09483163774697088  1.0000
  C   C40       1.0  0.6209289494972339  0.6030537304656179  0.04791068881222314  1.0000
  C   C41       1.0  0.505090036480155  0.4935015232620614  0.03467156177947568  1.0000
  C   C42       1.0  0.5244527020508869  0.5147647175268304  0.9526968518661504  1.0000
  C   C43       1.0  0.5953168654563116  0.5800720564649849  0.9206567790178184  1.0000
  C   C44       1.0  0.6417838802841022  0.6207436032989196  0.96659288017338  1.0000
  O   O1        1.0  0.497543038120277  0.49553067079808233  0.4969237455898394  1.0000
  O   O2        1.0  0.4585175909847337  0.38929633842851535  0.6601964654442868  1.0000
  O   O3        1.0  0.5968514090576988  0.5906974026287416  0.3332032465258905  1.0000
  O   O4        1.0  0.4533033852640784  0.5372087646601074  0.6674611748306349  1.0000
  O   O5        1.0  0.4861124634493451  0.49315719272964753  0.32295517069662344  1.0000
  O   O6        1.0  0.34218796531573764  0.2558676423542323  0.9370348211025787  1.0000
  O   O7        1.0  0.8108409825661058  0.2942498763339713  0.5511133813105504  1.0000
  O   O8        1.0  0.1761307027049241  0.6719118952212141  0.4908999122855065  1.0000
  O   O9        1.0  0.69176738989065  0.9968414415172832  0.5161597601194075  1.0000
  O   O10       1.0  0.30748488096179466  0.9934043670759253  0.4563427517180401  1.0000
  O   O11       1.0  0.6830010194294475  0.8215934610790258  0.5123667111610928  1.0000
  O   O12       1.0  0.42777639059956846  0.31138333468327056  0.4456371408195707  1.0000
  O   O13       1.0  0.37495410301522725  0.28768293562586683  0.7824552414743167  1.0000
  O   O14       1.0  0.6192996226599378  0.5992767441984271  0.8419765632645094  1.0000
  O   O15       1.0  0.5900762424342787  0.6896000488832713  0.486841467475621  1.0000
  O   O16       1.0  0.6710668517650832  0.4132838454521917  0.5681262612570138  1.0000
  O   O17       1.0  0.29275887410716456  0.5394548655823214  0.559976612244718  1.0000
  O   O18       1.0  0.7122210983063797  0.5294118329193651  0.4702786792704003  1.0000
  O   O19       1.0  0.30207028900872507  0.47086591246008425  0.45366584772259694  1.0000
  O   O20       1.0  0.5358234904402082  0.2833927755647139  0.5214534322270126  1.0000
  O   O21       1.0  0.438408366835688  0.694238542576791  0.5218106794519671  1.0000
