data_image0
_chemical_formula_structural       Zn4H40C65N5O13F5
_chemical_formula_sum              "Zn4 H40 C65 N5 O13 F5"
_cell_length_a       17.794868655295648
_cell_length_b       17.81798078946183
_cell_length_c       17.78278212586443
_cell_angle_alpha    68.00205617240434
_cell_angle_beta     63.42974094115926
_cell_angle_gamma    86.55970423672696

_space_group_name_H-M_alt    "P 1"
_space_group_IT_number       1

loop_
  _space_group_symop_operation_xyz
  'x, y, z'

loop_
  _atom_site_type_symbol
  _atom_site_label
  _atom_site_symmetry_multiplicity
  _atom_site_fract_x
  _atom_site_fract_y
  _atom_site_fract_z
  _atom_site_occupancy
  Zn  Zn1       1.0  0.5657240677502242  0.4328243051235532  0.4336509175029875  1.0000
  Zn  Zn2       1.0  0.4620502423319692  0.5856942199518188  0.4306868793423461  1.0000
  Zn  Zn3       1.0  0.5630717665658835  0.5259904788353325  0.5499138360334471  1.0000
  Zn  Zn4       1.0  0.39128469039686564  0.42355381958607546  0.6151715408792812  1.0000
  H   H1        1.0  0.2675991758875255  0.9600362846602976  0.6035882126687682  1.0000
  H   H2        1.0  0.2573271372593808  0.46461427871889777  0.1347201659742439  1.0000
  H   H3        1.0  0.6991903179536294  0.6309298305376814  0.11622421808485231  1.0000
  H   H4        1.0  0.6989148904987703  0.6311725260488218  0.8479463513230028  1.0000
  H   H5        1.0  0.2359004246470207  0.3973722639732599  0.04435748077469266  1.0000
  H   H6        1.0  0.5232378196691839  0.5232072845732179  0.7924197567228717  1.0000
  H   H7        1.0  0.6011968954154767  0.5708724006214965  0.8167209946619421  1.0000
  H   H8        1.0  0.7156410528524899  0.7694727677986178  0.3746152734310115  1.0000
  H   H9        1.0  0.7354243186904058  0.6521973188297779  0.9563719305002605  1.0000
  H   H10       1.0  0.7222881312165157  0.048000409613301494  0.34293451800539293  1.0000
  H   H11       1.0  0.3707351603244931  0.8703388670454758  0.5525089857284939  1.0000
  H   H12       1.0  0.7597472017457533  0.9142237496250375  0.3396893335880334  1.0000
  H   H13       1.0  0.6177550107966069  0.13101333105127821  0.4081231270968999  1.0000
  H   H14       1.0  0.8316548352743209  0.6103652043652659  0.6781343882820607  1.0000
  H   H15       1.0  0.9213316085040475  0.7406147312274881  0.6109057736740767  1.0000
  H   H16       1.0  0.9842718314553807  0.6865792424148793  0.6628918822490063  1.0000
  H   H17       1.0  0.8776686386673376  0.6946029982496569  0.7327443661544706  1.0000
  H   H18       1.0  0.7236081995530412  0.43159288865847856  0.5905516220722262  1.0000
  H   H19       1.0  0.8095674364350243  0.4396929504437849  0.6808579654806834  1.0000
  H   H20       1.0  0.8788966010514371  0.3890434648267416  0.6122890051572298  1.0000
  H   H21       1.0  0.7720891461450279  0.3443060159630988  0.6909007746073641  1.0000
  H   H22       1.0  0.276404068877298  0.5325983319766507  0.20947295370186936  1.0000
  H   H23       1.0  0.1112343861807972  0.5213214665263947  0.2515336151200885  1.0000
  H   H24       1.0  0.35335926177405236  0.6198017800721941  0.23784858243922713  1.0000
  H   H25       1.0  0.3304902035041337  0.67771928487403  0.145702103322705  1.0000
  H   H26       1.0  0.4329149955933076  0.6484257164284771  0.12326853389055974  1.0000
  H   H27       1.0  0.1776461551727593  0.127938605665463  0.6414355538965424  1.0000
  H   H28       1.0  0.1234937814058839  0.07147839370753668  0.5710659609702587  1.0000
  H   H29       1.0  0.22690524788697533  0.051901277810181085  0.5069136831034059  1.0000
  H   H30       1.0  0.20472300914386207  0.15453575759408275  0.48454927141751364  1.0000
  H   H31       1.0  0.5639757676446067  0.2292818442822266  0.5154423012309693  1.0000
  H   H32       1.0  0.6519421753722768  0.1322873544739878  0.5532728672517209  1.0000
  H   H33       1.0  0.5840454581734136  0.05183659623555308  0.5712886351554616  1.0000
  H   H34       1.0  0.215912637289712  0.5349571255460788  0.4373704773609859  1.0000
  H   H35       1.0  0.5492452331125507  0.1009280403078066  0.6498897072952802  1.0000
  H   H36       1.0  0.15387558062686682  0.537493735847967  0.6981316332778035  1.0000
  H   H37       1.0  0.9879955832254268  0.5042904854203981  0.2274174318722686  1.0000
  H   H38       1.0  0.8307953591216445  0.48659474189352653  0.2868057312052557  1.0000
  H   H39       1.0  0.4543839854536174  0.8049096137171149  0.4964311595488481  1.0000
  H   H40       1.0  0.0068847753540949835  0.5627358767282756  0.7228990091444771  1.0000
  C   C1        1.0  0.28308584098781603  0.5293827051305371  0.5456299315256884  1.0000
  C   C2        1.0  0.5975392548977465  0.06856534503774012  0.42284809583406974  1.0000
  C   C3        1.0  0.6557276092636855  0.022252559684680803  0.3866062751899051  1.0000
  C   C4        1.0  0.7115743392888804  0.4617867426357236  0.4514863898392319  1.0000
  C   C5        1.0  0.6315637856108011  0.9401516031951188  0.40509278117130526  1.0000
  C   C6        1.0  0.5433624679418186  0.9092836472821517  0.45402104418460715  1.0000
  C   C7        1.0  0.6928329378905075  0.8893627961283099  0.3758975160329783  1.0000
  C   C8        1.0  0.6689245472227441  0.8099146508180368  0.3940075290751465  1.0000
  C   C9        1.0  0.5205759377046917  0.8301144824034808  0.46431812724465965  1.0000
  C   C10       1.0  0.802525089341323  0.4765782585708678  0.42079870665233426  1.0000
  C   C11       1.0  0.1937325114293245  0.5400701899484375  0.5628287061937554  1.0000
  C   C12       1.0  0.32778058565806123  0.18750264983241036  0.5748081942086927  1.0000
  C   C13       1.0  0.9451634347558623  0.49985689375917997  0.2963209164922775  1.0000
  C   C14       1.0  0.8587494750740134  0.4889015205339151  0.32941515809095984  1.0000
  C   C15       1.0  0.836158347628924  0.4749687645741858  0.48111457842067296  1.0000
  C   C16       1.0  0.5544161458524997  0.5424571590813088  0.2709739614289717  1.0000
  C   C17       1.0  0.9247159932820922  0.5048995294846179  0.4411974743051772  1.0000
  C   C18       1.0  0.9793245213544425  0.5082150929345701  0.3514239333162907  1.0000
  C   C19       1.0  0.9614363580580232  0.5313435155770776  0.4864187432948839  1.0000
  C   C20       1.0  0.05086691188218848  0.5359596025567936  0.45782480793279484  1.0000
  C   C21       1.0  0.10015149647311009  0.5289650227970029  0.37264483308402413  1.0000
  C   C22       1.0  0.06816842079702919  0.5204343979592209  0.31891377364941326  1.0000
  C   C23       1.0  0.4726734541744903  0.1564104551914411  0.5318350610877474  1.0000
  C   C24       1.0  0.9141565865387093  0.5631217259278573  0.5539847463296893  1.0000
  C   C25       1.0  0.9432831597163087  0.5804733625053513  0.6064967902006657  1.0000
  C   C26       1.0  0.026974766809637188  0.5628160535067152  0.5938038763394502  1.0000
  C   C27       1.0  0.0838103500550602  0.5482946497879624  0.5141543390708065  1.0000
  C   C28       1.0  0.43739836837504237  0.4591393866689373  0.7401655019215169  1.0000
  C   C29       1.0  0.0532811949932182  0.5583831936127482  0.6594104327221118  1.0000
  C   C30       1.0  0.13453075209537957  0.544567880701656  0.6459994612629387  1.0000
  C   C31       1.0  0.1688893410886365  0.5420057859652375  0.4985199967798408  1.0000
  C   C32       1.0  0.4077817655286466  0.45674682861878313  0.8333126033367791  1.0000
  C   C33       1.0  0.5762758265043857  0.5636488677611099  0.17280181793100988  1.0000
  C   C34       1.0  0.4488634675684792  0.08485851053839613  0.5240558802312164  1.0000
  C   C35       1.0  0.2999312823605464  0.4243666334040412  0.9908580092008918  1.0000
  C   C36       1.0  0.3265090773421305  0.4201648305398393  0.907386707369831  1.0000
  C   C37       1.0  0.46134399198429316  0.49541360649039495  0.8499395830385693  1.0000
  C   C38       1.0  0.4382352408755281  0.4997513546279818  0.934411953169615  1.0000
  C   C39       1.0  0.3540577082830652  0.4655081036640496  0.006359834067851045  1.0000
  C   C40       1.0  0.5559913271419745  0.6958258000550259  0.45351265097647814  1.0000
  C   C41       1.0  0.4951774716844142  0.5362841469480912  0.9528843669069859  1.0000
  C   C42       1.0  0.4670307472326273  0.5393204029861776  0.04003129155859142  1.0000
  C   C43       1.0  0.37620406654892236  0.5247128428609287  0.10013320990080393  1.0000
  C   C44       1.0  0.3247112070641122  0.4807641496064932  0.08626958894905817  1.0000
  C   C45       1.0  0.36092934596722154  0.060092533181631304  0.5583742590270832  1.0000
  C   C46       1.0  0.5803045341263485  0.5697784150498179  0.8848230147713351  1.0000
  C   C47       1.0  0.635417927458697  0.602540161844871  0.9021159614498656  1.0000
  C   C48       1.0  0.6135368191928093  0.5957284154239205  0.9920715543002812  1.0000
  C   C49       1.0  0.5301017812299377  0.5577821406967657  0.0631640108410708  1.0000
  C   C50       1.0  0.6731364268689718  0.622136243611564  0.012239676515129303  1.0000
  C   C51       1.0  0.6539220853525691  0.6092628008044443  0.10080915927927941  1.0000
  C   C52       1.0  0.4342724089555788  0.2878998869881357  0.5567237965864321  1.0000
  C   C53       1.0  0.5187537737053987  0.5367232307239503  0.15295349458210694  1.0000
  C   C54       1.0  0.41168166938021494  0.2105328508272137  0.5539987475745676  1.0000
  C   C55       1.0  0.5817434048599139  0.7808769711868209  0.43647157853377644  1.0000
  C   C56       1.0  0.5097410243774904  0.037162134841594294  0.4812305759611774  1.0000
  C   C57       1.0  0.2995503436721094  0.11344765185420161  0.5815542342548952  1.0000
  C   C58       1.0  0.9202395172889553  0.6872919062898718  0.6690104316662442  1.0000
  C   C59       1.0  0.813406239613613  0.40226592700398095  0.6423091705373807  1.0000
  C   C60       1.0  0.3653222274064801  0.6283868861220013  0.1687771171074602  1.0000
  C   C61       1.0  0.19127447174339812  0.09317538738760331  0.5389280750377808  1.0000
  C   C62       1.0  0.5856546904002613  0.11066358406433352  0.5771211952620519  1.0000
  C   C63       1.0  0.48186548858533473  0.9590523896990959  0.491595804182964  1.0000
  C   C64       1.0  0.3933182801197076  0.931426553962382  0.5398692570275188  1.0000
  C   C65       1.0  0.3352465273925347  0.9810487090360314  0.5690016607404971  1.0000
  N   N1        1.0  0.891197826273043  0.6101336743301149  0.6723567800570719  1.0000
  N   N2        1.0  0.7865524372062326  0.4404817862887214  0.5725919553650629  1.0000
  N   N3        1.0  0.3389945710380005  0.5529735076690939  0.1684338885806867  1.0000
  N   N4        1.0  0.21331375097625474  0.0918008047567369  0.6097938323739385  1.0000
  N   N5        1.0  0.5531884635693203  0.1713724760292691  0.5209645988241434  1.0000
  O   O1        1.0  0.4931187046496036  0.4914633019686294  0.5068069213868752  1.0000
  O   O2        1.0  0.48925365728855047  0.6821924623957188  0.4478222398523357  1.0000
  O   O3        1.0  0.376604168732797  0.319138260197782  0.606173328735025  1.0000
  O   O4        1.0  0.603408693080915  0.6427700996538518  0.4726432300475239  1.0000
  O   O5        1.0  0.5131648531428751  0.31899019235793  0.5083487288212964  1.0000
  O   O6        1.0  0.5651568048041185  0.47114047373136  0.3142176948936353  1.0000
  O   O7        1.0  0.3940854233186783  0.41521584089083774  0.7270852496697559  1.0000
  O   O8        1.0  0.341275284098721  0.5668968521472805  0.4638821635780347  1.0000
  O   O9        1.0  0.6587476174988254  0.4601204453140184  0.5316185439900281  1.0000
  O   O10       1.0  0.2939445312273889  0.48417004157516164  0.6141019571295913  1.0000
  O   O11       1.0  0.6866479941218131  0.45193662384524913  0.3978798266537141  1.0000
  O   O12       1.0  0.527278517226449  0.5983949082817047  0.30106060912253  1.0000
  O   O13       1.0  0.5063884881000434  0.5068705942086139  0.6782904919317899  1.0000
  F   F1        1.0  0.18689046682690247  0.5355746674941742  0.33739755860837317  1.0000
  F   F2        1.0  0.8350200738537198  0.583059101906244  0.5655940941691923  1.0000
  F   F3        1.0  0.4487487922076524  0.48602394767490115  0.2253133440044126  1.0000
  F   F4        1.0  0.2708748295894736  0.38128703025234506  0.8966886280102031  1.0000
  F   F5        1.0  0.2690668428022107  0.24026084747973186  0.5901351755213682  1.0000
