data_image0
_chemical_formula_structural       Mg6H144C165O18
_chemical_formula_sum              "Mg6 H144 C165 O18"
_cell_length_a       6.9110282474957625
_cell_length_b       53.889895762666995
_cell_length_c       53.88930240715455
_cell_angle_alpha    119.81790941409726
_cell_angle_beta     92.45045698860011
_cell_angle_gamma    92.4526945805883

_space_group_name_H-M_alt    "P 1"
_space_group_IT_number       1

loop_
  _space_group_symop_operation_xyz
  'x, y, z'

loop_
  _atom_site_type_symbol
  _atom_site_label
  _atom_site_symmetry_multiplicity
  _atom_site_fract_x
  _atom_site_fract_y
  _atom_site_fract_z
  _atom_site_occupancy
  Mg  Mg1       1.0  0.19903430983406156  0.6456340976918399  0.31614168449506513  1.0000
  Mg  Mg2       1.0  0.5535248512586363  0.6705025940263598  0.3543759072450143  1.0000
  Mg  Mg3       1.0  0.883089604185798  0.683870349260843  0.32949805883344396  1.0000
  Mg  Mg4       1.0  0.9845409396349252  0.35514463054742856  0.6824964600965728  1.0000
  Mg  Mg5       1.0  0.6294493026256729  0.32733837489495704  0.644852717004497  1.0000
  Mg  Mg6       1.0  0.3020980588105359  0.3175092899183554  0.6726556278099238  1.0000
  H   H1        1.0  0.6710605714835935  0.37976574528427415  0.6227517823518555  1.0000
  H   H2        1.0  0.29113130061004705  0.242999124601468  0.6202789432457011  1.0000
  H   H3        1.0  0.0482151257798761  0.37727054279576316  0.7570019115741786  1.0000
  H   H4        1.0  0.669630619739827  0.40389798459784737  0.528881998684291  1.0000
  H   H5        1.0  0.2655656839380711  0.12498042642843639  0.5960921235374245  1.0000
  H   H6        1.0  0.14093022200790253  0.4711053805343396  0.8750355780636951  1.0000
  H   H7        1.0  0.22398450644931944  0.4453939298296489  0.5024495840145704  1.0000
  H   H8        1.0  0.7785694672343979  0.05705349505510781  0.5546189996823828  1.0000
  H   H9        1.0  0.721524668709719  0.4975322587120986  0.9429155568321195  1.0000
  H   H10       1.0  0.2900618619595717  0.5495278374293519  0.5031444362712278  1.0000
  H   H11       1.0  0.7402532982153072  0.9536490778167346  0.450481094770012  1.0000
  H   H12       1.0  0.7867365199525762  0.49683218407256646  0.04635110045949627  1.0000
  H   H13       1.0  0.7848843869878832  0.596334244043966  0.48437433179233846  1.0000
  H   H14       1.0  0.188662513847049  0.8880240294443311  0.4036247076441554  1.0000
  H   H15       1.0  0.30083593786090274  0.5155959745932889  0.11197796624393415  1.0000
  H   H16       1.0  0.8810044440663987  0.49324134146704085  0.43863835783766814  1.0000
  H   H17       1.0  0.387669581427424  0.9454034808541182  0.50672905085505  1.0000
  H   H18       1.0  0.4420492967757707  0.5613114955198596  0.054583118511352724  1.0000
  H   H19       1.0  0.5358533088405932  0.5106230909826763  0.3975304958234744  1.0000
  H   H20       1.0  0.02520815051430224  0.886917057392722  0.48935534881425713  1.0000
  H   H21       1.0  0.13835661496494103  0.6024539050824701  0.11308494683168388  1.0000
  H   H22       1.0  0.6518257517030362  0.4831123228136035  0.4003500085477897  1.0000
  H   H23       1.0  0.1687455548665323  0.9172536220505519  0.5168515321052282  1.0000
  H   H24       1.0  0.25156360834072417  0.5996127505400253  0.08275013828767173  1.0000
  H   H25       1.0  0.7732195837182656  0.5026424193442125  0.3864610408991567  1.0000
  H   H26       1.0  0.2705409539187895  0.8838299421854928  0.497347573918546  1.0000
  H   H27       1.0  0.3868431451764065  0.6135089299874038  0.11617031376286475  1.0000
  H   H28       1.0  0.2439633015930338  0.6105144875608131  0.44166171998882214  1.0000
  H   H29       1.0  0.633237139049612  0.8311836036551911  0.3894807180783317  1.0000
  H   H30       1.0  0.8019373940293802  0.5582994842035022  0.16881151479086037  1.0000
  H   H31       1.0  0.7764116652377877  0.5502985885400874  0.39436555769692916  1.0000
  H   H32       1.0  0.22596147401419114  0.8440789177286733  0.4496879187286709  1.0000
  H   H33       1.0  0.3819792628500095  0.6056241768983314  0.15597739184646986  1.0000
  H   H34       1.0  0.4770688324337726  0.5648093211531277  0.34647607660052426  1.0000
  H   H35       1.0  0.9120099161989115  0.7817035169714898  0.4351883477721542  1.0000
  H   H36       1.0  0.13038445808901844  0.6534990707246919  0.21832908240855173  1.0000
  H   H37       1.0  0.6652022272330098  0.5449936698614266  0.3501088773694434  1.0000
  H   H38       1.0  0.11994102125685638  0.8051597517542745  0.45500337206158986  1.0000
  H   H39       1.0  0.314835442649972  0.6498461950764066  0.19487176684844332  1.0000
  H   H40       1.0  0.7153771219616445  0.5810476457634481  0.35925311038763413  1.0000
  H   H41       1.0  0.134140971236533  0.7782264272662757  0.4189639889166087  1.0000
  H   H42       1.0  0.3559254211269757  0.6407313534280589  0.22179794624808105  1.0000
  H   H43       1.0  0.5181895179775323  0.6167003538305593  0.3712006268760036  1.0000
  H   H44       1.0  0.90168295008889  0.7545244409561958  0.38330585237809334  1.0000
  H   H45       1.0  0.14665721188190847  0.6287808802480156  0.2454800128235631  1.0000
  H   H46       1.0  0.8312071360146758  0.629616194164889  0.3941719093781515  1.0000
  H   H47       1.0  0.20165284189266683  0.7645047376856554  0.37037877582397993  1.0000
  H   H48       1.0  0.4367306420418371  0.6058581657519397  0.23549403966909208  1.0000
  H   H49       1.0  0.023527647894091695  0.6016299974570813  0.4098551771180397  1.0000
  H   H50       1.0  0.4218498802403869  0.8081970501244767  0.398364577904914  1.0000
  H   H51       1.0  0.6131574898337175  0.5901625272538951  0.19179299256102667  1.0000
  H   H52       1.0  0.4137453992390474  0.5704683821313025  0.4757023797868385  1.0000
  H   H53       1.0  0.8431762740510675  0.9052696452281381  0.4295398222238234  1.0000
  H   H54       1.0  0.9379216256425021  0.524316429015279  0.09474855083534807  1.0000
  H   H55       1.0  0.22724253997653662  0.5907562887533969  0.47269990771096815  1.0000
  H   H56       1.0  0.6363493236890103  0.8819753784876807  0.4092599332038346  1.0000
  H   H57       1.0  0.7543923712327538  0.5273164762271704  0.11803588335286005  1.0000
  H   H58       1.0  0.4532749495213649  0.608111662289339  0.49166805310187567  1.0000
  H   H59       1.0  0.8449713551722763  0.8835855450212262  0.3918949961093218  1.0000
  H   H60       1.0  0.9613061601779902  0.508312486638367  0.11639427020580227  1.0000
  H   H61       1.0  0.9665657448323512  0.5750936980838686  0.5348317472152572  1.0000
  H   H62       1.0  0.3914079213841927  0.9597555755540127  0.4249109957494781  1.0000
  H   H63       1.0  0.4317620023151675  0.46514019293726255  0.04026150634770427  1.0000
  H   H64       1.0  0.8889849723417026  0.6035000427285268  0.5297380594606622  1.0000
  H   H65       1.0  0.285487357850968  0.9262590256474966  0.3964786764389885  1.0000
  H   H66       1.0  0.35933905980608927  0.47022952480932645  0.07376429300627758  1.0000
  H   H67       1.0  0.12879438658598005  0.5927656414414102  0.5232367737733483  1.0000
  H   H68       1.0  0.5360294384624849  0.9305066387452143  0.40721816369116237  1.0000
  H   H69       1.0  0.6056489556673623  0.47672312874158246  0.06951657813173982  1.0000
  H   H70       1.0  0.9746124176259555  0.4732252336460334  0.5152953763545228  1.0000
  H   H71       1.0  0.5012154554256084  0.0420845510309746  0.5268138046077909  1.0000
  H   H72       1.0  0.4593462094982001  0.4847117590720203  0.9579073178812153  1.0000
  H   H73       1.0  0.6505812252176566  0.4979754398500944  0.4781953090670897  1.0000
  H   H74       1.0  0.1523788139166552  0.980242051968382  0.5020393411491212  1.0000
  H   H75       1.0  0.1723754443133315  0.5217762333973468  0.019739564360037234  1.0000
  H   H76       1.0  0.6753871329694686  0.47609518892414837  0.4941268599433499  1.0000
  H   H77       1.0  0.19909576781817154  0.0180599090156193  0.5239165272350591  1.0000
  H   H78       1.0  0.18124847188112608  0.5058483380852082  0.9819270087751095  1.0000
  H   H79       1.0  0.7629615636827864  0.46539507246288275  0.46013217055142525  1.0000
  H   H80       1.0  0.29739999181004584  0.9947679511897148  0.5346213415014986  1.0000
  H   H81       1.0  0.3027784855365922  0.5398488641099634  0.0052260801390601195  1.0000
  H   H82       1.0  0.6195407751473994  0.521575923223118  0.536835670139638  1.0000
  H   H83       1.0  0.0976321828454303  0.0152986054392272  0.4784669950144791  1.0000
  H   H84       1.0  0.0826588919634687  0.46316320566998564  0.9847406298609799  1.0000
  H   H85       1.0  0.5287075002070337  0.5560046544057046  0.5541314083628636  1.0000
  H   H86       1.0  0.9725432812423092  0.9981629147423662  0.44402495605972797  1.0000
  H   H87       1.0  0.9744546979793537  0.44586406086092006  0.0018671792668383876  1.0000
  H   H88       1.0  0.5985507776007919  0.5413683846608777  0.5186698300482959  1.0000
  H   H89       1.0  0.05694721864308842  0.9773428553910505  0.4586737598253023  1.0000
  H   H90       1.0  0.07968827449056434  0.48133143416815455  0.022695738980722406  1.0000
  H   H91       1.0  0.5996009137232289  0.4918283102773912  0.5956781856122718  1.0000
  H   H92       1.0  0.10770360329141229  0.10388155277092183  0.5082095819185001  1.0000
  H   H93       1.0  0.00425111250127931  0.40433414451976546  0.8961435733027799  1.0000
  H   H94       1.0  0.3298452572664486  0.5413407813696763  0.5806514168016861  1.0000
  H   H95       1.0  0.7885710074826873  0.0393265886209946  0.4586785698578027  1.0000
  H   H96       1.0  0.749400004370713  0.4193560321158642  0.9606782926374038  1.0000
  H   H97       1.0  0.5825254509758224  0.5415506830271823  0.5882076677226209  1.0000
  H   H98       1.0  0.04108482137258559  0.046674440566036396  0.4584778692111727  1.0000
  H   H99       1.0  0.9945396085838281  0.4117884238346008  0.9533398634765293  1.0000
  H   H100      1.0  0.41421567889103256  0.5349313876447681  0.6084397929061042  1.0000
  H   H101      1.0  0.8793881368039963  0.07352134174732329  0.4650883945086336  1.0000
  H   H102      1.0  0.8059675485281517  0.3915656529203914  0.9264856667867749  1.0000
  H   H103      1.0  0.31955874941756685  0.3959977243083301  0.5286706635259222  1.0000
  H   H104      1.0  0.9236529842547085  0.1326661800388038  0.6040294468448766  1.0000
  H   H105      1.0  0.7910110692706451  0.4713428334104393  0.8673191383057102  1.0000
  H   H106      1.0  0.4154241826154104  0.3948636441759063  0.49824667070559775  1.0000
  H   H107      1.0  0.02072719080987177  0.10337403086852959  0.6051466914971827  1.0000
  H   H108      1.0  0.917351383180481  0.50175523101597  0.8966141084965076  1.0000
  H   H109      1.0  0.1717982728979805  0.4030270469149285  0.5053231507834185  1.0000
  H   H110      1.0  0.7688800372096976  0.1022901517198278  0.5970089909078808  1.0000
  H   H111      1.0  0.6666381792922988  0.49467871649223116  0.8976995093241059  1.0000
  H   H112      1.0  0.7091805339182072  0.43033879888809423  0.630454839381372  1.0000
  H   H113      1.0  0.27863186331192935  0.20012756956549538  0.5696787896301743  1.0000
  H   H114      1.0  0.07843532244882552  0.36955212471408305  0.7998573682904039  1.0000
  H   H115      1.0  0.35728753445788175  0.4693056593721892  0.6130341421786839  1.0000
  H   H116      1.0  0.8880068800677917  0.1437588018673708  0.5306326477820775  1.0000
  H   H117      1.0  0.744292683283305  0.38692621709307684  0.8562544994352593  1.0000
  H   H118      1.0  0.578393454521361  0.4858097820103924  0.6338688825362767  1.0000
  H   H119      1.0  0.09297184598051436  0.14808068815361247  0.5141864794216674  1.0000
  H   H120      1.0  0.9446194562167844  0.36610869913724287  0.8519355797270834  1.0000
  H   H121      1.0  0.44517821132652796  0.4598418780833454  0.6385476096325107  1.0000
  H   H122      1.0  0.9855853713353184  0.17873056776731025  0.5401259227603462  1.0000
  H   H123      1.0  0.8067152012573258  0.36142421880251163  0.821282786796779  1.0000
  H   H124      1.0  0.8840476658718398  0.3500129669346776  0.543662910694799  1.0000
  H   H125      1.0  0.533854413253458  0.19366034937721818  0.6499869714866976  1.0000
  H   H126      1.0  0.34032598593415747  0.4563412558043113  0.8063484671726118  1.0000
  H   H127      1.0  0.9393004489303749  0.3666481927317663  0.5231280193153227  1.0000
  H   H128      1.0  0.5725630774199075  0.1564956658726757  0.633366103391225  1.0000
  H   H129      1.0  0.41616434229956645  0.4768885925615221  0.8435168901812561  1.0000
  H   H130      1.0  0.7020177128448281  0.35137574497117197  0.5202168759074582  1.0000
  H   H131      1.0  0.3505444679139202  0.1688497537895799  0.6486393666138356  1.0000
  H   H132      1.0  0.18173443038668308  0.4797821274915747  0.8311607938214963  1.0000
  H   H133      1.0  0.35431087569897807  0.3620960365210523  0.6003460566332351  1.0000
  H   H134      1.0  0.9920011612850033  0.23822559236170082  0.6378989980228056  1.0000
  H   H135      1.0  0.7539203618956164  0.39963434667759407  0.7617722071761223  1.0000
  H   H136      1.0  0.14578256630593228  0.4095255143126053  0.5772182213600631  1.0000
  H   H137      1.0  0.736184329080288  0.1676853934924623  0.5904376647855258  1.0000
  H   H138      1.0  0.5684892509976435  0.4227736175895344  0.8323226246645633  1.0000
  H   H139      1.0  0.1988076945312826  0.3739338459578647  0.5530165177141129  1.0000
  H   H140      1.0  0.8248469141106368  0.17905645156924532  0.626025990146765  1.0000
  H   H141      1.0  0.6457730931222512  0.4469816474314215  0.820940627052977  1.0000
  H   H142      1.0  0.3599391819230177  0.3956334973002384  0.5833376831470505  1.0000
  H   H143      1.0  0.9641612267516635  0.18772249673480706  0.6043492766117142  1.0000
  H   H144      1.0  0.7765173967953487  0.41665231303151273  0.812303144872388  1.0000
  C   C1        1.0  0.9273762256964913  0.3628610800290488  0.6303969003233335  1.0000
  C   C2        1.0  0.5644237757473716  0.26753695976464087  0.6371750702987953  1.0000
  C   C3        1.0  0.2969472549621556  0.3696093699113662  0.7324659599503891  1.0000
  C   C4        1.0  0.8220377317362804  0.3760525251758439  0.6177156071523272  1.0000
  C   C5        1.0  0.4458168219758745  0.24167092185030006  0.6239908656864729  1.0000
  C   C6        1.0  0.20423891159938268  0.38230127497126176  0.7583306719845951  1.0000
  C   C7        1.0  0.9033608583017523  0.38453449838159065  0.5994700156127807  1.0000
  C   C8        1.0  0.5186015896009906  0.21493685830559167  0.615486858213295  1.0000
  C   C9        1.0  0.30376986367549796  0.40054543621531735  0.7850637208912374  1.0000
  C   C10       1.0  0.7875435576141141  0.3999816366569534  0.5883817811647134  1.0000
  C   C11       1.0  0.3872924506109213  0.1884055123230937  0.6000320289472683  1.0000
  C   C12       1.0  0.19903068448504502  0.41162493109034415  0.8115958692987493  1.0000
  C   C13       1.0  0.7671452633092882  0.3915856720452382  0.5590129301642223  1.0000
  C   C14       1.0  0.3753578268990835  0.16743257189490632  0.6084254212554897  1.0000
  C   C15       1.0  0.20818841383831438  0.4409918073727326  0.8325759158724396  1.0000
  C   C16       1.0  0.675676401638924  0.4096684549788989  0.5513857138546996  1.0000
  C   C17       1.0  0.2657259297290651  0.1417244593249762  0.5903374929454301  1.0000
  C   C18       1.0  0.12442416773452426  0.44860584602089654  0.8582924038223255  1.0000
  C   C19       1.0  0.5890522282925088  0.4344496592287825  0.5707875962579081  1.0000
  C   C20       1.0  0.15424458088968143  0.13636082980516306  0.565569953093366  1.0000
  C   C21       1.0  0.01835320077290687  0.42920027500177566  0.8636553387761624  1.0000
  C   C22       1.0  0.49237421427208256  0.4513314411192439  0.5596001870397416  1.0000
  C   C23       1.0  0.040738570387631484  0.10829206625717801  0.548690333840888  1.0000
  C   C24       1.0  0.93290814883089  0.44039861539825154  0.8917243679911168  1.0000
  C   C25       1.0  0.3773520663827623  0.43807418367455847  0.5331729477911296  1.0000
  C   C26       1.0  0.9391593139424115  0.0951080629488388  0.5619486267686895  1.0000
  C   C27       1.0  0.8442942420944559  0.4668194533000261  0.9048835744920042  1.0000
  C   C28       1.0  0.3064233884877438  0.45565586607320796  0.5232868375969275  1.0000
  C   C29       1.0  0.8506749337317173  0.06763841445810931  0.5443614411334395  1.0000
  C   C30       1.0  0.7831812341184159  0.4766987611585022  0.9323463113164507  1.0000
  C   C31       1.0  0.3296569222191648  0.48580672043833306  0.5386934106441714  1.0000
  C   C32       1.0  0.8436927993444882  0.052907409409925804  0.5142115440665407  1.0000
  C   C33       1.0  0.7910149308481207  0.4612961714828641  0.9470915014365175  1.0000
  C   C34       1.0  0.2344074350520414  0.5007467550789784  0.5251248529678989  1.0000
  C   C35       1.0  0.733396960742887  0.024404350370474497  0.4992728266822369  1.0000
  C   C36       1.0  0.7092395942951695  0.4748607624512005  0.9755937504036113  1.0000
  C   C37       1.0  0.3248930033901728  0.5229038382106311  0.5218562398764348  1.0000
  C   C38       1.0  0.8016671900988751  0.9989801026212248  0.4771073174862933  1.0000
  C   C39       1.0  0.802905424557572  0.47812842437816266  0.0010233448006928053  1.0000
  C   C40       1.0  0.21966022711343658  0.5327453540054634  0.5061063478311781  1.0000
  C   C41       1.0  0.6865938719370557  0.9733922143375506  0.4672586666041381  1.0000
  C   C42       1.0  0.7133654268812463  0.49386747464143343  0.02660880774839566  1.0000
  C   C43       1.0  0.032626734165617635  0.5216278343107774  0.4930159917449259  1.0000
  C   C44       1.0  0.5106698914882838  0.9714077811467943  0.4783671055995668  1.0000
  C   C45       1.0  0.5394141778922473  0.5069555637673632  0.028587488555544386  1.0000
  C   C46       1.0  0.9337728047425953  0.5340332781620845  0.47717838493915826  1.0000
  C   C47       1.0  0.3996433676242786  0.9431483314025471  0.46594078474534933  1.0000
  C   C48       1.0  0.456484366303769  0.5227812643269018  0.05684028919173294  1.0000
  C   C49       1.0  0.9075797603316996  0.5637041804369431  0.49040754128262176  1.0000
  C   C50       1.0  0.34395604153370823  0.9266962421949573  0.436262158997998  1.0000
  C   C51       1.0  0.4173155426104883  0.5095610786732934  0.07330067051666582  1.0000
  C   C52       1.0  0.8071939237459417  0.5734918889689381  0.4742892021002092  1.0000
  C   C53       1.0  0.2338859020972489  0.9007802421426233  0.42646640502125877  1.0000
  C   C54       1.0  0.3332044161368015  0.5256868310001934  0.09922258545453388  1.0000
  C   C55       1.0  0.7293917216968352  0.5554644432205009  0.4460136747027336  1.0000
  C   C56       1.0  0.17407383751803682  0.8905382417223392  0.4444964221302854  1.0000
  C   C57       1.0  0.2836043221722304  0.553961057312108  0.10947243105563582  1.0000
  C   C58       1.0  0.7572026388319271  0.5258688260270645  0.43269668746538065  1.0000
  C   C59       1.0  0.2314086278077665  0.9068181225887173  0.4740955088331019  1.0000
  C   C60       1.0  0.3244836776057482  0.5672685364522678  0.09317564616150519  1.0000
  C   C61       1.0  0.8597257955470495  0.5161062199208573  0.4487123362992734  1.0000
  C   C62       1.0  0.34359265971114855  0.9326026643633579  0.4838618299798866  1.0000
  C   C63       1.0  0.410806649421623  0.5512448781637644  0.06738290848249306  1.0000
  C   C64       1.0  0.6747537036599736  0.5045075041862006  0.40274470563025494  1.0000
  C   C65       1.0  0.17024590289008026  0.8982414154982691  0.4954650299695658  1.0000
  C   C66       1.0  0.27204803362101854  0.5972233181077654  0.10175618888123233  1.0000
  C   C67       1.0  0.6144489520662686  0.5681512219710853  0.43183246158410776  1.0000
  C   C68       1.0  0.0462642793745756  0.8636894784000119  0.4318219504601756  1.0000
  C   C69       1.0  0.1827087710509402  0.568135950025237  0.13633608478043868  1.0000
  C   C70       1.0  0.45768278179274785  0.5847668239450029  0.4450936729458377  1.0000
  C   C71       1.0  0.8727707614044533  0.8603545404887074  0.41523380327608106  1.0000
  C   C72       1.0  0.01250879108004439  0.5548846468449824  0.13966719302921857  1.0000
  C   C73       1.0  0.3615544271760597  0.5970511289762258  0.431093036731717  1.0000
  C   C74       1.0  0.7643177526249827  0.8340707591136366  0.4029407829274875  1.0000
  C   C75       1.0  0.9301709981075348  0.5688807210121638  0.16593957684810323  1.0000
  C   C76       1.0  0.40616237917222947  0.5929515987575228  0.40414757404213464  1.0000
  C   C77       1.0  0.8131258875823091  0.8112086692437542  0.40701142264347095  1.0000
  C   C78       1.0  0.0016504207158191465  0.5958216335739196  0.18879855882020277  1.0000
  C   C79       1.0  0.5561987503713011  0.5749932042900809  0.3901332172709147  1.0000
  C   C80       1.0  0.9810840896253266  0.8151541184108025  0.42497605134472843  1.0000
  C   C81       1.0  0.16581731969348804  0.6098306235333694  0.18487021232053985  1.0000
  C   C82       1.0  0.6579449627206699  0.5636703677592934  0.40478442477910903  1.0000
  C   C83       1.0  0.09417827274074846  0.8411250597941236  0.4363055017602663  1.0000
  C   C84       1.0  0.25310385469604996  0.5951872723064681  0.15891088876911388  1.0000
  C   C85       1.0  0.6051184678204747  0.5660946189678455  0.3599411095164982  1.0000
  C   C86       1.0  0.03881306311996003  0.7938737493223017  0.4338973684610466  1.0000
  C   C87       1.0  0.24493925213302947  0.6400282061564155  0.20615468144009694  1.0000
  C   C88       1.0  0.28805736846854285  0.607238046767158  0.3920734239863322  1.0000
  C   C89       1.0  0.6808694744464316  0.7848327972200765  0.3927324370934214  1.0000
  C   C90       1.0  0.8955870091637905  0.6079095043127579  0.21516160117309366  1.0000
  C   C91       1.0  0.36589476949251304  0.6183017281967906  0.375734284625068  1.0000
  C   C92       1.0  0.7477759590826732  0.7574377461549346  0.38168814412713187  1.0000
  C   C93       1.0  0.989842816927968  0.6242478949630909  0.24255951039067009  1.0000
  C   C94       1.0  0.2544383594477677  0.6323634364341544  0.3646226303197793  1.0000
  C   C95       1.0  0.6223282765728723  0.7322517572086583  0.3676365219652454  1.0000
  C   C96       1.0  0.8896689190868015  0.6353743883287067  0.2677463527406658  1.0000
  C   C97       1.0  0.05758282295500537  0.6369478157829179  0.37209522607940937  1.0000
  C   C98       1.0  0.42084459999317403  0.7351269241760935  0.3630473110624025  1.0000
  C   C99       1.0  0.68531555675478  0.6279079903144336  0.26487163799812663  1.0000
  C   C100      1.0  0.9813479215022479  0.6259182005146399  0.38877815186508974  1.0000
  C   C101      1.0  0.3555428810226714  0.7628286682030493  0.37407812943610713  1.0000
  C   C102      1.0  0.5922865513820096  0.6112307515160394  0.23716687161818578  1.0000
  C   C103      1.0  0.09055129175414561  0.6108586264750925  0.3980620676619537  1.0000
  C   C104      1.0  0.4797088686401378  0.7871808006013551  0.3891309857249539  1.0000
  C   C105      1.0  0.6920586640095221  0.601944365767153  0.2128109761601209  1.0000
  C   C106      1.0  0.9300390439773661  0.652933154546389  0.3635352317454945  1.0000
  C   C107      1.0  0.27731958258038936  0.7105855584191473  0.3470547844411982  1.0000
  C   C108      1.0  0.5664904372690243  0.6364818381749514  0.28942794150449913  1.0000
  C   C109      1.0  0.38468928915717265  0.5887281117084272  0.472746938804825  1.0000
  C   C110      1.0  0.7958297657332235  0.884053355139173  0.4112829182844422  1.0000
  C   C111      1.0  0.9117921906654298  0.5272498202938465  0.11595536338244726  1.0000
  C   C112      1.0  0.9762238832555492  0.5847842725056366  0.5211460010471214  1.0000
  C   C113      1.0  0.391433049721307  0.936376958298233  0.4151967321484875  1.0000
  C   C114      1.0  0.45516158639787807  0.4788212992546406  0.06363681447267304  1.0000
  C   C115      1.0  0.9433611621562716  0.4990456521114269  0.49570859221892505  1.0000
  C   C116      1.0  0.44404674506282027  0.9966814574807757  0.5009643188049252  1.0000
  C   C117      1.0  0.4475979411503629  0.5042784200915023  0.0033095731959846652  1.0000
  C   C118      1.0  0.045470867754445886  0.4899101758119073  0.5122310883157796  1.0000
  C   C119      1.0  0.5553352533973167  0.022341201347330794  0.5101156683495489  1.0000
  C   C120      1.0  0.5332223152693059  0.48776525945111615  0.9776521889515595  1.0000
  C   C121      1.0  0.747473977694554  0.48409838958836804  0.4814306682575946  1.0000
  C   C122      1.0  0.26313898660533386  0.9973567757236312  0.5159162790444612  1.0000
  C   C123      1.0  0.26600108260188177  0.5185499206431813  0.0026295672074496943  1.0000
  C   C124      1.0  0.528586263214919  0.5359593535226993  0.5334611193255442  1.0000
  C   C125      1.0  0.9923519994856345  0.9975355215025841  0.4640713989550491  1.0000
  C   C126      1.0  0.9950085537221013  0.46653478141235644  0.0024907170980056083  1.0000
  C   C127      1.0  0.43045916054508376  0.49906476750511797  0.5660658620599861  1.0000
  C   C128      1.0  0.9313247279564008  0.06701673524994331  0.500956412703694  1.0000
  C   C129      1.0  0.8646348898132385  0.4339367754198094  0.9329945634033976  1.0000
  C   C130      1.0  0.5144193369054973  0.4814200947073459  0.5750863869584466  1.0000
  C   C131      1.0  0.032837352315603086  0.09369252426152032  0.5186068756833963  1.0000
  C   C132      1.0  0.9395943608985959  0.42491967218456494  0.9063300855875412  1.0000
  C   C133      1.0  0.43975053843938355  0.5309050799788791  0.5867931450596657  1.0000
  C   C134      1.0  0.9089269914687818  0.05590393032023398  0.4691164949985875  1.0000
  C   C135      1.0  0.8531986056391926  0.4132095924802001  0.9441054357703751  1.0000
  C   C136      1.0  0.3188846737904426  0.40633143288388146  0.5155574154692389  1.0000
  C   C137      1.0  0.912618106888992  0.10922103650506898  0.593692786942647  1.0000
  C   C138      1.0  0.8034709920354145  0.48444419171329395  0.8907638976729545  1.0000
  C   C139      1.0  0.5952781619560097  0.44152745899574336  0.599921849854951  1.0000
  C   C140      1.0  0.15347623922485099  0.15841246820318128  0.5584836929730201  1.0000
  C   C141      1.0  0.9953270542954301  0.40006664949458337  0.8415984317670607  1.0000
  C   C142      1.0  0.6985236194244846  0.4244992514771441  0.6078847360908526  1.0000
  C   C143      1.0  0.2737523398558891  0.1833996008272649  0.5755195563434228  1.0000
  C   C144      1.0  0.09048327943381188  0.39211769573586247  0.8165993975780239  1.0000
  C   C145      1.0  0.4883923464621346  0.4653863488387913  0.6224223138073341  1.0000
  C   C146      1.0  0.02309894529338406  0.1570566871547356  0.5345908289278825  1.0000
  C   C147      1.0  0.8660357129934653  0.37755254611584377  0.8429552059493587  1.0000
  C   C148      1.0  0.8277253626494881  0.36344199739535554  0.5354328402917758  1.0000
  C   C149      1.0  0.4641420308447408  0.17199697774224626  0.6365651884277383  1.0000
  C   C150      1.0  0.29227914673835187  0.46457399893049  0.8280109883376738  1.0000
  C   C151      1.0  0.10081549603464168  0.3800063394143864  0.5932196555320105  1.0000
  C   C152      1.0  0.7205741750566688  0.21320286633214638  0.619998581695903  1.0000
  C   C153      1.0  0.5075018780099467  0.40678595471293016  0.7868003009720184  1.0000
  C   C154      1.0  0.20293787922007303  0.3661399654001515  0.604864958194881  1.0000
  C   C155      1.0  0.8366120529754751  0.23871201657215824  0.6338793124664477  1.0000
  C   C156      1.0  0.5980162911248994  0.3951307648534836  0.7612909470988499  1.0000
  C   C157      1.0  0.12345768859939442  0.3572367905130633  0.6229619025637306  1.0000
  C   C158      1.0  0.7661033496646396  0.2657203880895409  0.6427964819988503  1.0000
  C   C159      1.0  0.5004937753719358  0.37703867060246665  0.7342866028351481  1.0000
  C   C160      1.0  0.25077512720052647  0.3428255746841343  0.6335691000243386  1.0000
  C   C161      1.0  0.9079918050143616  0.2907271508584728  0.6571763681346782  1.0000
  C   C162      1.0  0.6173017125283592  0.3664310391541861  0.7092770392518518  1.0000
  C   C163      1.0  0.20593933286772156  0.39040380020650634  0.5758542371817725  1.0000
  C   C164      1.0  0.8153933455379986  0.1854439804626368  0.6095720920275769  1.0000
  C   C165      1.0  0.6300045471148579  0.4241418879716647  0.8145646640523482  1.0000
  O   O1        1.0  0.7626717867995934  0.6589959546659401  0.37307643338633056  1.0000
  O   O2        1.0  0.10391536378892824  0.7140650071038689  0.3409711105635153  1.0000
  O   O3        1.0  0.3895659014597398  0.6269481117872432  0.28596038414683983  1.0000
  O   O4        1.0  0.992070142197363  0.6605237220324582  0.34577853131921893  1.0000
  O   O5        1.0  0.33166380944912516  0.6852400745957965  0.3394779315504124  1.0000
  O   O6        1.0  0.6463795078307369  0.6542399480125384  0.31476506110096386  1.0000
  O   O7        1.0  0.33809697388158344  0.6408063757252123  0.3477217620379989  1.0000
  O   O8        1.0  0.6975887134536476  0.7069160202459627  0.3592125638190494  1.0000
  O   O9        1.0  0.9903398614053031  0.652276868192537  0.2930795997357549  1.0000
  O   O10       1.0  0.4169813958023595  0.3357253989266127  0.6240096759675353  1.0000
  O   O11       1.0  0.08128822877603872  0.2882606531255192  0.6642580664896515  1.0000
  O   O12       1.0  0.7930769826254505  0.37598728772038476  0.7117539158716539  1.0000
  O   O13       1.0  0.19016493085170072  0.3378827919843701  0.6532019086317717  1.0000
  O   O14       1.0  0.8523677518988746  0.3153046491812859  0.6621059695838271  1.0000
  O   O15       1.0  0.5370894258512634  0.34680535394758744  0.6846936861088865  1.0000
  O   O16       1.0  0.8421300429216527  0.35646841495276504  0.6487113965513205  1.0000
  O   O17       1.0  0.48566510127423596  0.2922425983843056  0.6435455388093062  1.0000
  O   O18       1.0  0.19343951346844773  0.35128582275287096  0.7077576941675546  1.0000
