data_image0
_chemical_formula_structural       Zn4H42C68N16O12
_chemical_formula_sum              "Zn4 H42 C68 N16 O12"
_cell_length_a       14.92542901591499
_cell_length_b       14.841049709266922
_cell_length_c       14.87334265760841
_cell_angle_alpha    102.39291315121334
_cell_angle_beta     113.06691473735503
_cell_angle_gamma    112.4296750590194

_space_group_name_H-M_alt    "P 1"
_space_group_IT_number       1

loop_
  _space_group_symop_operation_xyz
  'x, y, z'

loop_
  _atom_site_type_symbol
  _atom_site_label
  _atom_site_symmetry_multiplicity
  _atom_site_fract_x
  _atom_site_fract_y
  _atom_site_fract_z
  _atom_site_occupancy
  Zn  Zn1       1.0  0.11789383609986709  0.975421309526631  0.132836363290089  1.0000
  Zn  Zn2       1.0  0.8384565179992691  0.850936726810154  0.9817055443681042  1.0000
  Zn  Zn3       1.0  0.860119211475329  0.9983530725647327  0.8452743744588676  1.0000
  Zn  Zn4       1.0  0.1404734131563075  0.1407232392188149  0.011746839533941528  1.0000
  H   H1        1.0  0.5845936119276589  0.11720191465325773  0.9364105781221995  1.0000
  H   H2        1.0  0.784628094254174  0.4555765174103358  0.9756238755646509  1.0000
  H   H3        1.0  0.13889821719108397  0.27741184605540775  0.47824698058443  1.0000
  H   H4        1.0  0.8458879396835143  0.9616053810979535  0.341476384129571  1.0000
  H   H5        1.0  0.11735296139597297  0.6432540084587898  0.2667269904683991  1.0000
  H   H6        1.0  0.867486763153181  0.9923065544462799  0.5182173313545136  1.0000
  H   H7        1.0  0.12103440055582833  0.47762801532243765  0.25859043674244475  1.0000
  H   H8        1.0  0.3572639894574152  0.104641242086835  0.8188438104645854  1.0000
  H   H9        1.0  0.6477916029411117  0.40328571781921596  0.3743858867890141  1.0000
  H   H10       1.0  0.8043954102945748  0.5760596107853501  0.5349882877787522  1.0000
  H   H11       1.0  0.8386491324639068  0.07246004329983438  0.6526432144686185  1.0000
  H   H12       1.0  0.15767016744146634  0.3444635176885312  0.1660843346603968  1.0000
  H   H13       1.0  0.8502587697152963  0.6627120360006272  0.8565366788887587  1.0000
  H   H14       1.0  0.37415938669261106  0.149709344512118  0.378962278310631  1.0000
  H   H15       1.0  0.16707734508973004  0.019851106664774  0.8293422495021829  1.0000
  H   H16       1.0  0.5986449199706173  0.9671496144511805  0.7487727543400382  1.0000
  H   H17       1.0  0.19628266109284462  0.8325785482056107  0.014883726419341903  1.0000
  H   H18       1.0  0.5769802960102198  0.7661495968738948  0.9207043044971359  1.0000
  H   H19       1.0  0.204910724580273  0.2252037640505193  0.8361445748209563  1.0000
  H   H20       1.0  0.7911356039176457  0.13021707805241792  0.9723725318586462  1.0000
  H   H21       1.0  0.7744480737458376  0.6113797011642249  0.0011978943626333183  1.0000
  H   H22       1.0  0.16622303212463413  0.16497935133105557  0.3312986117132724  1.0000
  H   H23       1.0  0.2132636589939665  0.7211003091443047  0.8447538211190206  1.0000
  H   H24       1.0  0.16107247187977689  0.30854990174861996  0.6589629465447544  1.0000
  H   H25       1.0  0.354505570393144  0.7014113180587246  0.8120130069035201  1.0000
  H   H26       1.0  0.1920520920469571  0.9322669141555339  0.350159040770052  1.0000
  H   H27       1.0  0.4029268630487266  0.022313477267857703  0.4662745085530062  1.0000
  H   H28       1.0  0.5073329441171808  0.9567196437003814  0.40233428167790924  1.0000
  H   H29       1.0  0.4001528434340996  0.7961718764999545  0.2269306766858891  1.0000
  H   H30       1.0  0.18869059769259172  0.7025603328063782  0.11421396851588386  1.0000
  H   H31       1.0  0.7623679043537379  0.7940856495299543  0.142515053693316  1.0000
  H   H32       1.0  0.5599036596425293  0.6925610671928554  0.09013174071204598  1.0000
  H   H33       1.0  0.7878346805740007  0.2908982439367236  0.9679890140357159  1.0000
  H   H34       1.0  0.4493901168042811  0.7855548398099828  0.07368961959915062  1.0000
  H   H35       1.0  0.5430668026033417  0.9801019602575992  0.11178165428625432  1.0000
  H   H36       1.0  0.7465845768068959  0.08145784611730991  0.1675073572297805  1.0000
  H   H37       1.0  0.574811213900901  0.23169013054978643  0.7549525921468074  1.0000
  H   H38       1.0  0.491861889719587  0.30310042629614736  0.07111079513984467  1.0000
  H   H39       1.0  0.5358192630997465  0.6588444596464597  0.7261870583428376  1.0000
  H   H40       1.0  0.3219771852782856  0.3190363819535379  0.5684580872202575  1.0000
  H   H41       1.0  0.6923431473677724  0.8722008368851704  0.5384635456072006  1.0000
  H   H42       1.0  0.3303053516570599  0.37781996587946753  0.0554917524701182  1.0000
  C   C1        1.0  0.05335857310053881  0.7647548603407656  0.154917424744582  1.0000
  C   C2        1.0  0.4325178054554257  0.2829346398157285  0.32863472409701433  1.0000
  C   C3        1.0  0.9850410340796858  0.08495327007316429  0.29209344705406454  1.0000
  C   C4        1.0  0.1770090250541968  0.8124033650139139  0.22420390674868435  1.0000
  C   C5        1.0  0.23841049314093238  0.9033807714594743  0.32324579457304037  1.0000
  C   C6        1.0  0.3566380054426971  0.954254224499074  0.38774608361446633  1.0000
  C   C7        1.0  0.414866965651555  0.9161119288224878  0.3527904811666147  1.0000
  C   C8        1.0  0.35453249161288614  0.8257269775311327  0.25431885469842547  1.0000
  C   C9        1.0  0.2362575251111708  0.773553447181243  0.19072592005995403  1.0000
  C   C10       1.0  0.7670310613412566  0.9440216104749763  0.15714945440650033  1.0000
  C   C11       1.0  0.7134430031992662  0.8340597970676241  0.1346887061814215  1.0000
  C   C12       1.0  0.5999275288483403  0.777524326493456  0.10588241506599166  1.0000
  C   C13       1.0  0.7912251457941082  0.683079986332146  0.7024639981500373  1.0000
  C   C14       1.0  0.5385183450266239  0.8298673530048287  0.09770458566261903  1.0000
  C   C15       1.0  0.5909301687154241  0.9391102091646532  0.11923579214658285  1.0000
  C   C16       1.0  0.7049023345547241  0.9960089445799485  0.1496528592310043  1.0000
  C   C17       1.0  0.5154618272403084  0.1045781651280535  0.7752374569452627  1.0000
  C   C18       1.0  0.45627736067651625  0.1618398733030517  0.9923307998306754  1.0000
  C   C19       1.0  0.5885921841025521  0.5648889908030837  0.6932584934884432  1.0000
  C   C20       1.0  0.2043944938520638  0.9087624834159269  0.8997760610309272  1.0000
  C   C21       1.0  0.3989635308773671  0.3703724952906313  0.4982298635215514  1.0000
  C   C22       1.0  0.7504328884200221  0.7911099455833438  0.5944278466130514  1.0000
  C   C23       1.0  0.4032543792795807  0.3508692390431989  0.17621761332590327  1.0000
  C   C24       1.0  0.5397729184562793  0.8597652765128956  0.8249470565248559  1.0000
  C   C25       1.0  0.3534857247393219  0.9641281360143309  0.8532339453027831  1.0000
  C   C26       1.0  0.43333869405484654  0.9529675762777643  0.8340321341780027  1.0000
  C   C27       1.0  0.8878832464951358  0.0033284334218989997  0.19063110897961622  1.0000
  C   C28       1.0  0.2729983022420086  0.8850223088612452  0.8620974245244284  1.0000
  C   C29       1.0  0.4414579041606289  0.8608648793858225  0.8218650052484835  1.0000
  C   C30       1.0  0.2753423542132225  0.7886223074097316  0.8426426188523097  1.0000
  C   C31       1.0  0.35582948094030104  0.7771762014504733  0.8233544741770943  1.0000
  C   C32       1.0  0.5014868051678932  0.071127889269107  0.8599221294464883  1.0000
  C   C33       1.0  0.40644642036321704  0.08331083234035219  0.8780417604139501  1.0000
  C   C34       1.0  0.09220448912589771  0.2318711386686587  0.5892003445461428  1.0000
  C   C35       1.0  0.8600705425438164  0.36771506334429926  0.03504480926450536  1.0000
  C   C36       1.0  0.08018007920571077  0.21414693305268168  0.48774001595331384  1.0000
  C   C37       1.0  0.8584793170530177  0.4613102608444136  0.03898271342429641  1.0000
  C   C38       1.0  0.9920732495165295  0.11624238809714169  0.3960809333485642  1.0000
  C   C39       1.0  0.9534574901883558  0.563254393996722  0.11871466342606134  1.0000
  C   C40       1.0  0.9274591575623248  0.1064994079087924  0.7122206654982435  1.0000
  C   C41       1.0  0.07013968167300523  0.27795587157582696  0.11281454693842359  1.0000
  C   C42       1.0  0.9137778677615673  0.039069008333449104  0.40959359568589804  1.0000
  C   C43       1.0  0.023193766374106382  0.1572522634759039  0.7045673942512494  1.0000
  C   C44       1.0  0.045110909881657314  0.566092916794986  0.20033976044081214  1.0000
  C   C45       1.0  0.9256004739346437  0.0567887537928584  0.5096883285796067  1.0000
  C   C46       1.0  0.04693088510177995  0.4722397692882581  0.19595443758220912  1.0000
  C   C47       1.0  0.015853871246299864  0.15259748910236223  0.6024525261335045  1.0000
  C   C48       1.0  0.9568167322146979  0.3714088869667407  0.10992780767262646  1.0000
  C   C49       1.0  0.9682983907090801  0.27691508444990376  0.08703626720836874  1.0000
  C   C50       1.0  0.6361035751946815  0.4346924730389076  0.43950869193721337  1.0000
  C   C51       1.0  0.7242161041375185  0.5309241692675855  0.530144500392666  1.0000
  C   C52       1.0  0.7097802185612282  0.5734384141572945  0.613494813299532  1.0000
  C   C53       1.0  0.5296778789870729  0.3790690159544354  0.42802245274516787  1.0000
  C   C54       1.0  0.6048652940415806  0.5149805175279951  0.6056127553881439  1.0000
  C   C55       1.0  0.5145740004198416  0.4198014415843829  0.512652766189099  1.0000
  C   C56       1.0  0.8431043404991883  0.7124737327762459  0.8135286553829815  1.0000
  C   C57       1.0  0.362560829809496  0.18173950179362205  0.3188919429252834  1.0000
  C   C58       1.0  0.16703942207099937  0.980871919232662  0.8833427016748632  1.0000
  C   C59       1.0  0.611813848315684  0.9210635120282473  0.7950542895158322  1.0000
  C   C60       1.0  0.8028957632551866  0.7797856728917408  0.6942410988459856  1.0000
  C   C61       1.0  0.374470924456233  0.2766766806533525  0.22417368353983147  1.0000
  C   C62       1.0  0.17953266294149725  0.8834558590522762  0.976323620914208  1.0000
  C   C63       1.0  0.5975971071112552  0.8140189349313472  0.8781874335155777  1.0000
  C   C64       1.0  0.11427244829214799  0.18625826860264988  0.8061122267890823  1.0000
  C   C65       1.0  0.8831580396178039  0.1692616650677863  0.013227856918298638  1.0000
  C   C66       1.0  0.8650206542579966  0.670977898110273  0.04973421593947347  1.0000
  C   C67       1.0  0.0759386869424148  0.10724324373170188  0.2752040088225344  1.0000
  C   C68       1.0  0.9574970814676007  0.6609089133280079  0.11061380027960152  1.0000
  N   N1        1.0  0.018287390041720714  0.8296615144592752  0.12200918306194118  1.0000
  N   N2        1.0  0.2705539210523753  0.12084547208991839  0.217240478820699  1.0000
  N   N3        1.0  0.8809840480755611  0.817887994336175  0.8672758490426773  1.0000
  N   N4        1.0  0.12480191406204706  0.9976526360516399  0.9462313852001644  1.0000
  N   N5        1.0  0.7051018465438759  0.9133108950323885  0.8290599228086535  1.0000
  N   N6        1.0  0.8570062989544952  0.8590899484433764  0.7944084816651937  1.0000
  N   N7        1.0  0.2763737476006156  0.179548437744856  0.1598022957805227  1.0000
  N   N8        1.0  0.9215311058179197  0.9798257710930045  0.12134316389519759  1.0000
  N   N9        1.0  0.13337736296637107  0.9383123549225945  0.0038850257827719344  1.0000
  N   N10       1.0  0.6970251916496579  0.847410995791378  0.8812482449279102  1.0000
  N   N11       1.0  0.07454454973747458  0.1530393472726175  0.8675625692027752  1.0000
  N   N12       1.0  0.9311794656040462  0.11212154628313438  0.9949212345032947  1.0000
  N   N13       1.0  0.9022995006418172  0.7718069916975526  0.05698448972167835  1.0000
  N   N14       1.0  0.036610541117426  0.0426930918133195  0.1730432467330161  1.0000
  N   N15       1.0  0.9581000081304369  0.1029892465793552  0.8084903977638334  1.0000
  N   N16       1.0  0.04622939027474619  0.1796139789737268  0.056070982615949616  1.0000
  O   O1        1.0  0.4836601003919228  0.045108348540949784  0.6845725239828725  1.0000
  O   O2        1.0  0.5341844139582436  0.6180095318314471  0.6631045107667718  1.0000
  O   O3        1.0  0.31304647823594683  0.3541116323948684  0.4223095001074171  1.0000
  O   O4        1.0  0.3995674116818364  0.3467379186258199  0.5822568365240883  1.0000
  O   O5        1.0  0.6223556534117237  0.5616687444287436  0.7810520836909517  1.0000
  O   O6        1.0  0.7226133576510563  0.7327163518181409  0.5049478219679744  1.0000
  O   O7        1.0  0.7295545652726786  0.874008549416139  0.6102129003837008  1.0000
  O   O8        1.0  0.49843462585297277  0.4179561997706642  0.20081591298502852  1.0000
  O   O9        1.0  0.5698646043547838  0.2141233204129449  0.8133611386100555  1.0000
  O   O10       1.0  0.30612935397314806  0.33244538853455213  0.09014963206921328  1.0000
  O   O11       1.0  0.49941081895123324  0.1490152963553655  0.07328736566210384  1.0000
  O   O12       1.0  0.45133208690774046  0.25215112950836277  0.9946968738367519  1.0000
