data_image0
_chemical_formula_structural       K2Co2H6C6O12
_chemical_formula_sum              "K2 Co2 H6 C6 O12"
_cell_length_a       6.786029039626568
_cell_length_b       7.061972531407282
_cell_length_c       7.061984499161066
_cell_angle_alpha    79.69895334455933
_cell_angle_beta     86.4603769583217
_cell_angle_gamma    86.45700607386246

_space_group_name_H-M_alt    "P 1"
_space_group_IT_number       1

loop_
  _space_group_symop_operation_xyz
  'x, y, z'

loop_
  _atom_site_type_symbol
  _atom_site_label
  _atom_site_symmetry_multiplicity
  _atom_site_fract_x
  _atom_site_fract_y
  _atom_site_fract_z
  _atom_site_occupancy
  K   K1        1.0  0.249949055584807  0.8974127802695477  0.10247834955611522  1.0000
  K   K2        1.0  0.750038700194594  0.10259285995349644  0.8975183565285363  1.0000
  Co  Co1       1.0  0.49999856862499564  0.9999995875488422  0.5000020596627124  1.0000
  Co  Co2       1.0  9.813843818085531e-07  0.49999675569069524  1.1195410892113168e-06  1.0000
  H   H1        1.0  0.4858987895100598  0.43055294319325554  0.3264024456452718  1.0000
  H   H2        1.0  0.013984855338371524  0.6734753522223399  0.569524292894208  1.0000
  H   H3        1.0  0.5141041783362114  0.5694455450643474  0.6736002013228701  1.0000
  H   H4        1.0  0.9860138111520771  0.3265202423585336  0.43047348660529394  1.0000
  H   H5        1.0  0.24997196315576534  0.37915478962587196  0.6208755306458613  1.0000
  H   H6        1.0  0.7500280141922105  0.6208436932998254  0.3791216488919816  1.0000
  C   C1        1.0  0.36022423970429435  0.3752656702294388  0.2630226646967558  1.0000
  C   C2        1.0  0.13972901917559713  0.736931431354371  0.6246824140573893  1.0000
  C   C3        1.0  0.6397753533898298  0.6247400133421194  0.7369775065386079  1.0000
  C   C4        1.0  0.8602711233827023  0.26306416928028403  0.37531526768488294  1.0000
  C   C5        1.0  0.24999601567384389  0.2566034345497883  0.7434301035244816  1.0000
  C   C6        1.0  0.7500021935482408  0.7434008001285549  0.25657183230651975  1.0000
  O   O1        1.0  0.34131214551909034  0.19432849907062894  0.29602072157464937  1.0000
  O   O2        1.0  0.15861960640299344  0.7039574929427416  0.8056579441602666  1.0000
  O   O3        1.0  0.6586908223271807  0.805669989186974  0.7039819253934996  1.0000
  O   O4        1.0  0.8413789583010002  0.2960395461714853  0.19433675276463455  1.0000
  O   O5        1.0  0.24827386221022615  0.5011612298829888  0.1655474944516655  1.0000
  O   O6        1.0  0.2517904004749952  0.8344300075427568  0.49895394396818943  1.0000
  O   O7        1.0  0.7517322038007493  0.498834391578967  0.8344526277340523  1.0000
  O   O8        1.0  0.7482066977517974  0.1655670238237761  0.5010422664501418  1.0000
  O   O9        1.0  0.37747675393267605  0.1183671093519436  0.7376683972079905  1.0000
  O   O10       1.0  0.1224676082527267  0.262405482447818  0.8816001307805551  1.0000
  O   O11       1.0  0.6225217761194058  0.8816313624382346  0.2623331272956619  1.0000
  O   O12       1.0  0.8775351117780588  0.7375973292463488  0.1184017628809571  1.0000
