data_image0
_chemical_formula_structural       H48Pb4C32O12
_chemical_formula_sum              "H48 Pb4 C32 O12"
_cell_length_a       10.065129988117453
_cell_length_b       10.362746128042907
_cell_length_c       10.556247491597174
_cell_angle_alpha    89.99975458167164
_cell_angle_beta     106.77056968024408
_cell_angle_gamma    90.00028352649002

_space_group_name_H-M_alt    "P 1"
_space_group_IT_number       1

loop_
  _space_group_symop_operation_xyz
  'x, y, z'

loop_
  _atom_site_type_symbol
  _atom_site_label
  _atom_site_symmetry_multiplicity
  _atom_site_fract_x
  _atom_site_fract_y
  _atom_site_fract_z
  _atom_site_occupancy
  H   H1        1.0  0.731839558752803  0.9079674267725009  0.9950403072074462  1.0000
  H   H2        1.0  0.768158003175266  0.4079727368719545  0.5049575878959656  1.0000
  H   H3        1.0  0.26815943272080744  0.09202450865751641  0.004962620154195517  1.0000
  H   H4        1.0  0.2318388935243334  0.592027883521105  0.4950400337567728  1.0000
  H   H5        1.0  0.903129454204013  0.9750708964846592  0.022962276649046508  1.0000
  H   H6        1.0  0.5968668803647859  0.47507332202462743  0.4770381372495505  1.0000
  H   H7        1.0  0.09687159308338518  0.024912354002872  0.9770364727064516  1.0000
  H   H8        1.0  0.4031289942550557  0.5249234383776199  0.522962995976158  1.0000
  H   H9        1.0  0.871799802853687  0.850936500447041  0.13140116320550987  1.0000
  H   H10       1.0  0.6281970461932858  0.3509405147399108  0.3685970700819395  1.0000
  H   H11       1.0  0.12819609903632306  0.14905929494565132  0.8686066086222153  1.0000
  H   H12       1.0  0.37180397386966035  0.6490658956461673  0.6313950406373434  1.0000
  H   H13       1.0  0.047138264015593706  0.1299137606182512  0.34872193878022967  1.0000
  H   H14       1.0  0.4528591651146527  0.6299187375643385  0.15127652294717103  1.0000
  H   H15       1.0  0.9528741040337889  0.8700945798140082  0.6512571507294918  1.0000
  H   H16       1.0  0.5471316186580992  0.3700934626998277  0.8487469099473584  1.0000
  H   H17       1.0  0.9389499522682315  0.2675319401752816  0.3546363083823748  1.0000
  H   H18       1.0  0.5610465531162562  0.7675379392714774  0.1453621819579637  1.0000
  H   H19       1.0  0.061063469015174086  0.7324735052651407  0.6453468565368252  1.0000
  H   H20       1.0  0.4389369553771588  0.23247426098554058  0.8546564323890562  1.0000
  H   H21       1.0  0.935706831207888  0.1269425306448397  0.4556484719211438  1.0000
  H   H22       1.0  0.5642922078478065  0.6269480200820681  0.04435129747874805  1.0000
  H   H23       1.0  0.0643138575628086  0.8730629148068229  0.5443376148025507  1.0000
  H   H24       1.0  0.4356902474076065  0.37306514517644024  0.9556632414617705  1.0000
  H   H25       1.0  0.5381737670393888  0.19924239670043417  0.22780434119394488  1.0000
  H   H26       1.0  0.9618235024124004  0.6992507508112878  0.27219653827567913  1.0000
  H   H27       1.0  0.4618397477386296  0.8007582237148088  0.7722015846487975  1.0000
  H   H28       1.0  0.03816508916786889  0.30076144951070205  0.7277978796357157  1.0000
  H   H29       1.0  0.513902605241384  0.15815900530029128  0.05688553370609373  1.0000
  H   H30       1.0  0.9860944910319134  0.6581676981561059  0.4431145240120385  1.0000
  H   H31       1.0  0.4861036381612749  0.8418454750864512  0.9431165219546923  1.0000
  H   H32       1.0  0.013901364147578497  0.3418483621598797  0.5568818673264033  1.0000
  H   H33       1.0  0.5050830878567467  0.033986042309806  0.17528909380934715  1.0000
  H   H34       1.0  0.994911429246116  0.5339952931992116  0.32471267951861865  1.0000
  H   H35       1.0  0.4949304191292256  0.9660145781095437  0.8247149352903874  1.0000
  H   H36       1.0  0.005078211678117799  0.4660169071185153  0.6752848654262917  1.0000
  H   H37       1.0  0.8180947094107438  0.34817630579018294  0.7926924733051235  1.0000
  H   H38       1.0  0.681903624309342  0.8481739359767388  0.707301146150051  1.0000
  H   H39       1.0  0.1819042664867325  0.6518194896287425  0.20730666056454786  1.0000
  H   H40       1.0  0.3180953438020424  0.15182475443182852  0.2926960909721571  1.0000
  H   H41       1.0  0.8213333387753111  0.5955935713847822  0.6938131611955425  1.0000
  H   H42       1.0  0.678662916527827  0.09559134688562658  0.8061809548097681  1.0000
  H   H43       1.0  0.1786646228483662  0.4044051190054462  0.30619138097970466  1.0000
  H   H44       1.0  0.3213339490055703  0.9044102385190343  0.19380907986944604  1.0000
  H   H45       1.0  0.8191826821886251  0.7524482500237469  0.9036703172123238  1.0000
  H   H46       1.0  0.6808163064264079  0.2524440542858527  0.5963267243165971  1.0000
  H   H47       1.0  0.18081529890721273  0.24754658037551278  0.09633896682639426  1.0000
  H   H48       1.0  0.3191826188207756  0.7475507761646084  0.40366008072500376  1.0000
  Pb  Pb1       1.0  0.7771939725544569  0.08547300408687869  0.19826426628252133  1.0000
  Pb  Pb2       1.0  0.7228049073123656  0.5854771764471565  0.3017384760445408  1.0000
  Pb  Pb3       1.0  0.2228153682258309  0.9145285813282626  0.8017348416537114  1.0000
  Pb  Pb4       1.0  0.27719099070548486  0.41453019888966475  0.6982683473938349  1.0000
  C   C1        1.0  0.8286221959074568  0.934102709612972  0.06949096685173824  1.0000
  C   C2        1.0  0.6713749919298097  0.43410762868591496  0.4305060617414681  1.0000
  C   C3        1.0  0.17137885528988048  0.0658872958387136  0.9305087308648576  1.0000
  C   C4        1.0  0.3286229463256802  0.5658949216973354  0.5694927901988007  1.0000
  C   C5        1.0  0.9491345077461587  0.16267171164749067  0.3627454515663542  1.0000
  C   C6        1.0  0.5508615616701037  0.6626786616806443  0.13725241358412885  1.0000
  C   C7        1.0  0.0508768460135229  0.8373318037946686  0.6372390462608307  1.0000
  C   C8        1.0  0.4491281610686215  0.337332573598772  0.8627650471638614  1.0000
  C   C9        1.0  0.5522786454047406  0.12513577564848077  0.1592675983789106  1.0000
  C   C10       1.0  0.9477172810397432  0.6251456931188742  0.34073322756865543  1.0000
  C   C11       1.0  0.4477338278213594  0.8748648447669184  0.8407370971733312  1.0000
  C   C12       1.0  0.0522733897523153  0.37486843719521096  0.659262702549263  1.0000
  C   C13       1.0  0.7903935154603587  0.35520491406932553  0.06636326146021072  1.0000
  C   C14       1.0  0.7096054342654341  0.8552026584530666  0.4336374192624957  1.0000
  C   C15       1.0  0.20960755132702502  0.6447879863596738  0.933640229737939  1.0000
  C   C16       1.0  0.29039562862394763  0.1447892769828059  0.5663651235656386  1.0000
  C   C17       1.0  0.8064546930992406  0.4515973212107198  0.9692180240089169  1.0000
  C   C18       1.0  0.6935461342862014  0.9515957760719115  0.5307739437925745  1.0000
  C   C19       1.0  0.1935453204461695  0.548394614229423  0.030781391785708885  1.0000
  C   C20       1.0  0.3064580065086417  0.0483971243833281  0.4692209094475358  1.0000
  C   C21       1.0  0.8146179728684971  0.439298754291478  0.8420196994433763  1.0000
  C   C22       1.0  0.6853807519061021  0.9392975809918838  0.6579774326532115  1.0000
  C   C23       1.0  0.18538412378870822  0.5606970411290462  0.15798217692631056  1.0000
  C   C24       1.0  0.31462029931110885  0.060702074411544515  0.34202226504851996  1.0000
  C   C25       1.0  0.818171124081566  0.5666705152467343  0.7917559891447751  1.0000
  C   C26       1.0  0.6818270795654371  0.0666687323376607  0.7082368830967735  1.0000
  C   C27       1.0  0.18182475833032188  0.4333262451513987  0.20824704082394152  1.0000
  C   C28       1.0  0.3181708236178906  0.9333299580833769  0.2917534335058959  1.0000
  C   C29       1.0  0.8140370306249878  0.6485877618449792  0.892252792302045  1.0000
  C   C30       1.0  0.6859615183591002  0.14858933132593674  0.607741724205354  1.0000
  C   C31       1.0  0.18595990501496118  0.3514032085757961  0.10775431308061195  1.0000
  C   C32       1.0  0.31404052765576307  0.8514093591068175  0.39224782333030817  1.0000
  O   O1        1.0  0.8053821904851973  0.23721312741862016  0.03561253154320804  1.0000
  O   O2        1.0  0.6946152470879099  0.737209700336514  0.4643910760318801  1.0000
  O   O3        1.0  0.1946188607220734  0.7627817030089402  0.9643871661659487  1.0000
  O   O4        1.0  0.30538584697163873  0.2627832000781041  0.5356190537668082  1.0000
  O   O5        1.0  0.7388004990923845  0.8894438797062206  0.32942639277669605  1.0000
  O   O6        1.0  0.7612027228737616  0.389449400313481  0.17057056822673636  1.0000
  O   O7        1.0  0.2612067663522524  0.11054612576302963  0.6705721513393781  1.0000
  O   O8        1.0  0.23879729457562607  0.6105463951052954  0.8294297959334427  1.0000
  O   O9        1.0  0.805806596587466  0.5808335107697431  0.0007381101875623422  1.0000
  O   O10       1.0  0.6941964030851793  0.08083148621645359  0.49926292900961744  1.0000
  O   O11       1.0  0.19419344812414613  0.41915745965878415  0.9992688925805876  1.0000
  O   O12       1.0  0.30580877146954316  0.9191614142427367  0.5007312577779783  1.0000
