data_image0
_chemical_formula_structural       La2H28C28N18O22
_chemical_formula_sum              "La2 H28 C28 N18 O22"
_cell_length_a       7.495196826106915
_cell_length_b       9.107202132358704
_cell_length_c       15.155633866007419
_cell_angle_alpha    89.99989309972658
_cell_angle_beta     90.00006320048286
_cell_angle_gamma    104.34434956267431

_space_group_name_H-M_alt    "P 1"
_space_group_IT_number       1

loop_
  _space_group_symop_operation_xyz
  'x, y, z'

loop_
  _atom_site_type_symbol
  _atom_site_label
  _atom_site_symmetry_multiplicity
  _atom_site_fract_x
  _atom_site_fract_y
  _atom_site_fract_z
  _atom_site_occupancy
  La  La1       1.0  0.6128171615076496  0.13792538852321462  0.7500003946130036  1.0000
  La  La2       1.0  0.3871813938847596  0.8620736461379509  0.24999972481467844  1.0000
  H   H1        1.0  0.7427009745032295  0.7807396899640509  0.4285314968141663  1.0000
  H   H2        1.0  0.2573021680493781  0.21925997210639284  0.9285318802680749  1.0000
  H   H3        1.0  0.2572995978531267  0.21926161122723192  0.57146730297152  1.0000
  H   H4        1.0  0.7426990555959421  0.7807390621499197  0.0714675793396964  1.0000
  H   H5        1.0  0.8093415148449665  0.06422824093416321  0.5071356890378027  1.0000
  H   H6        1.0  0.19065903632642997  0.9357703474032774  0.0071348287727062  1.0000
  H   H7        1.0  0.1906570405474498  0.9357707937270026  0.4928644303898793  1.0000
  H   H8        1.0  0.8093421873193379  0.06422868685209694  0.9928652906557078  1.0000
  H   H9        1.0  0.9626843847677479  0.11387027114491842  0.4154417489930467  1.0000
  H   H10       1.0  0.0373124107269832  0.8861305623583536  0.9154412648299228  1.0000
  H   H11       1.0  0.03731283649753448  0.8861287637200805  0.5845577106136304  1.0000
  H   H12       1.0  0.9626854933769167  0.11387073923685159  0.08455885459630252  1.0000
  H   H13       1.0  0.9297396291947635  0.32733305408190466  0.32882366622804693  1.0000
  H   H14       1.0  0.07025468984397787  0.6726646247082473  0.8288221195649186  1.0000
  H   H15       1.0  0.07025759207097347  0.6726659807821564  0.6711764531992658  1.0000
  H   H16       1.0  0.9297395217488714  0.3273332771969778  0.17117734004155952  1.0000
  H   H17       1.0  0.6220117714930423  0.7738258358373431  0.5892255052532391  1.0000
  H   H18       1.0  0.3779909085430119  0.2261747866645508  0.0892262023373789  1.0000
  H   H19       1.0  0.37798845944513465  0.2261743319864992  0.4107746141742652  1.0000
  H   H20       1.0  0.6220106565218373  0.7738253809563959  0.9107739170904949  1.0000
  H   H21       1.0  0.5811647754054832  0.45844714393529545  0.6967355256657584  1.0000
  H   H22       1.0  0.4188340487995461  0.5415531748612494  0.19673523218689581  1.0000
  H   H23       1.0  0.41883412140646215  0.5415530240905115  0.303265253582012  1.0000
  H   H24       1.0  0.5811648480119516  0.458446993165488  0.8032648872402461  1.0000
  H   H25       1.0  0.008667860962219697  0.3591956859673502  0.8015248385745792  1.0000
  H   H26       1.0  0.9913311060844239  0.6408043362137053  0.30152540820521523  1.0000
  H   H27       1.0  0.991331035849278  0.6408044820593876  0.1984752808525627  1.0000
  H   H28       1.0  0.008667449308440245  0.3591946984465297  0.6984753710431022  1.0000
  C   C1        1.0  0.6799615519277398  0.03152180232788742  0.3787246784433478  1.0000
  C   C2        1.0  0.32003817163938914  0.9684757344013378  0.8787235975256992  1.0000
  C   C3        1.0  0.3200403545561912  0.968479498658631  0.6212754409839789  1.0000
  C   C4        1.0  0.6799627105868497  0.03152216648939541  0.1212758620826193  1.0000
  C   C5        1.0  0.8278491215393232  0.11818979226136864  0.4419255902964849  1.0000
  C   C6        1.0  0.17215003688965433  0.8818098325077205  0.9419238653868265  1.0000
  C   C7        1.0  0.1721514508188308  0.8818115089261697  0.5580758487717504  1.0000
  C   C8        1.0  0.8278488599213957  0.11819033551994815  0.05807559421967309  1.0000
  C   C9        1.0  0.8699396024274364  0.37376004979156363  0.3845441570105024  1.0000
  C   C10       1.0  0.13005848507645376  0.626240870967287  0.8845433550026485  1.0000
  C   C11       1.0  0.13005997722176948  0.6262423849672488  0.61545530259491  1.0000
  C   C12       1.0  0.869938736189283  0.373758163896774  0.11545676442466402  1.0000
  C   C13       1.0  0.7445865360940046  0.3155518466109727  0.5331001324412841  1.0000
  C   C14       1.0  0.2554137090513322  0.6844455348660716  0.03309958918659821  1.0000
  C   C15       1.0  0.2554146875522179  0.6844471876434641  0.4669006468077654  1.0000
  C   C16       1.0  0.7445858390482273  0.31555236622755717  0.9668998704213507  1.0000
  C   C17       1.0  0.7291975937078449  0.46785263004252214  0.5324125098340461  1.0000
  C   C18       1.0  0.2708060015909198  0.5321470197078569  0.0324108259435434  1.0000
  C   C19       1.0  0.2708043127765408  0.5321486709430517  0.4675882694139162  1.0000
  C   C20       1.0  0.7291968975992588  0.4678531477129938  0.9675873140227865  1.0000
  C   C21       1.0  0.7819364474079293  0.5574050994681061  0.45713485727722514  1.0000
  C   C22       1.0  0.2180654000064521  0.4425944818443882  0.957132989618728  1.0000
  C   C23       1.0  0.218062449404016  0.4425950685576937  0.5428659219705523  1.0000
  C   C24       1.0  0.7819371577650996  0.5574045522099595  0.0428658101687773  1.0000
  C   C25       1.0  0.6694094857825093  0.6824504869881952  0.5581796887945103  1.0000
  C   C26       1.0  0.3305914763883422  0.3175490902287948  0.0581802575198296  1.0000
  C   C27       1.0  0.3305880769018614  0.3175496812423689  0.4418197708116196  1.0000
  C   C28       1.0  0.6694087545502824  0.6824510775941166  0.9418205217283102  1.0000
  N   N1        1.0  0.818679174386041  0.2756115261141971  0.45355813747416124  1.0000
  N   N2        1.0  0.1813213340268122  0.7243880655239823  0.9535572537103293  1.0000
  N   N3        1.0  0.18132040526361962  0.7243909086436776  0.546441981951894  1.0000
  N   N4        1.0  0.8186798896189629  0.2756109687313924  0.0464428657180775  1.0000
  N   N5        1.0  0.8563866988029148  0.5147898516748984  0.382980299411699  1.0000
  N   N6        1.0  0.14361138656890665  0.4852110735112733  0.8829790029588054  1.0000
  N   N7        1.0  0.1436115467205141  0.4852125832849411  0.617020479834629  1.0000
  N   N8        1.0  0.856386176115464  0.5147890947192977  0.1170204566473245  1.0000
  N   N9        1.0  0.7436689915970263  0.6936646782311089  0.4748469956678392  1.0000
  N   N10       1.0  0.25633387267028945  0.30633371937429393  0.9748472810799741  1.0000
  N   N11       1.0  0.256330897921167  0.30633435622903  0.5251518041189271  1.0000
  N   N12       1.0  0.7436670095564039  0.6936641815155086  0.025152838348979908  1.0000
  N   N13       1.0  0.6599959232912553  0.5484456489735337  0.595284114974099  1.0000
  N   N14       1.0  0.3400054308761327  0.451554956583209  0.09528387898357239  1.0000
  N   N15       1.0  0.3400033149393238  0.4515556524187688  0.4047160044525029  1.0000
  N   N16       1.0  0.6599951414811186  0.5484463446061981  0.904716240443392  1.0000
  N   N17       1.0  0.8900747430462204  0.9327330432201537  0.7500000257210289  1.0000
  N   N18       1.0  0.1099261707301196  0.06726939133482551  0.2500000937053954  1.0000
  O   O1        1.0  0.6861886112260012  0.8967287289869932  0.35844724769079056  1.0000
  O   O2        1.0  0.3138127602473091  0.10326999829943873  0.8584477920733278  1.0000
  O   O3        1.0  0.3138102855854966  0.10327143903974453  0.6415528717363514  1.0000
  O   O4        1.0  0.6861884633989136  0.8967290359549978  0.1415529871757215  1.0000
  O   O5        1.0  0.5602151072938639  0.09395962497145405  0.3482567328387774  1.0000
  O   O6        1.0  0.43978556745021563  0.9060368644291261  0.848257107252998  1.0000
  O   O7        1.0  0.43978611635191106  0.9060394092839207  0.6517433865896367  1.0000
  O   O8        1.0  0.5602149733573966  0.09395990309510441  0.151743012176496  1.0000
  O   O9        1.0  0.6993561886825717  0.21972705757330158  0.5933325603945862  1.0000
  O   O10       1.0  0.3006458456624941  0.7802758202391618  0.09333193467022483  1.0000
  O   O11       1.0  0.300643390967089  0.7802753771845732  0.4066675590314759  1.0000
  O   O12       1.0  0.6993564022400703  0.21972661411386  0.9066675249359264  1.0000
  O   O13       1.0  0.8371476326757374  0.9809205052858305  0.6779502098666655  1.0000
  O   O14       1.0  0.16284949037709145  0.01907873352070061  0.1779503608837985  1.0000
  O   O15       1.0  0.16284825446332007  0.019078529781126008  0.32204990956027757  1.0000
  O   O16       1.0  0.8371494064344064  0.9809214345060371  0.8220497585433364  1.0000
  O   O17       1.0  0.9892270035241638  0.840786470996328  0.7500001044330348  1.0000
  O   O18       1.0  0.010773910252169127  0.15921596355865128  0.25000001499338964  1.0000
  O   O19       1.0  0.9356145698274149  0.30957317927140354  0.7499997273284507  1.0000
  O   O20       1.0  0.06438432698408299  0.6904269887553343  0.2500003920986842  1.0000
  O   O21       1.0  0.5441876928133669  0.39262833773499767  0.7500002331519157  1.0000
  O   O22       1.0  0.455811203998131  0.6073718302917399  0.2499998862752193  1.0000
