data_image0
_chemical_formula_structural       Mn9H66C66N12O48
_chemical_formula_sum              "Mn9 H66 C66 N12 O48"
_cell_length_a       13.690296942047999
_cell_length_b       15.396327461258085
_cell_length_c       15.396931971054201
_cell_angle_alpha    111.5868047942262
_cell_angle_beta     107.25340851431736
_cell_angle_gamma    107.23388679129634

_space_group_name_H-M_alt    "P 1"
_space_group_IT_number       1

loop_
  _space_group_symop_operation_xyz
  'x, y, z'

loop_
  _atom_site_type_symbol
  _atom_site_label
  _atom_site_symmetry_multiplicity
  _atom_site_fract_x
  _atom_site_fract_y
  _atom_site_fract_z
  _atom_site_occupancy
  Mn  Mn1       1.0  0.2761945750529905  0.760111670727703  0.4868490421245681  1.0000
  Mn  Mn2       1.0  0.7893754906377025  0.5133341918716924  0.27328255314446187  1.0000
  Mn  Mn3       1.0  0.5159768214843227  0.7266794486769897  0.23990860397623953  1.0000
  Mn  Mn4       1.0  0.7238060996975548  0.23989096773244972  0.5131547221816745  1.0000
  Mn  Mn5       1.0  0.21063144753711074  0.48666844806041365  0.7267125337844932  1.0000
  Mn  Mn6       1.0  0.4840206860893517  0.2733169088042687  0.7600939618687121  1.0000
  Mn  Mn7       1.0  0.5000006142059944  0.4999934681291408  0.4999994326328406  1.0000
  Mn  Mn8       1.0  1.8052078019884992e-06  0.5000036615632554  9.89414140000197e-07  1.0000
  Mn  Mn9       1.0  5.9476608314014e-06  7.549420643999988e-07  0.5000050668251887  1.0000
  H   H1        1.0  0.9258767866151559  0.7894519448049666  0.7174180077449394  1.0000
  H   H2        1.0  0.2084746858149984  0.2820826938251173  0.07183649171494014  1.0000
  H   H3        1.0  0.13654418120803782  0.928164625400811  0.2105418412874442  1.0000
  H   H4        1.0  0.07412221924435163  0.21055619166367026  0.2825749546111282  1.0000
  H   H5        1.0  0.7915175317592045  0.7179136647778465  0.9281600798264334  1.0000
  H   H6        1.0  0.8634577345275644  0.07184036910055623  0.7894585713143485  1.0000
  H   H7        1.0  0.019413791081774483  0.5400067974856598  0.6116109177257415  1.0000
  H   H8        1.0  0.40775097095987445  0.38855307326989685  0.9284210148214955  1.0000
  H   H9        1.0  0.4793894905952669  0.07155835424211433  0.4600088842989223  1.0000
  H   H10       1.0  0.9805811104611665  0.45999505586941336  0.38839292984824436  1.0000
  H   H11       1.0  0.5922470741954271  0.6114291517546705  0.07157981552151679  1.0000
  H   H12       1.0  0.5206144984811162  0.9284372176355833  0.5399958200716454  1.0000
  H   H13       1.0  0.1142074394880624  0.917248724273158  0.751081729143479  1.0000
  H   H14       1.0  0.3633338757642548  0.24856258462065745  0.1660049698087107  1.0000
  H   H15       1.0  0.1970100986926156  0.8340302969168223  0.08267657557727406  1.0000
  H   H16       1.0  0.8857937658897014  0.08275627096218593  0.24891459212715006  1.0000
  H   H17       1.0  0.6366552220521768  0.7514290635518112  0.8339890378071004  1.0000
  H   H18       1.0  0.8029957176660645  0.16597783822437154  0.9173234467401272  1.0000
  H   H19       1.0  0.2533144822644148  0.8567140390412009  0.712433568313557  1.0000
  H   H20       1.0  0.541263612800222  0.2877459895784896  0.14436053734334559  1.0000
  H   H21       1.0  0.39661483960744454  0.8557205830578881  0.14320213035806978  1.0000
  H   H22       1.0  0.7466884324149277  0.14328859859399054  0.2875747059811786  1.0000
  H   H23       1.0  0.4587340823329813  0.7122401607497442  0.8556429211785713  1.0000
  H   H24       1.0  0.6033901150648261  0.14428284105732564  0.856798544021423  1.0000
  H   H25       1.0  0.8072865689973624  0.6121717224266306  0.6565528934947905  1.0000
  H   H26       1.0  0.15067780356145735  0.3433387590871889  0.9557564655347194  1.0000
  H   H27       1.0  0.1950882031293517  0.044445654181956215  0.3878137243017293  1.0000
  H   H28       1.0  0.19270771496321973  0.38783170278453843  0.34344226228169117  1.0000
  H   H29       1.0  0.8493270995662526  0.6566599545302836  0.04424183523347118  1.0000
  H   H30       1.0  0.8049156709576978  0.9555601257667307  0.6121849113885531  1.0000
  H   H31       1.0  0.30851192236828234  0.7503693255377115  0.3132742569770314  1.0000
  H   H32       1.0  0.9954508150707683  0.6866733551884112  0.43704309567204574  1.0000
  H   H33       1.0  0.5581542685525562  0.5629335528300177  0.24960454770980078  1.0000
  H   H34       1.0  0.6914784469521251  0.24963409875349651  0.6867263221602542  1.0000
  H   H35       1.0  0.004552149910779267  0.3133261431859041  0.562957557544614  1.0000
  H   H36       1.0  0.4418479176264043  0.43706908530965194  0.750400929254603  1.0000
  H   H37       1.0  0.07911068146933088  0.5729555943553353  0.30805921570771494  1.0000
  H   H38       1.0  0.7710982799721933  0.6921152866288623  0.26485731764025633  1.0000
  H   H39       1.0  0.5061679956456118  0.7350592382582308  0.4271430897964024  1.0000
  H   H40       1.0  0.9208924228864176  0.4270533254734518  0.6919435967298996  1.0000
  H   H41       1.0  0.22889755170189827  0.30788813872080584  0.7351369627927368  1.0000
  H   H42       1.0  0.4938331998405089  0.26495203664630645  0.5728620036262342  1.0000
  H   H43       1.0  0.6508580523409293  0.6625366200505239  0.6591734346192268  1.0000
  H   H44       1.0  0.9915488337669062  0.3408683528752051  0.003498778201049031  1.0000
  H   H45       1.0  0.9881792406477673  0.9966578488731843  0.337438546093786  1.0000
  H   H46       1.0  0.34914207739744546  0.337467591183696  0.3408164618861846  1.0000
  H   H47       1.0  0.008458607000939554  0.6591429232717874  0.9964989318451316  1.0000
  H   H48       1.0  0.011817897518902502  0.0033345839236318007  0.6625579472415168  1.0000
  H   H49       1.0  0.16241820409369015  0.5383674973354148  0.3634016512512943  1.0000
  H   H50       1.0  0.7993188103855575  0.6369330682453698  0.17508590147079428  1.0000
  H   H51       1.0  0.6239945342065597  0.824856886551011  0.4615796102160985  1.0000
  H   H52       1.0  0.8375801470238429  0.46163357094232554  0.6366015565323905  1.0000
  H   H53       1.0  0.20068733991539744  0.36307271133733127  0.8249146562063245  1.0000
  H   H54       1.0  0.37600476848976433  0.17515517368410374  0.5384246006529382  1.0000
  H   H55       1.0  0.6573774600023581  0.5904044746026075  0.7080738763827413  1.0000
  H   H56       1.0  0.9491890786799005  0.2920073723833029  0.8825234262951939  1.0000
  H   H57       1.0  0.06671585376021481  0.11764539328233073  0.4095374237641566  1.0000
  H   H58       1.0  0.3426210543981155  0.40959659574055973  0.2919176853934857  1.0000
  H   H59       1.0  0.05080782450813367  0.7079936970181464  0.11747353982742227  1.0000
  H   H60       1.0  0.9332745254518359  0.8823517513396769  0.5904543832211289  1.0000
  H   H61       1.0  0.33027950337437784  0.867416599969964  0.37960848841964173  1.0000
  H   H62       1.0  0.9507363896792569  0.6203562890832971  0.48777222905619766  1.0000
  H   H63       1.0  0.4627456875055885  0.5121920684758622  0.13256648246677827  1.0000
  H   H64       1.0  0.6697231198359715  0.13259310360670903  0.6204022711270979  1.0000
  H   H65       1.0  0.04927012384052897  0.3796487052598324  0.5122287925171918  1.0000
  H   H66       1.0  0.5372562030789183  0.4878144956559397  0.8674377406740491  1.0000
  C   C1        1.0  0.22984343343074465  0.6607422567575373  0.6380100682117629  1.0000
  C   C2        1.0  0.5919471100884124  0.3621281015404706  0.02276498934605088  1.0000
  C   C3        1.0  0.5690197066355581  0.97714475334368  0.3392826234848698  1.0000
  C   C4        1.0  0.7701528785142387  0.33925174525623464  0.36199261433556995  1.0000
  C   C5        1.0  0.40805614842485477  0.6378659008670341  0.977235048156395  1.0000
  C   C6        1.0  0.4309812748434396  0.02285552921375  0.6607236171823274  1.0000
  C   C7        1.0  0.14604052354776098  0.6947843908465218  0.6594798889577405  1.0000
  C   C8        1.0  0.4866774599965423  0.34064915088831077  0.03533434948653278  1.0000
  C   C9        1.0  0.4512100823475367  0.9646061190352174  0.3052277180526631  1.0000
  C   C10       1.0  0.8539669142828431  0.305216675737789  0.34053230077411467  1.0000
  C   C11       1.0  0.5133235425080968  0.6593464220893496  0.964664341566042  1.0000
  C   C12       1.0  0.5487928442861829  0.035391808905444605  0.6947736536278554  1.0000
  C   C13       1.0  0.4452782261640422  0.6811387315343183  0.5509103690462139  1.0000
  C   C14       1.0  0.8945140704410904  0.4491297392096742  0.13034248041903862  1.0000
  C   C15       1.0  0.76410524269064  0.8696312804315981  0.3188991610397877  1.0000
  C   C16       1.0  0.5547190130290005  0.3188615522833161  0.4490890019739099  1.0000
  C   C17       1.0  0.10549260472090088  0.5508878167667605  0.8696631454500617  1.0000
  C   C18       1.0  0.235894536971486  0.13036193673433163  0.6811015877164054  1.0000
  C   C19       1.0  0.3660645112496682  0.6544248649001291  0.5945270650279255  1.0000
  C   C20       1.0  0.7716504148909209  0.4054403675995888  0.05997924228677228  1.0000
  C   C21       1.0  0.7115869218348152  0.9399784123235836  0.3456274560809263  1.0000
  C   C22       1.0  0.6339215847355675  0.3455620743335361  0.4054559676569269  1.0000
  C   C23       1.0  0.22835104691310454  0.5945654109939015  0.9400271764228948  1.0000
  C   C24       1.0  0.28841253501902736  0.06001873049024912  0.6543739798529347  1.0000
  C   C25       1.0  0.9875506324952141  0.7632048988477536  0.701244230236597  1.0000
  C   C26       1.0  0.28632504410083465  0.2983951875484721  0.0617880350571767  1.0000
  C   C27       1.0  0.2244357386939413  0.9382011242737106  0.2367544783546051  1.0000
  C   C28       1.0  0.012453956075127325  0.2368040203163134  0.2987622358604298  1.0000
  C   C29       1.0  0.713665218005019  0.7015956757979043  0.9382040577819096  1.0000
  C   C30       1.0  0.7755751083548502  0.061810936196891916  0.7632476964411338  1.0000
  C   C31       1.0  0.040639280765866294  0.6226818707040424  0.6412471186918652  1.0000
  C   C32       1.0  0.3994159281318304  0.35887280398594623  0.9814796199576037  1.0000
  C   C33       1.0  0.4179118396689745  0.018520895675031603  0.37732055066755515  1.0000
  C   C34       1.0  0.9593621991807098  0.37732390811894595  0.35875800601697705  1.0000
  C   C35       1.0  0.600576117908517  0.641117272652906  0.018521119440052233  1.0000
  C   C36       1.0  0.5820866878740817  0.9814683953602671  0.622682327255717  1.0000
  C   C37       1.0  0.9615231038927448  0.6568859675713202  0.6616617973972508  1.0000
  C   C38       1.0  0.2998499183689205  0.3382431169756829  0.9952319874919124  1.0000
  C   C39       1.0  0.3046337961708758  0.004855551693658801  0.34307016683165154  1.0000
  C   C40       1.0  0.038471996397866866  0.34312216809209434  0.33833594131920824  1.0000
  C   C41       1.0  0.7001437549636975  0.6617453908597144  0.004760184020725004  1.0000
  C   C42       1.0  0.6953698771057759  0.9951423759720158  0.6569327081783668  1.0000
  C   C43       1.0  0.09277941415206234  0.834263867230533  0.7194764988415941  1.0000
  C   C44       1.0  0.3734658036789966  0.28030904745843094  0.1146942644663298  1.0000
  C   C45       1.0  0.25855322906227246  0.8853544965970744  0.16566763301445775  1.0000
  C   C46       1.0  0.9072258785879371  0.16574034127554435  0.280528449973204  1.0000
  C   C47       1.0  0.626527519631523  0.7196833856806253  0.8853005352252127  1.0000
  C   C48       1.0  0.7414508750575874  0.11464578658159043  0.8343349159645114  1.0000
  C   C49       1.0  0.1715711880614138  0.8010743933817752  0.6984059361096797  1.0000
  C   C50       1.0  0.47342781830325  0.30168430817372643  0.10273106841329137  1.0000
  C   C51       1.0  0.37049135934670113  0.8972950546556149  0.19889719051693783  1.0000
  C   C52       1.0  0.8284329119329855  0.19892274984754013  0.30159287379370175  1.0000
  C   C53       1.0  0.5265642264947489  0.6982979187065157  0.8972596762949793  1.0000
  C   C54       1.0  0.6295115107966396  0.10270130262190243  0.8011061936282786  1.0000
  C   C55       1.0  0.33870661350884756  0.5828442776739281  0.630094889291918  1.0000
  C   C56       1.0  0.7087081630669728  0.3698124928938428  0.952791847695515  1.0000
  C   C57       1.0  0.7557417547780646  0.04709756999375972  0.4171595318089489  1.0000
  C   C58       1.0  0.6612841074744013  0.4171426617457358  0.36988681136327983  1.0000
  C   C59       1.0  0.29129622757606205  0.6301838641779371  0.047212602107450145  1.0000
  C   C60       1.0  0.2442583922283463  0.9528980018819344  0.5828454199191029  1.0000
  C   C61       1.0  0.3830585880281135  0.5102822073955197  0.6437966326302133  1.0000
  C   C62       1.0  0.7393848250611441  0.35615951531108453  0.866567117494462  1.0000
  C   C63       1.0  0.8725933317358283  0.13337255280362115  0.4896785775563259  1.0000
  C   C64       1.0  0.6169401361998937  0.48971179597344894  0.3561982668977351  1.0000
  C   C65       1.0  0.26061403854106424  0.6438439095123559  0.13342994125444832  1.0000
  C   C66       1.0  0.12740451390558147  0.8666245890685005  0.510328262723931  1.0000
  N   N1        1.0  0.2961273550956633  0.702354446120431  0.599389206719607  1.0000
  N   N2        1.0  0.6968361366070113  0.4006865115519603  0.10299468876485199  1.0000
  N   N3        1.0  0.5937341635460883  0.8969366753316523  0.2977311041470472  1.0000
  N   N4        1.0  0.7038655212918243  0.29763720125082227  0.40060908254161387  1.0000
  N   N5        1.0  0.30316386607937323  0.5993027787038658  0.8970124898182448  1.0000
  N   N6        1.0  0.40626802263287226  0.10306596280801733  0.7022743728173566  1.0000
  N   N7        1.0  0.2525091193256799  0.5878308676613528  0.657048619237564  1.0000
  N   N8        1.0  0.5955517332170431  0.34301328091357436  0.9308128422930295  1.0000
  N   N9        1.0  0.6645538650218015  0.06905940075726852  0.4121775420844855  1.0000
  N   N10       1.0  0.747492264540341  0.41216392030621335  0.3429492417104428  1.0000
  N   N11       1.0  0.404452114422405  0.6569712995349878  0.069187833318786  1.0000
  N   N12       1.0  0.3354486278856116  0.9309408814796714  0.58783041124088  1.0000
  O   O1        1.0  0.4264756799946597  0.72800916608729  0.49940918979804394  1.0000
  O   O2        1.0  0.9272658562059775  0.5007483160356261  0.2286843731121523  1.0000
  O   O3        1.0  0.6984997247189072  0.7712967139005048  0.2721069778060255  1.0000
  O   O4        1.0  0.5735310891310164  0.272002891397925  0.5006100543659642  1.0000
  O   O5        1.0  0.07274367321624456  0.4992731668984052  0.7713143662438995  1.0000
  O   O6        1.0  0.3015017609938583  0.2286996453039408  0.7278856356752215  1.0000
  O   O7        1.0  0.5283542539658017  0.6563184785374792  0.5634300041581498  1.0000
  O   O8        1.0  0.9650189078047403  0.4365401703224734  0.09299724089948573  1.0000
  O   O9        1.0  0.8719848855606286  0.9069966456052756  0.34367861125438287  1.0000
  O   O10       1.0  0.4716410367674371  0.3436747401636425  0.436562371621477  1.0000
  O   O11       1.0  0.034983120911611904  0.56346796550519  0.906999146772911  1.0000
  O   O12       1.0  0.1280143391435473  0.09298950463195871  0.6563252659248775  1.0000
  O   O13       1.0  0.45574062506770474  0.49422590055485943  0.6123536354416714  1.0000
  O   O14       1.0  0.8435288233213567  0.38749818126731134  0.8819559991962365  1.0000
  O   O15       1.0  0.9613705682775162  0.11801898505837025  0.5057514531969076  1.0000
  O   O16       1.0  0.5442555454944938  0.505772029401733  0.38763679427503217  1.0000
  O   O17       1.0  0.15646852596933772  0.61250995368588  0.11804560250830322  1.0000
  O   O18       1.0  0.03862797865046023  0.8819781559650296  0.4942601254149181  1.0000
  O   O19       1.0  0.8590505941078063  0.5828966079169151  0.6394803837714846  1.0000
  O   O20       1.0  0.21949506209035968  0.3604682967607147  0.9435332705967738  1.0000
  O   O21       1.0  0.2761366217917427  0.05663379282368201  0.41706848797658574  1.0000
  O   O22       1.0  0.14095179494427879  0.41711545248043813  0.3605227234109806  1.0000
  O   O23       1.0  0.780504185756328  0.6395296332433702  0.056456702433770406  1.0000
  O   O24       1.0  0.7238676678790557  0.9433696325992362  0.5829248600696817  1.0000
  O   O25       1.0  0.3468910924161079  0.4649905312537399  0.6908701467461286  1.0000
  O   O26       1.0  0.6561649363769321  0.3092741075887276  0.7742557158916766  1.0000
  O   O27       1.0  0.8816356094897554  0.2256811765137101  0.5349116410491063  1.0000
  O   O28       1.0  0.6531090582937649  0.534994051028747  0.3091204242165375  1.0000
  O   O29       1.0  0.3438327901496906  0.6907301024050414  0.22574131663271402  1.0000
  O   O30       1.0  0.1183646191581289  0.7743143963946935  0.4650874876752126  1.0000
  O   O31       1.0  0.2922284481529119  0.7964680546577015  0.36721330042799843  1.0000
  O   O32       1.0  0.9252304849761402  0.6326742538524857  0.4291307625145394  1.0000
  O   O33       1.0  0.4957056156952292  0.5707350617782937  0.20351186849195105  1.0000
  O   O34       1.0  0.7077661326444796  0.20353929431994544  0.6327931038614522  1.0000
  O   O35       1.0  0.07477059422414813  0.3673244599924744  0.5708664916103103  1.0000
  O   O36       1.0  0.5042949642171165  0.4292644355850613  0.7964946267428488  1.0000
  O   O37       1.0  0.1604688987170136  0.5994856549776558  0.35765199955022814  1.0000
  O   O38       1.0  0.8029729540457352  0.6425923348127187  0.2418771499643313  1.0000
  O   O39       1.0  0.5609615577757269  0.7579749210686515  0.40053602683347117  1.0000
  O   O40       1.0  0.8395348351754636  0.4005169833005057  0.6423526020706873  1.0000
  O   O41       1.0  0.19702435070895777  0.357409519782813  0.7581195615906893  1.0000
  O   O42       1.0  0.4390419027903007  0.24203478338048265  0.5994697660386236  1.0000
  O   O43       1.0  0.6876859407032826  0.6179590438134996  0.6685697383344478  1.0000
  O   O44       1.0  0.019009428472159664  0.3312444426451791  0.9495374843187036  1.0000
  O   O45       1.0  0.0695590938279551  0.05064057078692491  0.38193443035379465  1.0000
  O   O46       1.0  0.31230454736406443  0.3820381021854617  0.3314143046458611  1.0000
  O   O47       1.0  0.9809922460966334  0.668764478536808  0.05045779245701719  1.0000
  O   O48       1.0  0.930436924585301  0.9493589271936574  0.6180688679077522  1.0000
