data_image0
_chemical_formula_structural       Mn6H36C24O36
_chemical_formula_sum              "Mn6 H36 C24 O36"
_cell_length_a       9.688078363780157
_cell_length_b       9.687989119001514
_cell_length_c       9.7738
_cell_angle_alpha    96.3197080166917
_cell_angle_beta     96.31964956347817
_cell_angle_gamma    96.25036432497923

_space_group_name_H-M_alt    "P 1"
_space_group_IT_number       1

loop_
  _space_group_symop_operation_xyz
  'x, y, z'

loop_
  _atom_site_type_symbol
  _atom_site_label
  _atom_site_symmetry_multiplicity
  _atom_site_fract_x
  _atom_site_fract_y
  _atom_site_fract_z
  _atom_site_occupancy
  Mn  Mn1       1.0  0.7905707328321583  0.1627206050390981  0.3774536095130472  1.0000
  Mn  Mn2       1.0  0.3776474642603561  0.7899293986575628  0.16287869768384405  1.0000
  Mn  Mn3       1.0  0.16387758488446744  0.3766433800637401  0.790313976741615  1.0000
  Mn  Mn4       1.0  0.2094269340501427  0.837278744522159  0.6225454510657116  1.0000
  Mn  Mn5       1.0  0.6223539589171168  0.21007518287560598  0.837121343602611  1.0000
  Mn  Mn6       1.0  0.8361216463932666  0.6233517839199719  0.20968889041461128  1.0000
  H   H1        1.0  0.6953446914580752  0.9793717770744266  0.16171254908255148  1.0000
  H   H2        1.0  0.16163091967771953  0.6953677845926549  0.9796535623004272  1.0000
  H   H3        1.0  0.9780996756869771  0.1615800351608101  0.6953645274307972  1.0000
  H   H4        1.0  0.3046571294529202  0.0206275724868235  0.8382869647412929  1.0000
  H   H5        1.0  0.8383698627261111  0.30463156496859506  0.02034686135565516  1.0000
  H   H6        1.0  0.021899029702502987  0.8384193144004399  0.30463362331572336  1.0000
  H   H7        1.0  0.8545154603951346  0.9428829585187586  0.18026931487271008  1.0000
  H   H8        1.0  0.1798642920897535  0.8542167304118848  0.9429036384797271  1.0000
  H   H9        1.0  0.9428423443817522  0.1800143650192965  0.8535117849218634  1.0000
  H   H10       1.0  0.1454863605158607  0.0571163910424914  0.8197312220946386  1.0000
  H   H11       1.0  0.820135323652167  0.1457815727549843  0.05709654371030841  1.0000
  H   H12       1.0  0.05715739951489948  0.8199849845419533  0.14648750227943444  1.0000
  H   H13       1.0  0.8250194344141735  0.38212230105704487  0.5860316834921946  1.0000
  H   H14       1.0  0.586281349768548  0.8248978061736522  0.3832977390515849  1.0000
  H   H15       1.0  0.38277889581647173  0.5863973198635363  0.8248302597144246  1.0000
  H   H16       1.0  0.1749814761443815  0.6178780948985931  0.4139688683186619  1.0000
  H   H17       1.0  0.413718522282835  0.1751025897819858  0.6167037225915023  1.0000
  H   H18       1.0  0.6172198095730081  0.4136020296977136  0.17517096046262273  1.0000
  H   H19       1.0  0.6656648336760328  0.32026574345617576  0.5648696646415486  1.0000
  H   H20       1.0  0.5652531432803728  0.6654450907950036  0.3214110702784936  1.0000
  H   H21       1.0  0.32089325401523894  0.5648342707976467  0.6666767163056733  1.0000
  H   H22       1.0  0.3343372435444253  0.6797356988938432  0.43513112863534786  1.0000
  H   H23       1.0  0.4347456902638315  0.3345553051606344  0.6785892549098165  1.0000
  H   H24       1.0  0.679107656543316  0.43516612515799113  0.3333248586486874  1.0000
  H   H25       1.0  0.631831923140581  0.7713632231067251  0.5835295543468888  1.0000
  H   H26       1.0  0.5829297306966696  0.6325883071453191  0.772142779610931  1.0000
  H   H27       1.0  0.7714133701707625  0.5818706177594422  0.6340005985958967  1.0000
  H   H28       1.0  0.36816665409416766  0.228635080060144  0.41646949138836925  1.0000
  H   H29       1.0  0.41707014135471354  0.36741208881031884  0.22785663574514808  1.0000
  H   H30       1.0  0.22858650188062066  0.4181297781961959  0.3659988167601824  1.0000
  H   H31       1.0  0.9292890891456055  0.8749458031539276  0.7239463423787453  1.0000
  H   H32       1.0  0.7256755256379749  0.929785240017388  0.8736337456596103  1.0000
  H   H33       1.0  0.8760246021625734  0.7258806448227445  0.9279562695956899  1.0000
  H   H34       1.0  0.07071078290577763  0.1250545928017104  0.2760530729773336  1.0000
  H   H35       1.0  0.2743242182586769  0.070214109543862  0.12636554154169488  1.0000
  H   H36       1.0  0.12397526988880261  0.2741197511328934  0.0720431457603894  1.0000
  C   C1        1.0  0.7051733570106223  0.848111019182717  0.6550511433226518  1.0000
  C   C2        1.0  0.6552442272483461  0.705886140938091  0.8480900533927735  1.0000
  C   C3        1.0  0.8484229761598102  0.6545835170916945  0.7058157191178225  1.0000
  C   C4        1.0  0.29482651504076074  0.151889376772921  0.34495031832043566  1.0000
  C   C5        1.0  0.34475434998640253  0.29411216222877806  0.15191001548598845  1.0000
  C   C6        1.0  0.15157585738439394  0.3454168788639365  0.2941835829269833  1.0000
  C   C7        1.0  0.8519656413016109  0.799500768085707  0.6552744944545239  1.0000
  C   C8        1.0  0.6557542768591631  0.8523876330290888  0.7995097271396289  1.0000
  C   C9        1.0  0.800689026117638  0.6558977884376844  0.8517914159301012  1.0000
  C   C10       1.0  0.14803306408786204  0.2004985814755429  0.34472570257901936  1.0000
  C   C11       1.0  0.34424559519222  0.14761276292654196  0.20048968821645016  1.0000
  C   C12       1.0  0.19931084593374496  0.3441026075179465  0.1482079994259777  1.0000
  C   C13       1.0  0.7066813976425693  0.9891346366747982  0.5990052024666568  1.0000
  C   C14       1.0  0.5987047479879735  0.7074630572743956  0.9878501250674746  1.0000
  C   C15       1.0  0.9893203203569458  0.5981012410457538  0.707276938268265  1.0000
  C   C16       1.0  0.2933183462540825  0.0108647128864519  0.40099510787815257  1.0000
  C   C17       1.0  0.4012948677539541  0.2925352458924735  0.012150057122560991  1.0000
  C   C18       1.0  0.010680590201609198  0.4018991549098772  0.2927236135425915  1.0000
  C   C19       1.0  0.8961109427295996  0.7862848070189727  0.5088947418874596  1.0000
  C   C20       1.0  0.5085136947487428  0.8968541623664592  0.7868626505638757  1.0000
  C   C21       1.0  0.7876203895545402  0.5088542640558984  0.896769179917669  1.0000
  C   C22       1.0  0.10388892932178354  0.2137155889366653  0.49110467346861947  1.0000
  C   C23       1.0  0.4914841002882824  0.10314623358917878  0.21313756131316094  1.0000
  C   C24       1.0  0.2123816876659177  0.4911471782941206  0.10323161335923457  1.0000
  O   O1        1.0  0.7957112912489067  0.0209938105211336  0.17762980667849598  1.0000
  O   O2        1.0  0.17671126777180754  0.7958174598549163  0.02059804458138358  1.0000
  O   O3        1.0  0.020340778472800008  0.1769379655310743  0.7945733907328146  1.0000
  O   O4        1.0  0.20428949115491696  0.9790055390401163  0.8223695938340754  1.0000
  O   O5        1.0  0.8232895146320233  0.2041818897063337  0.9794023790746992  1.0000
  O   O6        1.0  0.9796588372691277  0.8230603376357877  0.20542474517020534  1.0000
  O   O7        1.0  0.7441684997323322  0.3478309107072448  0.5136371457654931  1.0000
  O   O8        1.0  0.5134892075856214  0.7443505520902746  0.34739218144368766  1.0000
  O   O9        1.0  0.34834646266511976  0.5133150433138169  0.7446664018315872  1.0000
  O   O10       1.0  0.25583228267149144  0.6521684388540052  0.4863643010340936  1.0000
  O   O11       1.0  0.4865106644657617  0.2556498438653563  0.6526092801994067  1.0000
  O   O12       1.0  0.651653281231532  0.48668430624743303  0.25533493165673343  1.0000
  O   O13       1.0  0.6917637099738415  0.9863826194455426  0.4666653475803101  1.0000
  O   O14       1.0  0.4652488548453562  0.6924336947406218  0.9850173270868864  1.0000
  O   O15       1.0  0.9865581015066738  0.4646441013425502  0.6928049171822508  1.0000
  O   O16       1.0  0.3082390212896016  0.013615683721326398  0.533335174543538  1.0000
  O   O17       1.0  0.5347508890512955  0.3075656548206283  0.014982983257922881  1.0000
  O   O18       1.0  0.013443847559059904  0.5353562946130808  0.3071947247963749  1.0000
  O   O19       1.0  0.7290881637435336  0.1008640474382219  0.6827728362757384  1.0000
  O   O20       1.0  0.6829312635146964  0.7296068552232668  0.09882693148725959  1.0000
  O   O21       1.0  0.10113479288173012  0.6823265713880033  0.7290241786920574  1.0000
  O   O22       1.0  0.2709105416459466  0.8991353021230282  0.3172273607577977  1.0000
  O   O23       1.0  0.3170692625796718  0.2703904015492142  0.9011752821462835  1.0000
  O   O24       1.0  0.8988642969719296  0.3176759173563966  0.2709774259493116  1.0000
  O   O25       1.0  0.8095686363775343  0.7166734206401415  0.4133060299697817  1.0000
  O   O26       1.0  0.41238632667381137  0.8104732595936852  0.7172582057550443  1.0000
  O   O27       1.0  0.7181568886307093  0.41235891316982526  0.8108260113577827  1.0000
  O   O28       1.0  0.1904311075191174  0.2833259289211085  0.5866932572315235  1.0000
  O   O29       1.0  0.5876125068703929  0.18952713636194568  0.2827410962897615  1.0000
  O   O30       1.0  0.28184609894219653  0.5876414827858127  0.1891727207886049  1.0000
  O   O31       1.0  0.018206999843776803  0.8414538581133114  0.49054277283758546  1.0000
  O   O32       1.0  0.4897438623987115  0.0187691760612836  0.842022237915181  1.0000
  O   O33       1.0  0.841665517231668  0.4907265277518533  0.018370084044605106  1.0000
  O   O34       1.0  0.9817918337004272  0.1585465378423265  0.5094575523507245  1.0000
  O   O35       1.0  0.5102571763145747  0.9812322662887353  0.1579794651939537  1.0000
  O   O36       1.0  0.15833539332688673  0.5092738682037847  0.981628421479236  1.0000
