data_image0
_chemical_formula_structural       Zn4H48C28S8N16O16
_chemical_formula_sum              "Zn4 H48 C28 S8 N16 O16"
_cell_length_a       8.205127389
_cell_length_b       11.641916075
_cell_length_c       13.396
_cell_angle_alpha    90.0
_cell_angle_beta     90.0
_cell_angle_gamma    90.0

_space_group_name_H-M_alt    "P 1"
_space_group_IT_number       1

loop_
  _space_group_symop_operation_xyz
  'x, y, z'

loop_
  _atom_site_type_symbol
  _atom_site_label
  _atom_site_symmetry_multiplicity
  _atom_site_fract_x
  _atom_site_fract_y
  _atom_site_fract_z
  _atom_site_occupancy
  Zn  Zn1       1.0  0.2227156159025512  0.8966874467010797  0.8244946252612737  1.0000
  Zn  Zn2       1.0  0.2772827150800978  0.1033128904427372  0.3244931322782918  1.0000
  Zn  Zn3       1.0  0.7227176031355569  0.6033122000495084  0.1755053747387265  1.0000
  Zn  Zn4       1.0  0.7772834835629894  0.39668813709430845  0.6755053747387265  1.0000
  H   H1        1.0  0.2099784583856419  0.9068979652475306  0.1483696625858499  1.0000
  H   H2        1.0  0.2900210913471284  0.09310151293114899  0.6483704090773373  1.0000
  H   H3        1.0  0.7099780081184051  0.5931025404681947  0.8516303374141501  1.0000
  H   H4        1.0  0.7900218598300199  0.4068977966756222  0.3516303374141501  1.0000
  H   H5        1.0  0.2820443718037211  0.9353116729111974  0.0276381009256497  1.0000
  H   H6        1.0  0.2179551779290492  0.0646886642326194  0.5276381009256497  1.0000
  H   H7        1.0  0.7820439215364845  0.5646888328045279  0.9723611525828633  1.0000
  H   H8        1.0  0.7179559464119336  0.435311504339289  0.4723618990743504  1.0000
  H   H9        1.0  0.0713687883487424  0.7431525828105592  0.1825141833383128  1.0000
  H   H10       1.0  0.4286319801341492  0.2568477543332577  0.6825149298298002  1.0000
  H   H11       1.0  0.5713683380815056  0.7568479229051661  0.8174850701701999  1.0000
  H   H12       1.0  0.9286315298669123  0.2431524142386507  0.3174858166616872  1.0000
  H   H13       1.0  0.0294133154256144  0.6424973304920485  0.08923857868020242  1.0000
  H   H14       1.0  0.4705862343071558  0.357502147686631  0.5892385786802024  1.0000
  H   H15       1.0  0.5294128651583847  0.8575023162585396  0.9107606748283104  1.0000
  H   H16       1.0  0.970585784039919  0.1424980208852773  0.4107614213197976  1.0000
  H   H17       1.0  0.6085609355308961  0.949307650802659  0.7177157360406101  1.0000
  H   H18       1.0  0.8914364949172864  0.0506952632365554  0.21771797551507896  1.0000
  H   H19       1.0  0.1085650420484896  0.5506945728433266  0.2822835174679028  1.0000
  H   H20       1.0  0.3914381639346446  0.4493049053353531  0.7822827709764084  1.0000
  H   H21       1.0  0.7163094149981648  0.0731073815097929  0.7560010450880839  1.0000
  H   H22       1.0  0.7836880154500179  0.9268938145991541  0.2560032845625528  1.0000
  H   H23       1.0  0.2163147402658794  0.42689192809698534  0.24399895491191614  1.0000
  H   H24       1.0  0.2836884657172476  0.5731075500817013  0.7439974619289346  1.0000
  H   H25       1.0  0.7727241393594895  0.7726382789613099  0.6995200059719338  1.0000
  H   H26       1.0  0.7272745098388145  0.2273620581825071  0.1995214989549154  1.0000
  H   H27       1.0  0.2727270271269617  0.7273622267544156  0.3004799940280662  1.0000
  H   H28       1.0  0.22727496010604406  0.2726389693545386  0.800479247536579  1.0000
  H   H29       1.0  0.9836970978440434  0.784842455583501  0.7116616900567365  1.0000
  H   H30       1.0  0.5163027701043748  0.2151595994905833  0.2116631830397111  1.0000
  H   H31       1.0  0.4836987668614015  0.7151580501322242  0.2883368169602889  1.0000
  H   H32       1.0  0.0163044391217326  0.2848422870115925  0.7883368169602889  1.0000
  H   H33       1.0  0.5437831478377291  0.6517303467161426  0.46397879964168715  1.0000
  H   H34       1.0  0.9562264701116661  0.348273426288209  0.9639795461331745  1.0000
  H   H35       1.0  0.043783598104965904  0.8482701589995755  0.5360204538668256  1.0000
  H   H36       1.0  0.4562159516278045  0.1517301781442342  0.0360212003583129  1.0000
  H   H37       1.0  0.3676908178225986  0.6114826764029928  0.5309219169901455  1.0000
  H   H38       1.0  0.13231726316102055  0.3885168017756939  0.030924902956108707  1.0000
  H   H39       1.0  0.8676891488052405  0.8885161113824651  0.4690780830098547  1.0000
  H   H40       1.0  0.6323082816429422  0.11148250783108439  0.9690788295013422  1.0000
  H   H41       1.0  0.49725370570965316  0.9580158393299527  0.5383898178560784  1.0000
  H   H42       1.0  0.0027409690226321  0.0419836388487269  0.03838907136458401  1.0000
  H   H43       1.0  0.9972544741925377  0.5419838074206353  0.4616101821439217  1.0000
  H   H44       1.0  0.5027453937558874  0.45801481179291403  0.9616094356524343  1.0000
  H   H45       1.0  0.5846295581505461  0.8560171655420561  0.4450089578978834  1.0000
  H   H46       1.0  0.9153703097978791  0.1439866074622955  0.9450067184234074  1.0000
  H   H47       1.0  0.0846300084177756  0.643982481208532  0.5549917885936111  1.0000
  H   H48       1.0  0.4153695413149877  0.3560169969701477  0.0549910421021167  1.0000
  C   C1        1.0  0.1534906090170409  0.7858895340816971  0.043325619587939505  1.0000
  C   C2        1.0  0.3465089407157295  0.2141108030621126  0.5433256195879395  1.0000
  C   C3        1.0  0.6534901587498043  0.7141109716340212  0.9566743804120608  1.0000
  C   C4        1.0  0.8465097091986138  0.2858885065446586  0.4566743804120606  1.0000
  C   C5        1.0  0.8610140543912979  0.9352137508859356  0.7345722603762326  1.0000
  C   C6        1.0  0.6389833760568779  0.0647874452230184  0.23457375335921432  1.0000
  C   C7        1.0  0.3610181609088983  0.5647867548297896  0.2654284861152618  1.0000
  C   C8        1.0  0.1389838263241145  0.4352144412791574  0.7654292326067491  1.0000
  C   C9        1.0  0.3579408168528105  0.7995994765835802  0.6583987757539589  1.0000
  C   C10       1.0  0.14205873287995985  0.20039914262996214  0.15840176171991527  1.0000
  C   C11       1.0  0.8579415853356949  0.7003993112018704  0.3415997312630665  1.0000
  C   C12       1.0  0.6420582826127301  0.2995993080116719  0.8415997312630665  1.0000
  C   C13       1.0  0.4569715767029621  0.780925574572997  0.5661421319796959  1.0000
  C   C14       1.0  0.0430304105300436  0.2190764805010872  0.0661421319796958  1.0000
  C   C15       1.0  0.9569711264357326  0.719074072177591  0.4338563750373227  1.0000
  C   C16       1.0  0.5430275227625714  0.2809245470359585  0.933857121528817  1.0000
  C   C17       1.0  0.4839071731321312  0.6583624165148407  0.5370200059719323  1.0000
  C   C18       1.0  0.0160972516011242  0.3416404975243736  0.03702149895491401  1.0000
  C   C19       1.0  0.9839079416150157  0.8416372302357473  0.4629792475365805  1.0000
  C   C20       1.0  0.5160907075832883  0.1583613889778022  0.9629792475365806  1.0000
  C   C21       1.0  0.5875472459407549  0.5943308606096451  0.6130262765004489  1.0000
  C   C22       1.0  0.9124574970081554  0.40567033549930187  0.11302702299193611  1.0000
  C   C23       1.0  0.0875476962079844  0.9056696451060802  0.3869744699910456  1.0000
  C   C24       1.0  0.4124506347746575  0.0943298330725995  0.8869737234995512  1.0000
  C   C25       1.0  0.5175958639829972  0.8697606076841639  0.5143303971334703  1.0000
  C   C26       1.0  0.9824015664651854  0.1302414473899205  0.014330397133470304  1.0000
  C   C27       1.0  0.0175963142502269  0.6302390390664243  0.48566960286652977  1.0000
  C   C28       1.0  0.4824032354825363  0.3697595801471181  0.9856688563750353  1.0000
  S   S1        1.0  0.1596830783829759  0.7386112341477258  0.9213048671245121  1.0000
  S   S2        1.0  0.340315252599666  0.2613882440309538  0.421304867124512  1.0000
  S   S3        1.0  0.6596826281157464  0.7613892715679995  0.0786951328754881  1.0000
  S   S4        1.0  0.8403160210825575  0.2386102066106872  0.5786951328754881  1.0000
  S   S5        1.0  0.030799034313446303  0.0180803571030737  0.7597700806210812  1.0000
  S   S6        1.0  0.4691980779190814  0.9819208390058733  0.2597685876380993  1.0000
  S   S7        1.0  0.530801021546452  0.4819189525037046  0.2402306658704063  1.0000
  S   S8        1.0  0.9692000651520871  0.5180813846401122  0.7402329053448825  1.0000
  N   N1        1.0  0.2101283646505507  0.8872568684961947  0.0740788295013459  1.0000
  N   N2        1.0  0.2898699663320983  0.1127426096824848  0.5740795759928332  1.0000
  N   N3        1.0  0.7101291331334352  0.6127436372195305  0.9259211704986543  1.0000
  N   N4        1.0  0.78987073481499  0.38725669992428646  0.4259211704986542  1.0000
  N   N5        1.0  0.08784872748793053  0.7154827389528292  0.11111152582860481  1.0000
  N   N6        1.0  0.4121508222448398  0.2845167392258503  0.6111122723200921  1.0000
  N   N7        1.0  0.5878494959708149  0.7845169077977588  0.8888877276799081  1.0000
  N   N8        1.0  0.9121515907277313  0.2154825703809209  0.3888884741713953  1.0000
  N   N9        1.0  0.7173819151048377  0.9888801745205882  0.7347670946551192  1.0000
  N   N10       1.0  0.7826167340934662  0.0111210215883659  0.2347678411466134  1.0000
  N   N11       1.0  0.2173848028723171  0.5111203311951371  0.2652321588533866  1.0000
  N   N12       1.0  0.282618403110817  0.4888800059486798  0.7652336518363683  1.0000
  N   N13       1.0  0.8722716492610445  0.8235731934702173  0.7130016422812775  1.0000
  N   N14       1.0  0.6277269999372594  0.1764271436735996  0.21300089578979  1.0000
  N   N15       1.0  0.3722745370285168  0.676427312245508  0.2869991042102101  1.0000
  N   N16       1.0  0.1277274502044889  0.3235738838634461  0.7869998507017045  1.0000
  O   O1        1.0  0.3972308832608179  0.8854152472491492  0.7149902956106331  1.0000
  O   O2        1.0  0.10276257272134612  0.11458251299926299  0.2149910421021204  1.0000
  O   O3        1.0  0.8972328704938306  0.6145835405363016  0.2850089578978796  1.0000
  O   O4        1.0  0.6027682162047157  0.385415937642378  0.7850104508808613  1.0000
  O   O5        1.0  0.24047158641865715  0.7334273795647519  0.6788406987160371  1.0000
  O   O6        1.0  0.2595279633141132  0.2665703806836603  0.17884517766497515  1.0000
  O   O7        1.0  0.7404711361514273  0.7665722671858362  0.3211585547924756  1.0000
  O   O8        1.0  0.7595275130468766  0.23342635202770617  0.8211578083009883  1.0000
  O   O9        1.0  0.6257075309863893  0.4905171934938579  0.5870162735144788  1.0000
  O   O10       1.0  0.8742947744622782  0.5094840026150962  0.0870162735144788  1.0000
  O   O11       1.0  0.1257055437533836  0.0094821161129204  0.41298297999402683  1.0000
  O   O12       1.0  0.37429034972902303  0.9905165031006291  0.9129837264855213  1.0000
  O   O13       1.0  0.6304496877080723  0.6402056115148582  0.6938265153777226  1.0000
  O   O14       1.0  0.8695513989904742  0.35979300769869127  0.193825768886235  1.0000
  O   O15       1.0  0.13045135672542335  0.8597940352357369  0.3061727381307833  1.0000
  O   O16       1.0  0.3695494117574611  0.1402045839778125  0.8061727381307835  1.0000
