data_image0
_chemical_formula_structural       Ba4H16C28O28
_chemical_formula_sum              "Ba4 H16 C28 O28"
_cell_length_a       4.345642832000231
_cell_length_b       10.184356900000264
_cell_length_c       19.45392326100145
_cell_angle_alpha    89.99997504920019
_cell_angle_beta     89.99996354799973
_cell_angle_gamma    90.00000825827954

_space_group_name_H-M_alt    "P 1"
_space_group_IT_number       1

loop_
  _space_group_symop_operation_xyz
  'x, y, z'

loop_
  _atom_site_type_symbol
  _atom_site_label
  _atom_site_symmetry_multiplicity
  _atom_site_fract_x
  _atom_site_fract_y
  _atom_site_fract_z
  _atom_site_occupancy
  Ba  Ba1       1.0  0.43791334718525127  0.24999973997915254  0.8373210187098792  1.0000
  Ba  Ba2       1.0  0.9379133535212671  0.7499999806842937  0.6626790326477876  1.0000
  Ba  Ba3       1.0  0.5620870447012933  0.750000177835922  0.16267914315976387  1.0000
  Ba  Ba4       1.0  0.06208703836600899  0.24999993713100122  0.3373206151867265  1.0000
  H   H1        1.0  0.7384040182818411  0.46498076782508946  0.0335936327125452  1.0000
  H   H2        1.0  0.2384037393048429  0.5350193581177648  0.46640661461810157  1.0000
  H   H3        1.0  0.2615941441813305  0.9649805155426352  0.9664064803570869  1.0000
  H   H4        1.0  0.7615965808495488  0.03501919414459562  0.5335935960517163  1.0000
  H   H5        1.0  0.26159637360470356  0.5350191499899922  0.966406529157098  1.0000
  H   H6        1.0  0.7615966525818579  0.4649815415953429  0.5335935472514352  1.0000
  H   H7        1.0  0.7384039465496882  0.03501940227237551  0.033593681512719804  1.0000
  H   H8        1.0  0.238403811037152  0.9649817055685123  0.46640656581781303  1.0000
  H   H9        1.0  0.9828340412766892  0.17155990236737748  0.7137094187450472  1.0000
  H   H10       1.0  0.48283437332355555  0.8284398210922893  0.7862911402654263  1.0000
  H   H11       1.0  0.0171663244369782  0.671560203036563  0.2862907609302924  1.0000
  H   H12       1.0  0.5171637435810725  0.32843990913407595  0.2137084897635546  1.0000
  H   H13       1.0  0.0171663506091235  0.8284400154474914  0.2862912571597249  1.0000
  H   H14       1.0  0.5171660185629889  0.17156009672279282  0.21370902160421687  1.0000
  H   H15       1.0  0.9828340674495664  0.3284397147785186  0.7137094009393508  1.0000
  H   H16       1.0  0.4828343471506784  0.6715600086811478  0.7862911580711228  1.0000
  C   C1        1.0  0.019891100690081504  0.36494396251255523  0.10427301164392594  1.0000
  C   C2        1.0  0.5198904047583994  0.6350561498273349  0.39572726673291925  1.0000
  C   C3        1.0  0.9801070283947696  0.8649438140048815  0.89572661009872  1.0000
  C   C4        1.0  0.4801099487752083  0.1350568911835595  0.6042729212286488  1.0000
  C   C5        1.0  0.9801115923519816  0.6350559553025973  0.895727150225561  1.0000
  C   C6        1.0  0.480109987128138  0.3649437679877465  0.6042728951367239  1.0000
  C   C7        1.0  0.0198910623371447  0.13505708570837532  0.10427303773584384  1.0000
  C   C8        1.0  0.5198904431113363  0.8649430266315221  0.3957272406409943  1.0000
  C   C9        1.0  0.6920288115900775  0.25000008841780647  0.02207207697158251  1.0000
  C   C10       1.0  0.1920308726777122  0.7500000346381557  0.4779281769478558  1.0000
  C   C11       1.0  0.30797158029646005  0.7499998293972682  0.9779280848980677  1.0000
  C   C12       1.0  0.8079718203643509  0.24999988317699726  0.522071984921624  1.0000
  C   C13       1.0  0.8131040866482169  0.3692594508870712  0.052003292466636715  1.0000
  C   C14       1.0  0.3131038920564961  0.6307416616040771  0.4479969442505551  1.0000
  C   C15       1.0  0.1868940438765563  0.8692592093339756  0.9479963282964121  1.0000
  C   C16       1.0  0.686896460037353  0.13074147760124086  0.5520032446904963  1.0000
  C   C17       1.0  0.1868963052384913  0.6307414488260364  0.9479968694029001  1.0000
  C   C18       1.0  0.6868964998302047  0.3692592381090379  0.5520032176189746  1.0000
  C   C19       1.0  0.8131040468551944  0.1307407084812482  0.05200331953826521  1.0000
  C   C20       1.0  0.31310393184919155  0.8692584402138407  0.4479969171791468  1.0000
  C   C21       1.0  0.1557651011044712  0.48488279714482735  0.138360200048055  1.0000
  C   C22       1.0  0.6557667634171055  0.5151163417555864  0.3616400590238485  1.0000
  C   C23       1.0  0.8442330679993831  0.9848826686548765  0.8616399085038541  1.0000
  C   C24       1.0  0.344235851251959  0.015117046176833097  0.6383601561636496  1.0000
  C   C25       1.0  0.8442352907813416  0.5151171206700341  0.8616404758567243  1.0000
  C   C26       1.0  0.3442359296247943  0.4848825941615332  0.6383601028457448  1.0000
  C   C27       1.0  0.15576502273220427  0.015116267262314402  0.13835973933093731  1.0000
  C   C28       1.0  0.6557645406345856  0.9848828716382485  0.3616400057059935  1.0000
  O   O1        1.0  0.9174190676530998  0.24999979519336799  0.7408664045170286  1.0000
  O   O2        1.0  0.4174194508934832  0.7499999241942704  0.7591336497524211  1.0000
  O   O3        1.0  0.0825813242332814  0.7499991407236807  0.2591337573527284  1.0000
  O   O4        1.0  0.5825809409930542  0.24999999362080427  0.240866512117222  1.0000
  O   O5        1.0  0.4920018112241493  0.2499996840380519  0.9752782774716738  1.0000
  O   O6        1.0  0.9920022105770485  0.7500000399925427  0.5247217662011111  1.0000
  O   O7        1.0  0.5079985806623953  0.7500002337770229  0.024721884397969508  1.0000
  O   O8        1.0  0.007998181310227899  0.24999987782275215  0.4752778816333958  1.0000
  O   O9        1.0  0.1272468531275806  0.2500000256649955  0.1302199683918417  1.0000
  O   O10       1.0  0.62724626946747  0.7500000933580467  0.3697802947319603  1.0000
  O   O11       1.0  0.8727535387589639  0.7499998921500791  0.8697801934778013  1.0000
  O   O12       1.0  0.3727564235751615  0.24999884255928612  0.6302193531025041  1.0000
  O   O13       1.0  0.3736568519259578  0.4707876398138283  0.18111814243508925  1.0000
  O   O14       1.0  0.8736586407520335  0.5292124945489078  0.3188820856787801  1.0000
  O   O15       1.0  0.6263413124747997  0.9707875334795377  0.8188819693163795  1.0000
  O   O16       1.0  0.1263439786204543  0.029213149685922715  0.6811181263089312  1.0000
  O   O17       1.0  0.6263412388043293  0.5292122780009694  0.8188825334698466  1.0000
  O   O18       1.0  0.12634405229002973  0.4707874232662449  0.6811180761906998  1.0000
  O   O19       1.0  0.37365907941247667  0.029212384335757197  0.18111767851813454  1.0000
  O   O20       1.0  0.8736564132669855  0.9707877500274055  0.31888152152547633  1.0000
  O   O21       1.0  0.0439105786168881  0.5940021117829704  0.11945655365145315  1.0000
  O   O22       1.0  0.5439144518236319  0.40599702015472866  0.3805426932422408  1.0000
  O   O23       1.0  0.9560851589088558  0.0940036338721342  0.8805426155592715  1.0000
  O   O24       1.0  0.4560836909591757  0.9059960879227233  0.6194569191815307  1.0000
  O   O25       1.0  0.9560875121141306  0.4059978060320333  0.8805436082183534  1.0000
  O   O26       1.0  0.4560905423752573  0.5940019157628882  0.6194564405569241  1.0000
  O   O27       1.0  0.04391063066827171  0.9059972658412647  0.11945651824032674  1.0000
  O   O28       1.0  0.543914399772575  0.09400382989250032  0.3805427286531469  1.0000
