data_image0
_chemical_formula_structural       CoH20C22S2N6O2
_chemical_formula_sum              "Co1 H20 C22 S2 N6 O2"
_cell_length_a       7.192806292091756
_cell_length_b       8.88671039458533
_cell_length_c       10.004131868073685
_cell_angle_alpha    109.53913073509007
_cell_angle_beta     103.29762143500852
_cell_angle_gamma    97.59015811158828

_space_group_name_H-M_alt    "P 1"
_space_group_IT_number       1

loop_
  _space_group_symop_operation_xyz
  'x, y, z'

loop_
  _atom_site_type_symbol
  _atom_site_label
  _atom_site_symmetry_multiplicity
  _atom_site_fract_x
  _atom_site_fract_y
  _atom_site_fract_z
  _atom_site_occupancy
  Co  Co1       1.0  0.5000048570350374  0.49999917107626857  0.5000000107581214  1.0000
  H   H1        1.0  0.20901019854780858  0.6500072122312515  0.40429449945318635  1.0000
  H   H2        1.0  0.7910028024036962  0.34998756391425445  0.5957100691834825  1.0000
  H   H3        1.0  0.3965742768330713  0.7291610451093857  0.37594118641296587  1.0000
  H   H4        1.0  0.6034343278266335  0.270838512465481  0.6240589908356212  1.0000
  H   H5        1.0  0.24817687999971844  0.18362427115937405  0.4426789336909067  1.0000
  H   H6        1.0  0.7518323934435074  0.8163776905669944  0.557319043706819  1.0000
  H   H7        1.0  0.024454868659795185  0.9545272337184726  0.22568716514686563  1.0000
  H   H8        1.0  0.9755367460401702  0.04547829906483969  0.7743107988002649  1.0000
  H   H9        1.0  0.14986716934528493  0.2299881020840147  0.9583337747856432  1.0000
  H   H10       1.0  0.8501390895837277  0.7700187481150562  0.041666077042435655  1.0000
  H   H11       1.0  0.36649076608103576  0.4460255456772657  0.18753620870231905  1.0000
  H   H12       1.0  0.6335274177323953  0.5539777065912401  0.8124636648900035  1.0000
  H   H13       1.0  0.6399560176320734  0.0178343326720523  0.4184044698370286  1.0000
  H   H14       1.0  0.36004066214321284  0.9821688228333795  0.5815956856473149  1.0000
  H   H15       1.0  0.6811560370213813  0.16078690150745695  0.253578760880167  1.0000
  H   H16       1.0  0.31883301832365873  0.8392087899420345  0.7464139623814745  1.0000
  H   H17       1.0  0.2882629592063211  0.7326974808728721  0.8895392560601039  1.0000
  H   H18       1.0  0.7117228782776552  0.2672970271680342  0.11045657701077977  1.0000
  H   H19       1.0  0.2585790985813787  0.6106469107392696  0.07075710293391067  1.0000
  H   H20       1.0  0.7414103477708666  0.3893452574483262  0.9292436816272129  1.0000
  C   C1        1.0  0.2210367252651082  0.18874674875654313  0.33305477466203115  1.0000
  C   C2        1.0  0.7789668308591617  0.8112551539922277  0.6669412053223525  1.0000
  C   C3        1.0  0.09467314557304012  0.06062175308638729  0.2092682596899991  1.0000
  C   C4        1.0  0.9053272277773701  0.9393899801745743  0.7907339721569995  1.0000
  C   C5        1.0  0.06365216764584862  0.06784455346002718  0.0676205203124169  1.0000
  C   C6        1.0  0.9363472397440091  0.9321635013397441  0.9323804984251467  1.0000
  C   C7        1.0  0.1631891966884709  0.21173091299103663  0.06222845503277336  1.0000
  C   C8        1.0  0.8368048070993341  0.788278325036856  0.9377719735247468  1.0000
  C   C9        1.0  0.28607874857220145  0.3354875662743381  0.1906752504595204  1.0000
  C   C10       1.0  0.7139362256501086  0.6645144865336048  0.8093267300785454  1.0000
  C   C11       1.0  0.7747804503021032  0.5660970810105466  0.3256472667754408  1.0000
  C   C12       1.0  0.22522841559403156  0.4339084360816868  0.6743446550497935  1.0000
  C   C13       1.0  0.566080296162987  0.9563547229743248  0.2997076711405454  1.0000
  C   C14       1.0  0.43391333401087456  0.04364230708304009  0.7002912167207709  1.0000
  C   C15       1.0  0.5897510054638959  0.03697147142408137  0.2050014921431398  1.0000
  C   C16       1.0  0.4102416670193563  0.963021864120108  0.7949951797452498  1.0000
  C   C17       1.0  0.4907475537368243  0.9597875875007559  0.05276618212425887  1.0000
  C   C18       1.0  0.5092472023872929  0.04020819503030279  0.9472305442777227  1.0000
  C   C19       1.0  0.37104384563343024  0.8023127856510258  0.005164369378228273  1.0000
  C   C20       1.0  0.6289462777722789  0.19768177063608044  0.9948332124685418  1.0000
  C   C21       1.0  0.35448094021370474  0.7318974147003839  0.10779589750867997  1.0000
  C   C22       1.0  0.6455099540756424  0.26809473211464047  0.8922031299629224  1.0000
  S   S1        1.0  0.9181317413507769  0.6183359333988675  0.23678290487455914  1.0000
  S   S2        1.0  0.08186918299654881  0.3816673506127087  0.7632240137031516  1.0000
  N   N1        1.0  0.6687612215013135  0.5273697519038122  0.3891160748804481  1.0000
  N   N2        1.0  0.3312348750506898  0.47262621793053217  0.6108919316574344  1.0000
  N   N3        1.0  0.3177190885501489  0.32566819653202117  0.3256446645931703  1.0000
  N   N4        1.0  0.6822898629062307  0.6743325390406125  0.6743529084347484  1.0000
  N   N5        1.0  0.45046131347520907  0.8063313307766291  0.25325981415433313  1.0000
  N   N6        1.0  0.5495311824784536  0.1936669628590407  0.7467422380298173  1.0000
  O   O1        1.0  0.3519698879844598  0.6901586277038019  0.4504723111061892  1.0000
  O   O2        1.0  0.6480441037374192  0.3098397787469195  0.5495304620494322  1.0000
