data_image0
_chemical_formula_structural       Al2H12C26Cl4O10
_chemical_formula_sum              "Al2 H12 C26 Cl4 O10"
_cell_length_a       6.565993341758745
_cell_length_b       11.20799155672143
_cell_length_c       15.182311534393987
_cell_angle_alpha    82.11892979788028
_cell_angle_beta     78.89796933189017
_cell_angle_gamma    71.26885710557731

_space_group_name_H-M_alt    "P 1"
_space_group_IT_number       1

loop_
  _space_group_symop_operation_xyz
  'x, y, z'

loop_
  _atom_site_type_symbol
  _atom_site_label
  _atom_site_symmetry_multiplicity
  _atom_site_fract_x
  _atom_site_fract_y
  _atom_site_fract_z
  _atom_site_occupancy
  Al  Al1       1.0  0.5044013313360977  0.49571900761075943  0.5004421308033217  1.0000
  Al  Al2       1.0  0.006229589443208256  0.4923109463099422  0.5013233388778602  1.0000
  H   H1        1.0  0.31537229305925496  0.34255884102314843  0.5602684579543222  1.0000
  H   H2        1.0  0.7058927636122122  0.6475736281544755  0.4469048400698696  1.0000
  H   H3        1.0  0.8582349926160048  0.5983113360188526  0.7702858943677668  1.0000
  H   H4        1.0  0.7499640685861519  0.614622508126516  0.933933599109146  1.0000
  H   H5        1.0  0.0888339292968609  0.4471575508477201  0.22596470643091496  1.0000
  H   H6        1.0  0.17061777503581507  0.4524902545830543  0.060598511447032904  1.0000
  H   H7        1.0  0.6395385928051593  0.5729179301423957  0.2305057162258848  1.0000
  H   H8        1.0  0.726414849685284  0.5778203905801718  0.06532559517435743  1.0000
  H   H9        1.0  0.3815636730746732  0.41022788425116374  0.7710458836106895  1.0000
  H   H10       1.0  0.28639608992959614  0.4131908410395654  0.9357849811644884  1.0000
  H   H11       1.0  0.23017776278094704  0.22968382071976376  0.3819128745511691  1.0000
  H   H12       1.0  0.42672833998012966  0.762676021555855  0.37924079164130836  1.0000
  C   C1        1.0  0.8683623517627338  0.2694176800807071  0.4930875199939281  1.0000
  C   C2        1.0  0.692144662667367  0.4929076260641452  0.6617492815005478  1.0000
  C   C3        1.0  0.13729965789060827  0.7197248383245307  0.505810960198815  1.0000
  C   C4        1.0  0.31124909976119847  0.5033653512853108  0.3387180213110384  1.0000
  C   C5        1.0  0.628219798088459  0.5021131212826405  0.7605333041619248  1.0000
  C   C6        1.0  0.3597059994752242  0.5087141587925572  0.23888945845315132  1.0000
  C   C7        1.0  0.7315374196184833  0.5591347261333935  0.8074425454832905  1.0000
  C   C8        1.0  0.6711369500569332  0.5664093426303581  0.8999237424155099  1.0000
  C   C9        1.0  0.2282533720445768  0.47573182330955194  0.1898050882478373  1.0000
  C   C10       1.0  0.2762802546698637  0.4787344364493578  0.09651677867559981  1.0000
  C   C11       1.0  0.5381796785229297  0.5463852244714147  0.19240038336445056  1.0000
  C   C12       1.0  0.5853039074989681  0.5491642273133975  0.09905935160453791  1.0000
  C   C13       1.0  0.4635483875666607  0.45292897589859377  0.8079934503882669  1.0000
  C   C14       1.0  0.4091320805335456  0.4567114098992562  0.900825502285052  1.0000
  C   C15       1.0  0.5116327772577802  0.5132825785270115  0.9493417807722296  1.0000
  C   C16       1.0  0.45685312771981745  0.5145081283740538  0.04855119161176452  1.0000
  C   C17       1.0  0.9384808655569118  0.12791527656983698  0.4950350611132066  1.0000
  C   C18       1.0  0.13472659045861227  0.06278666905227231  0.4399478360260929  1.0000
  C   C19       1.0  0.8112625420254742  0.060872102804197005  0.55033221791507  1.0000
  C   C20       1.0  0.2713399807804678  0.1273707217351188  0.3834784543935328  1.0000
  C   C21       1.0  0.461095137291899  0.06222030286558321  0.3313125968927579  1.0000
  C   C22       1.0  0.06338588763299656  0.8613985331041506  0.5000072748684161  1.0000
  C   C23       1.0  0.8743585769988298  0.9265662241621939  0.5533073191902176  1.0000
  C   C24       1.0  0.19519756717467365  0.9279625226626038  0.4412665043563494  1.0000
  C   C25       1.0  0.38467466670901723  0.864142845556671  0.38338259498481625  1.0000
  C   C26       1.0  0.5174988103469217  0.9285675211968681  0.3306126454752487  1.0000
  Cl  Cl1       1.0  0.7193524338907765  0.8466157375337245  0.6266748525892396  1.0000
  Cl  Cl2       1.0  0.581805582969565  0.13660322217739915  0.6220806088466732  1.0000
  Cl  Cl3       1.0  0.6273702078203414  0.14380188605610303  0.2672329990832978  1.0000
  Cl  Cl4       1.0  0.7514741843336095  0.8453932271872022  0.2648420833012892  1.0000
  O   O1        1.0  0.6823310071651034  0.3278656153164121  0.47187873417847476  1.0000
  O   O2        1.0  0.8698373087110693  0.5142266549984811  0.6244330400009801  1.0000
  O   O3        1.0  0.010664655542221457  0.6654972796762382  0.48694443028375645  1.0000
  O   O4        1.0  0.4395692849719166  0.5329163679796596  0.3793583211388167  1.0000
  O   O5        1.0  0.32540756486905303  0.6649388899031834  0.5267040029204325  1.0000
  O   O6        1.0  0.14378168663952107  0.47128811443681673  0.3773549452493228  1.0000
  O   O7        1.0  0.9998920851953627  0.31976722510607664  0.51304938807435  1.0000
  O   O8        1.0  0.56536541499824  0.46214805143095833  0.6211927108601216  1.0000
  O   O9        1.0  0.27319216066428  0.4316858451752523  0.539624468268272  1.0000
  O   O10       1.0  0.7394077811483298  0.5570060247662879  0.4613595797565325  1.0000
