data_image0
_chemical_formula_structural       Cd2H32C28N4O12
_chemical_formula_sum              "Cd2 H32 C28 N4 O12"
_cell_length_a       8.805364368000683
_cell_length_b       9.382307146233753
_cell_length_c       9.675893780946534
_cell_angle_alpha    109.51870463953662
_cell_angle_beta     89.99998733216714
_cell_angle_gamma    89.99996344952274

_space_group_name_H-M_alt    "P 1"
_space_group_IT_number       1

loop_
  _space_group_symop_operation_xyz
  'x, y, z'

loop_
  _atom_site_type_symbol
  _atom_site_label
  _atom_site_symmetry_multiplicity
  _atom_site_fract_x
  _atom_site_fract_y
  _atom_site_fract_z
  _atom_site_occupancy
  Cd  Cd1       1.0  0.9999992731703672  0.5000001061279207  0.4999994757751907  1.0000
  Cd  Cd2       1.0  0.4999994134257833  0.9999996659262608  6.551778426241651e-07  1.0000
  H   H1        1.0  0.0156323936885983  0.28905321323855293  0.19940926377179835  1.0000
  H   H2        1.0  0.5156332953272129  0.2109470532765485  0.3005892771422012  1.0000
  H   H3        1.0  0.9843677843844394  0.7109473920570224  0.800590947849983  1.0000
  H   H4        1.0  0.48436801841773314  0.7890524050792818  0.6994095443449878  1.0000
  H   H5        1.0  0.8485610010172736  0.3002016473392004  0.2794708882749717  1.0000
  H   H6        1.0  0.3485601546168128  0.19979840074643818  0.2205295825023299  1.0000
  H   H7        1.0  0.15143917705619003  0.6997978272514801  0.7205289718617891  1.0000
  H   H8        1.0  0.6514400234560896  0.8002022207835535  0.7794716677687815  1.0000
  H   H9        1.0  0.0265449389338883  0.6335205185562813  0.23272034053988475  1.0000
  H   H10       1.0  0.5265434721147955  0.8664784958288293  0.2672806872446358  1.0000
  H   H11       1.0  0.9734552391391488  0.3664800867392941  0.7672798710819039  1.0000
  H   H12       1.0  0.4734544346162651  0.13351986429221083  0.7327198600569318  1.0000
  H   H13       1.0  0.8241449843303174  0.8143379690656045  0.6402312048363115  1.0000
  H   H14       1.0  0.3241463845926092  0.685663079520971  0.8597697097972771  1.0000
  H   H15       1.0  0.1758529223997343  0.1856637507013161  0.3597683196216792  1.0000
  H   H16       1.0  0.6758537934808545  0.3143363950697021  0.14023015033949088  1.0000
  H   H17       1.0  0.731289357600332  0.0392061956859493  0.5826544350074983  1.0000
  H   H18       1.0  0.2312894217403923  0.4607939378443148  0.917345403373062  1.0000
  H   H19       1.0  0.2687108204728404  0.9607943933752097  0.41734473796496724  1.0000
  H   H20       1.0  0.7687107563331993  0.5392055205119418  0.08265341811437567  1.0000
  H   H21       1.0  0.7978101925140282  0.06395235916826889  0.3395824544506283  1.0000
  H   H22       1.0  0.29780920093922  0.43604659645892946  0.16041768731641778  1.0000
  H   H23       1.0  0.2021911212299301  0.9360493768317824  0.6604181086559322  1.0000
  H   H24       1.0  0.7021898414633228  0.5639517474272678  0.8395818213355711  1.0000
  H   H25       1.0  0.0329887177884487  0.7572451549183155  0.05770248411705831  1.0000
  H   H26       1.0  0.532986156018211  0.7427549528471715  0.4422968150004891  1.0000
  H   H27       1.0  0.9670125959558006  0.2427554666112499  0.9422987661538045  1.0000
  H   H28       1.0  0.4670128863841755  0.257244489275095  0.5577009678378814  1.0000
  H   H29       1.0  0.04369347883324791  0.9562111743770029  0.1365671899103375  1.0000
  H   H30       1.0  0.543694478193494  0.5437900722592274  0.36343349460021557  1.0000
  H   H31       1.0  0.9563066992397892  0.0437894309185793  0.8634330217114439  1.0000
  H   H32       1.0  0.4563068355505989  0.45621164750640725  0.6365660298570219  1.0000
  C   C1        1.0  0.9616623624235529  0.7270882470366757  0.30694261821731317  1.0000
  C   C2        1.0  0.46166147327659973  0.7729115701434637  0.1930585683625736  1.0000
  C   C3        1.0  0.038336679978002115  0.27291237449374967  0.693058632054047  1.0000
  C   C4        1.0  0.5383364334541697  0.22708790444806226  0.8069412917746916  1.0000
  C   C5        1.0  0.8476954098743336  0.826632323538149  0.5344269835470072  1.0000
  C   C6        1.0  0.34769565676336367  0.6733686910665638  0.965572882008324  1.0000
  C   C7        1.0  0.1523036325269302  0.17336941246275467  0.4655735795600506  1.0000
  C   C8        1.0  0.6523033856388809  0.3266307672901263  0.03442593947936959  1.0000
  C   C9        1.0  0.7972590711920376  0.9524270607030729  0.5016396765125961  1.0000
  C   C10       1.0  0.29725939519013184  0.5475728774405441  0.9983608985425008  1.0000
  C   C11       1.0  0.2027411068808647  0.047573560826919006  0.4983615737585154  1.0000
  C   C12       1.0  0.7027407828837584  0.45242546644522724  0.0016386101092393834  1.0000
  C   C13       1.0  0.8346669616972734  0.9657962069554744  0.3668379783492525  1.0000
  C   C14       1.0  0.33466624890997565  0.5342036896954242  0.13316222582053433  1.0000
  C   C15       1.0  0.1653343520471111  0.0342043983396749  0.6331622332722802  1.0000
  C   C16       1.0  0.6653327934927022  0.465794637956364  0.8668362441821317  1.0000
  C   C17       1.0  0.9193880954997626  0.8506983512918751  0.2655505406615645  1.0000
  C   C18       1.0  0.4193884155366519  0.6493026284510959  0.23445101612401933  1.0000
  C   C19       1.0  0.08061094690150132  0.14930338470902876  0.7344500224454933  1.0000
  C   C20       1.0  0.5806117625368118  0.35069684613957713  0.7655488440127485  1.0000
  C   C21       1.0  0.9677075197622428  0.8581968915350371  0.11870263757047873  1.0000
  C   C22       1.0  0.467707808753005  0.6418062969692498  0.38129856213782176  1.0000
  C   C23       1.0  0.03229379398171521  0.14180484446501398  0.8812979255360744  1.0000
  C   C24       1.0  0.5322935049915075  0.35819429209148257  0.618700610834388  1.0000
  C   C25       1.0  0.8359923613680353  0.8801595010144039  0.02357732275953585  1.0000
  C   C26       1.0  0.3359926418309698  0.6198404108716957  0.47642391947240986  1.0000
  C   C27       1.0  0.1640066810339462  0.119839989811112  0.9764235760268037  1.0000
  C   C28       1.0  0.6640075362419324  0.38016021065829614  0.5235773307987017  1.0000
  N   N1        1.0  0.9279896947319984  0.7156148917686094  0.4384927637612605  1.0000
  N   N2        1.0  0.42798996584760124  0.7843849345527969  0.06150739908081693  1.0000
  N   N3        1.0  0.0720093476698267  0.2843856972929828  0.5615064092114608  1.0000
  N   N4        1.0  0.5720090765549415  0.21561340933340029  0.9384921095711718  1.0000
  O   O1        1.0  0.7403608421417333  0.9820148226000355  0.08657114717510679  1.0000
  O   O2        1.0  0.24036234273668106  0.5179851451202424  0.4134290987571774  1.0000
  O   O3        1.0  0.2596370645894694  0.01798352128659529  0.9134283614771376  1.0000
  O   O4        1.0  0.7596366996650091  0.48201546017575925  0.5865711128648599  1.0000
  O   O5        1.0  0.8322547884729018  0.7977442361645188  0.8886498327711294  1.0000
  O   O6        1.0  0.33225510293591753  0.7022568225452375  0.6113521169206351  1.0000
  O   O7        1.0  0.1677453896000003  0.2022563853654802  0.1113514174999821  1.0000
  O   O8        1.0  0.6677450751371198  0.29774378275033797  0.38864809470115347  1.0000
  O   O9        1.0  0.9347720671942313  0.3576107745317855  0.2597308494662797  1.0000
  O   O10       1.0  0.4347723904803474  0.14238920858372947  0.2402695831326298  1.0000
  O   O11       1.0  0.06522697520745882  0.6423898307642161  0.7402693621557574  1.0000
  O   O12       1.0  0.5652277875929812  0.8576102822413604  0.7597313156534539  1.0000
