data_image0
_chemical_formula_structural       Zn6H36C24O36
_chemical_formula_sum              "Zn6 H36 C24 O36"
_cell_length_a       7.7639182971564225
_cell_length_b       10.153845941620206
_cell_length_c       14.696021097136974
_cell_angle_alpha    90.00046852498609
_cell_angle_beta     89.99964461945154
_cell_angle_gamma    114.55705902574623

_space_group_name_H-M_alt    "P 1"
_space_group_IT_number       1

loop_
  _space_group_symop_operation_xyz
  'x, y, z'

loop_
  _atom_site_type_symbol
  _atom_site_label
  _atom_site_symmetry_multiplicity
  _atom_site_fract_x
  _atom_site_fract_y
  _atom_site_fract_z
  _atom_site_occupancy
  Zn  Zn1       1.0  0.5059863084395744  0.7825564147549142  0.8974647578039383  1.0000
  Zn  Zn2       1.0  0.00598021810584733  0.78255518679682  0.6025347210070323  1.0000
  Zn  Zn3       1.0  0.49401287793064336  0.21744095673577843  0.10253505880685052  1.0000
  Zn  Zn4       1.0  0.9940161939973959  0.21744428410152483  0.3974650956143152  1.0000
  Zn  Zn5       1.0  0.49999567816706053  0.49999672793440914  0.9999971491579348  1.0000
  Zn  Zn6       1.0  0.9999979558271688  0.5000015866995823  0.4999984142385331  1.0000
  H   H1        1.0  0.19472019720042522  0.8424295582091971  0.9036582694088084  1.0000
  H   H2        1.0  0.6947143849775372  0.8424309133339561  0.5963416204332862  1.0000
  H   H3        1.0  0.8052903735972305  0.15757980917584286  0.0963449494994393  1.0000
  H   H4        1.0  0.30529189948540386  0.157575162507996  0.40365683527843293  1.0000
  H   H5        1.0  0.3224666724560024  0.8849433896606909  0.9935457794611581  1.0000
  H   H6        1.0  0.8224612841546203  0.8849460349880685  0.5064539394650609  1.0000
  H   H7        1.0  0.6775527834991734  0.11506076205593269  0.006454717592461602  1.0000
  H   H8        1.0  0.17754313830905488  0.1150589363741332  0.4935438357902201  1.0000
  H   H9        1.0  0.7552739968736546  0.8993472864108225  0.02890170015093931  1.0000
  H   H10       1.0  0.25526952488277743  0.899347478588808  0.471100436408996  1.0000
  H   H11       1.0  0.24471549207541443  0.10064133693951759  0.9711056014696312  1.0000
  H   H12       1.0  0.7447309986098104  0.100657427059069  0.5289000606776  1.0000
  H   H13       1.0  0.8567151962524874  0.8951264520150841  0.9360776838767607  1.0000
  H   H14       1.0  0.3567101004805834  0.8951237969736424  0.5639233431275488  1.0000
  H   H15       1.0  0.1432800911285028  0.1048708537871192  0.0639302982156664  1.0000
  H   H16       1.0  0.6432879986652225  0.10487892162704067  0.4360764735003998  1.0000
  H   H17       1.0  0.5570333925842519  0.899397611494919  0.7329422478994374  1.0000
  H   H18       1.0  0.05701759592421508  0.8993838495728994  0.7670618203664219  1.0000
  H   H19       1.0  0.4429788277876057  0.10060749134436257  0.2670602905375575  1.0000
  H   H20       1.0  0.9429773040818147  0.10061023041668446  0.23294207897960462  1.0000
  H   H21       1.0  0.6311452813595011  0.021991407641415592  0.8114628958864644  1.0000
  H   H22       1.0  0.13112094773238428  0.02198425945896789  0.6885433633954963  1.0000
  H   H23       1.0  0.3688665516215293  0.9780104694078414  0.1885403229981719  1.0000
  H   H24       1.0  0.8688717403541942  0.9780130025057044  0.3114605359632918  1.0000
  H   H25       1.0  0.9787217954121628  0.4113112431621956  0.1781430485580842  1.0000
  H   H26       1.0  0.47872144195023464  0.41130363317402885  0.32185418933193694  1.0000
  H   H27       1.0  0.02127535398849289  0.5886871670906968  0.8218594898841616  1.0000
  H   H28       1.0  0.5212762323681089  0.5886883473433212  0.6781361008777227  1.0000
  H   H29       1.0  0.05099651904112797  0.4656925686256841  0.06524953117492062  1.0000
  H   H30       1.0  0.5509822663362486  0.46568522696176734  0.43474873148150556  1.0000
  H   H31       1.0  0.9490026673200161  0.5343048028779263  0.93475300726103  1.0000
  H   H32       1.0  0.44900704770145694  0.5343055395465798  0.5652442805634266  1.0000
  H   H33       1.0  0.40970284764705406  0.7295798367998215  0.2712435596652867  1.0000
  H   H34       1.0  0.9096896174660357  0.7295748267322109  0.22875573573156774  1.0000
  H   H35       1.0  0.5903036117680501  0.2704240958260086  0.7287569374088465  1.0000
  H   H36       1.0  0.09029643488938177  0.270431981118996  0.7712399981900192  1.0000
  C   C1        1.0  0.3444186942954487  0.7055594566287409  0.09640103335960501  1.0000
  C   C2        1.0  0.8444108349534999  0.7055637275941534  0.40359969710473115  1.0000
  C   C3        1.0  0.6555836537348368  0.29443904124110526  0.9035974223367021  1.0000
  C   C4        1.0  0.15558392758914152  0.29444000783058744  0.5963967172501229  1.0000
  C   C5        1.0  0.2534160089351758  0.5896624641267677  0.16608501551924354  1.0000
  C   C6        1.0  0.7534046774143163  0.589658495854209  0.3339214677686613  1.0000
  C   C7        1.0  0.7465895007347783  0.4103371601512791  0.8339182033691873  1.0000
  C   C8        1.0  0.2465878357404988  0.410340909297524  0.6660742661210934  1.0000
  C   C9        1.0  0.10139999696871627  0.44885594497377906  0.1325798701599865  1.0000
  C   C10       1.0  0.6013936408602161  0.4488523822605827  0.3674188119539465  1.0000
  C   C11       1.0  0.8986017887004465  0.5511414703479925  0.8674226682718569  1.0000
  C   C12       1.0  0.3986018215296099  0.5511427802447811  0.6325742000936361  1.0000
  C   C13       1.0  0.1606124592069094  0.32520528407550126  0.12012774810597192  1.0000
  C   C14       1.0  0.6606153301371405  0.32520736192278576  0.37987275104411117  1.0000
  C   C15       1.0  0.8393893264645128  0.6747921312430449  0.8798741098695828  1.0000
  C   C16       1.0  0.3393887049425146  0.6747943836396998  0.6201236632899239  1.0000
  C   C17       1.0  0.3067717226133695  0.6209725635514615  0.2534215837303293  1.0000
  C   C18       1.0  0.8067637847505011  0.6209731792502637  0.24657401892894634  1.0000
  C   C19       1.0  0.6932293257606404  0.3790259124125369  0.74657755242432  1.0000
  C   C20       1.0  0.19322504187415754  0.3790315291900654  0.7534210345257862  1.0000
  C   C21       1.0  0.22157549620803252  0.5222205616056356  0.33098460919614336  1.0000
  C   C22       1.0  0.721571936577746  0.5222129947597692  0.1690188674811353  1.0000
  C   C23       1.0  0.7784250272709556  0.47778434406161086  0.6690199706281917  1.0000
  C   C24       1.0  0.2784285869307083  0.4777919108655053  0.8309768664114261  1.0000
  O   O1        1.0  0.3277476137760684  0.8812430173869498  0.9260438157441943  1.0000
  O   O2        1.0  0.8277426879960854  0.8812430994289426  0.5739585865024566  1.0000
  O   O3        1.0  0.6722648190276529  0.11876745446815559  0.07395804225162551  1.0000
  O   O4        1.0  0.17225931011174112  0.11875968489897559  0.42604123011934564  1.0000
  O   O5        1.0  0.7645852373685003  0.9279294720578618  0.9651762805966373  1.0000
  O   O6        1.0  0.26457903580497083  0.9279265189769245  0.5348272765204458  1.0000
  O   O7        1.0  0.2354070633113849  0.0720645641393887  0.03483306240381271  1.0000
  O   O8        1.0  0.7354166389872461  0.072074012586242  0.4651739010177352  1.0000
  O   O9        1.0  0.6289968080778083  0.9288793656230895  0.7902645340513531  1.0000
  O   O10       1.0  0.1289756698466603  0.9288714017468889  0.7097367479914214  1.0000
  O   O11       1.0  0.3710131629084898  0.0711214069399588  0.20973664346425386  1.0000
  O   O12       1.0  0.8710138565957165  0.07112473381603478  0.2902637490878136  1.0000
  O   O13       1.0  0.3468756370916494  0.8289244443977278  0.10684638863939712  1.0000
  O   O14       1.0  0.8468652105500566  0.8289210601943395  0.3931584465313805  1.0000
  O   O15       1.0  0.6531447311267087  0.17107650343795197  0.8931547888598035  1.0000
  O   O16       1.0  0.15313211381862857  0.17107520681983596  0.6068413700792521  1.0000
  O   O17       1.0  0.41174072229519953  0.6678535979924332  0.0250787891560975  1.0000
  O   O18       1.0  0.9117301383630901  0.6678542155454606  0.47492558779935484  1.0000
  O   O19       1.0  0.588244130417095  0.3321360202438369  0.9749189860868129  1.0000
  O   O20       1.0  0.08825548911499229  0.33214185429345366  0.525075589742329  1.0000
  O   O21       1.0  0.03512445774161682  0.19514993233796218  0.12432803450256813  1.0000
  O   O22       1.0  0.5351295685543745  0.19514878838058536  0.3756789286288296  1.0000
  O   O23       1.0  0.9648765906074599  0.8048485436615492  0.8756785866712705  1.0000
  O   O24       1.0  0.4648735167846566  0.8048486488276649  0.6243188466069327  1.0000
  O   O25       1.0  0.3336305870994991  0.35561866956930993  0.10224312145444975  1.0000
  O   O26       1.0  0.8336413492433363  0.35562641758879465  0.3977522265657001  1.0000
  O   O27       1.0  0.6663674745870053  0.644376536770359  0.8977532928704763  1.0000
  O   O28       1.0  0.1663669721823666  0.6443786195006493  0.6022455486834207  1.0000
  O   O29       1.0  0.16388871036129155  0.38610016219118376  0.31733095565110864  1.0000
  O   O30       1.0  0.6638820730637532  0.3860894553091682  0.18267328578028955  1.0000
  O   O31       1.0  0.8361196110326714  0.6139048749434578  0.6826763459860815  1.0000
  O   O32       1.0  0.3361271606432652  0.6139123778734897  0.8173197262640883  1.0000
  O   O33       1.0  0.2133569254791539  0.5844888552562323  0.40528790695794475  1.0000
  O   O34       1.0  0.7133542108261679  0.5844762968144792  0.09471255276235983  1.0000
  O   O35       1.0  0.7866412111372867  0.41552137558931435  0.5947119096915829  1.0000
  O   O36       1.0  0.2866412890274859  0.41552637794544006  0.9052825006756606  1.0000
