data_image0
_chemical_formula_structural       Co4H48C56N16O16
_chemical_formula_sum              "Co4 H48 C56 N16 O16"
_cell_length_a       8.06383846
_cell_length_b       11.568043311496119
_cell_length_c       16.626
_cell_angle_alpha    90.0
_cell_angle_beta     90.0
_cell_angle_gamma    100.98969952999191

_space_group_name_H-M_alt    "P 1"
_space_group_IT_number       1

loop_
  _space_group_symop_operation_xyz
  'x, y, z'

loop_
  _atom_site_type_symbol
  _atom_site_label
  _atom_site_symmetry_multiplicity
  _atom_site_fract_x
  _atom_site_fract_y
  _atom_site_fract_z
  _atom_site_occupancy
  Co  Co1       1.0  0.8489622888697779  0.4205222823854839  0.3004300493203402  1.0000
  Co  Co2       1.0  0.1510359578007083  0.0794784921016216  0.8004300493203402  1.0000
  Co  Co3       1.0  0.15103649370355043  0.5794792665887343  0.6995705521472361  1.0000
  Co  Co4       1.0  0.8489623431316602  0.9205212956739359  0.19956934921207656  1.0000
  H   H1        1.0  0.9797526123930426  0.1828036139313767  0.5395591242631994  1.0000
  H   H2        1.0  0.020249631412340815  0.3171936381584288  0.0395621316011088  1.0000
  H   H3        1.0  0.020247205465807404  0.8171926514468878  0.4604384698664745  1.0000
  H   H4        1.0  0.9797516673712039  0.6828035078191519  0.960439071334058  1.0000
  H   H5        1.0  0.8871760984220742  0.0120915093351854  0.4219301094670983  1.0000
  H   H6        1.0  0.11282142578696863  0.4879066233539433  0.9219325153374243  1.0000
  H   H7        1.0  0.11281948148140221  0.9879073978410486  0.5780668831949924  1.0000
  H   H8        1.0  0.8871749125797522  0.5120905226236445  0.0780686875977352  1.0000
  H   H9        1.0  0.8056764180820933  0.1392201115261287  0.2919078551666061  1.0000
  H   H10       1.0  0.1943203476637052  0.3607797823616536  0.7919096595693489  1.0000
  H   H11       1.0  0.19432064274607092  0.860779676249436  0.7080897389630678  1.0000
  H   H12       1.0  0.8056754730602478  0.6392200054139039  0.2080903404306511  1.0000
  H   H13       1.0  0.3727106031151024  0.7417261698711641  0.3063869842415485  1.0000
  H   H14       1.0  0.6272919540327351  0.7582743923915061  0.8063887886442913  1.0000
  H   H15       1.0  0.6272928990545736  0.2582744985037237  0.693611812823292  1.0000
  H   H16       1.0  0.3727085862875654  0.2417245147847282  0.1936124142908682  1.0000
  H   H17       1.0  0.4897094250292824  0.5489673805676887  0.24851978828341004  1.0000
  H   H18       1.0  0.5102901702691794  0.9510314204963278  0.7485191868158338  1.0000
  H   H19       1.0  0.5102911152910181  0.45103152660854556  0.75148021171659  1.0000
  H   H20       1.0  0.4897064089180176  0.0489666060805831  0.25148021171659  1.0000
  H   H21       1.0  0.1986314849726085  0.3803396545743992  0.2305292914711927  1.0000
  H   H22       1.0  0.801365280773183  0.11966023931338299  0.7305292914711929  1.0000
  H   H23       1.0  0.8013655758555488  0.6196601332011653  0.7694701070612311  1.0000
  H   H24       1.0  0.1986315392344906  0.8803386678628583  0.2694695055936478  1.0000
  H   H25       1.0  0.5666789075076367  0.4204553568367615  0.07474136894021653  1.0000
  H   H26       1.0  0.43332181937125813  0.0795454176503441  0.574742571875376  1.0000
  H   H27       1.0  0.4333238361987953  0.5795470727367729  0.925257428124624  1.0000
  H   H28       1.0  0.5666802018737301  0.9204543701252206  0.425257428124624  1.0000
  H   H29       1.0  0.4429813798771463  0.37008595603103334  0.9385871526524738  1.0000
  H   H30       1.0  0.5570218272101641  0.1299148184560721  0.4385889570552166  1.0000
  H   H31       1.0  0.5570268058870838  0.6299182347411545  0.06141044147720721  1.0000
  H   H32       1.0  0.4429833967046761  0.8700876111174694  0.5614134488151095  1.0000
  H   H33       1.0  0.4881628351986365  0.1869979085176041  0.8700643570311541  1.0000
  H   H34       1.0  0.5118445738422537  0.313004627168155  0.3700655599663207  1.0000
  H   H35       1.0  0.511847830774002  0.8130062822545838  0.12993444003367935  1.0000
  H   H36       1.0  0.4881640935629292  0.6870013248026865  0.6299374473715889  1.0000
  H   H37       1.0  0.6423187437944691  0.050100818011522094  0.9400763863827706  1.0000
  H   H38       1.0  0.3576844632928413  0.4498999564755835  0.4400763863827707  1.0000
  H   H39       1.0  0.3576852400161741  0.9499016115620194  0.0599242150848056  1.0000
  H   H40       1.0  0.6423167994889029  0.5501015924986277  0.5599260194875484  1.0000
  H   H41       1.0  0.9617279948968687  0.3767151077516147  0.4734151329243375  1.0000
  H   H42       1.0  0.0382742489085146  0.1232821443381908  0.9734163358594969  1.0000
  H   H43       1.0  0.03827206378247179  0.6232820382259661  0.5265842656080864  1.0000
  H   H44       1.0  0.961729770903922  0.8767158822387273  0.0265842656080864  1.0000
  H   H45       1.0  0.04993801773311193  0.6752365178171686  0.31813304462889397  1.0000
  H   H46       1.0  0.9500635401309978  0.8247649250448248  0.8181336460964772  1.0000
  H   H47       1.0  0.9500644851528435  0.3247650311570425  0.6818669553711061  1.0000
  H   H48       1.0  0.0499372410097791  0.17523486273073977  0.18186695537110614  1.0000
  C   C1        1.0  0.9385499583822251  0.1895912735305032  0.4778401299169985  1.0000
  C   C2        1.0  0.061451286139430315  0.3104068591586255  0.9778401299169985  1.0000
  C   C3        1.0  0.061449101013387485  0.8104067530464079  0.5221598700830015  1.0000
  C   C4        1.0  0.9385500126441144  0.6895902868189552  0.022161674485744208  1.0000
  C   C5        1.0  0.8911387406903941  0.10587885987301598  0.417818477084083  1.0000
  C   C6        1.0  0.10885978280236941  0.3941183922167895  0.9178202814868258  1.0000
  C   C7        1.0  0.10885659839259888  0.894119166703902  0.5821797185131743  1.0000
  C   C8        1.0  0.8911385181299991  0.6058813955587681  0.0821797185131743  1.0000
  C   C9        1.0  0.8499414693181676  0.1694281907799535  0.3512775171418241  1.0000
  C   C10       1.0  0.1500585350992836  0.3305699419091752  0.8512787200769907  1.0000
  C   C11       1.0  0.15005659079371725  0.8305707163962879  0.6487218813905926  1.0000
  C   C12       1.0  0.8499395250126014  0.6694289652670591  0.1487206784554331  1.0000
  C   C13       1.0  0.3037237627186187  0.654833912050151  0.2903548658727289  1.0000
  C   C14       1.0  0.696277795145491  0.8451675308118496  0.7903560688078886  1.0000
  C   C15       1.0  0.696278499346846  0.34516675632473687  0.7096445326596879  1.0000
  C   C16       1.0  0.3037205057868775  0.1548322569637151  0.2096439311921117  1.0000
  C   C17       1.0  0.3603194345418075  0.5571569542926369  0.2598929387705979  1.0000
  C   C18       1.0  0.6396804015771308  0.9428427273707098  0.7598935402381812  1.0000
  C   C19       1.0  0.6396798656742818  0.4428419528836045  0.7401058582942357  1.0000
  C   C20       1.0  0.3603223781311016  0.057155299206201  0.2401064597618188  1.0000
  C   C21       1.0  0.21459797966004865  0.4702576516770165  0.2516714784073173  1.0000
  C   C22       1.0  0.7854000261899544  0.029742242210765792  0.7516714784073173  1.0000
  C   C23       1.0  0.7854005620928035  0.5297430166978714  0.7483279201251065  1.0000
  C   C24       1.0  0.21459655299724295  0.9702557843661522  0.2483279201251065  1.0000
  C   C25       1.0  0.7673119503636983  0.3034853484620612  0.1594677011909056  1.0000
  C   C26       1.0  0.2326887765151966  0.19651542602504427  0.6594695055936484  1.0000
  C   C27       1.0  0.23269055252225712  0.6965162005121499  0.8405316973415113  1.0000
  C   C28       1.0  0.7673105237008926  0.80348348115119  0.3405310958739349  1.0000
  C   C29       1.0  0.6733983261883125  0.264208857356671  0.08372488872849712  1.0000
  C   C30       1.0  0.3266021598701059  0.23579103653110417  0.5837260916636566  1.0000
  C   C31       1.0  0.3266041766976429  0.7357926916175401  0.9162745098039196  1.0000
  C   C32       1.0  0.6733956594213026  0.7642069900458068  0.41627390833634353  1.0000
  C   C33       1.0  0.5811124449137282  0.3389858296607215  0.044962709009986716  1.0000
  C   C34       1.0  0.4188912438145493  0.1610167060250376  0.5449639119451462  1.0000
  C   C35       1.0  0.4188930198216029  0.6610174805121432  0.9550354865872706  1.0000
  C   C36       1.0  0.5811097781467183  0.8389839623498503  0.4550372909900133  1.0000
  C   C37       1.0  0.513982323405017  0.31129890627511964  0.9685282088295466  1.0000
  C   C38       1.0  0.4860208836822935  0.1887018682119859  0.4685294117647062  1.0000
  C   C39       1.0  0.4860246222550018  0.6887052844970682  0.0314705882352939  1.0000
  C   C40       1.0  0.5139803790994507  0.8112996807622253  0.5314717911704534  1.0000
  C   C41       1.0  0.5384267104855596  0.20844666628303798  0.9301978828341149  1.0000
  C   C42       1.0  0.4615757381385066  0.2915558694027212  0.43019848430169827  1.0000
  C   C43       1.0  0.4615802351744591  0.79155752448915  0.0698009142307257  1.0000
  C   C44       1.0  0.5384272463884089  0.7084474407701435  0.5698027186334684  1.0000
  C   C45       1.0  0.6258856183794421  0.1316363901369613  0.9691994466498245  1.0000
  C   C46       1.0  0.3741173478873847  0.36836350375082105  0.4692006495849839  1.0000
  C   C47       1.0  0.37411960553540524  0.8683660394365802  0.030799951882592304  1.0000
  C   C48       1.0  0.6258836740738758  0.6316371646240668  0.5308011548177518  1.0000
  C   C49       1.0  0.6916635515580509  0.1582287285612551  0.0462690965956938  1.0000
  C   C50       1.0  0.3083342134714684  0.3417702847271968  0.5462684951281105  1.0000
  C   C51       1.0  0.3083352310152776  0.841772820412956  0.9537321063394657  1.0000
  C   C52       1.0  0.6916598855073133  0.6582277418497142  0.4537321063394658  1.0000
  C   C53       1.0  0.7776084968016406  0.0719599350625302  0.08857873210634183  1.0000
  C   C54       1.0  0.2223840669905641  0.4280381976266057  0.5885763262360157  1.0000
  C   C55       1.0  0.22238484371389694  0.9280398527130345  0.9114242752315675  1.0000
  C   C56       1.0  0.7776048307509028  0.5719589483509822  0.411423072296401  1.0000
  N   N1        1.0  0.8720238946873878  0.2850702553721547  0.3695152171297948  1.0000
  N   N2        1.0  0.1279761097300707  0.214927877316974  0.8695170215325376  1.0000
  N   N3        1.0  0.1279756463491921  0.7149295324034028  0.6304835799350386  1.0000
  N   N4        1.0  0.8720219503818214  0.7850710298592674  0.1304841814026219  1.0000
  N   N5        1.0  0.9254595044994574  0.2950175053503301  0.4467574882713806  1.0000
  N   N6        1.0  0.074543220946893  0.204981507938129  0.9467598941417066  1.0000
  N   N7        1.0  0.07454127664132672  0.7049822824252345  0.5532407073258767  1.0000
  N   N8        1.0  0.9254588002980955  0.7950182798374357  0.0532407073258767  1.0000
  N   N9        1.0  0.07734257187757272  0.5116836857353704  0.2757271743053025  1.0000
  N   N10       1.0  0.9226589859865371  0.9883177571266231  0.7757277757728858  1.0000
  N   N11       1.0  0.922658931724648  0.488318743838164  0.7242728256946978  1.0000
  N   N12       1.0  0.0773403142295592  0.011681150049618299  0.2242716227595309  1.0000
  N   N13       1.0  0.13447737628520431  0.624281518460144  0.2990268254541065  1.0000
  N   N14       1.0  0.8655231822951777  0.8757208050011798  0.7990274269216897  1.0000
  N   N15       1.0  0.8655238864965398  0.3757200305140671  0.7009731745458938  1.0000
  N   N16       1.0  0.13447783966608282  0.1242798633737081  0.2009725730783103  1.0000
  O   O1        1.0  0.6977885535205105  0.36559842186949243  0.20927944183808483  1.0000
  O   O2        1.0  0.3022129318216358  0.1344005914189594  0.7092812462408276  1.0000
  O   O3        1.0  0.3022134677244779  0.634401365906065  0.7907205581619154  1.0000
  O   O4        1.0  0.697788848602876  0.8655983157572749  0.2907193552267558  1.0000
  O   O5        1.0  0.9130057277128855  0.2810529612503103  0.1709334776855513  1.0000
  O   O6        1.0  0.086998237837669  0.21894605203814876  0.6709364850234607  1.0000
  O   O7        1.0  0.086998015277274  0.7189485877239078  0.8290641164441228  1.0000
  O   O8        1.0  0.9130003399169765  0.7810502133401158  0.3290653193792821  1.0000
  O   O9        1.0  0.9017315040051983  0.0382620406826817  0.0570317574882679  1.0000
  O   O10       1.0  0.09825885640087512  0.46173256960914694  0.5570281486827895  1.0000
  O   O11       1.0  0.09826235415309985  0.961735105294906  0.9429718513172105  1.0000
  O   O12       1.0  0.9017303181628762  0.5382610539711408  0.4429700469144678  1.0000
  O   O13       1.0  0.7151721944703553  0.0325918616273171  0.1572212197762539  1.0000
  O   O14       1.0  0.28482033332004875  0.4674106740584421  0.6572182124383517  1.0000
  O   O15       1.0  0.28482038758193806  0.9674096873469011  0.8427811860940724  1.0000
  O   O16       1.0  0.7151682875991412  0.5325899943164458  0.3427805846264889  1.0000
