data_image0
_chemical_formula_structural       Cs2H4C6S6N6
_chemical_formula_sum              "Cs2 H4 C6 S6 N6"
_cell_length_a       5.031546038612146
_cell_length_b       8.02270293905287
_cell_length_c       10.871297548093954
_cell_angle_alpha    96.98491066294508
_cell_angle_beta     102.34971698953862
_cell_angle_gamma    103.97442139271537

_space_group_name_H-M_alt    "P 1"
_space_group_IT_number       1

loop_
  _space_group_symop_operation_xyz
  'x, y, z'

loop_
  _atom_site_type_symbol
  _atom_site_label
  _atom_site_symmetry_multiplicity
  _atom_site_fract_x
  _atom_site_fract_y
  _atom_site_fract_z
  _atom_site_occupancy
  Cs  Cs1       1.0  0.3549997754098371  0.2168612251602653  0.4236455962477734  1.0000
  Cs  Cs2       1.0  0.6450043585318426  0.7831389166459884  0.5763554210309749  1.0000
  H   H1        1.0  0.31358276972673593  0.4573574990201976  0.8813769819343306  1.0000
  H   H2        1.0  0.6864207301116423  0.5426413487568664  0.11862661879824539  1.0000
  H   H3        1.0  0.7394994152601626  0.1213670068875246  0.016928017361202297  1.0000
  H   H4        1.0  0.2604995280032227  0.878630511543399  0.9830694807566404  1.0000
  C   C1        1.0  0.9391326293595983  0.3203878645785211  0.7453190979918957  1.0000
  C   C2        1.0  0.06087005616802094  0.6796135847219347  0.2546818821812593  1.0000
  C   C3        1.0  0.6156688811042272  0.12659979970834462  0.8207913773662766  1.0000
  C   C4        1.0  0.38433181893124413  0.8734016381583274  0.17920663764910216  1.0000
  C   C5        1.0  0.060752694266646735  0.29245719250141616  0.9678200883694856  1.0000
  C   C6        1.0  0.9392493894994092  0.7075429544702487  0.03218163808882219  1.0000
  S   S1        1.0  0.0361564926899476  0.42731514251909186  0.6305843679207399  1.0000
  S   S2        1.0  0.9638415715792092  0.572684994034404  0.36941418397502457  1.0000
  S   S3        1.0  0.30691038212334837  0.9729156547770828  0.8005917999258826  1.0000
  S   S4        1.0  0.6930897161505598  0.0270844807608057  0.1994069613746561  1.0000
  S   S5        1.0  0.29082612284501164  0.3396260193066709  0.11079987124124811  1.0000
  S   S6        1.0  0.7091687038962605  0.660371513604865  0.8891999638200615  1.0000
  N   N1        1.0  0.12034725013748475  0.36428753816672815  0.8662211070866874  1.0000
  N   N2        1.0  0.8796528157946853  0.6357126056707472  0.1337794913825192  1.0000
  N   N3        1.0  0.6906500427402307  0.19625396178010854  0.7222059356905604  1.0000
  N   N4        1.0  0.309350071704543  0.8037461696079832  0.2777919070256374  1.0000
  N   N5        1.0  0.7978794054110026  0.1784778987857081  0.9421290891103452  1.0000
  N   N6        1.0  0.20212069286290565  0.8215222367521805  0.05786967219018631  1.0000
