data_image0
_chemical_formula_structural       Bi2H30C28S4O30
_chemical_formula_sum              "Bi2 H30 C28 S4 O30"
_cell_length_a       7.448375627235311
_cell_length_b       11.096956421932354
_cell_length_c       12.492091114811803
_cell_angle_alpha    81.49885449707999
_cell_angle_beta     86.24618783114774
_cell_angle_gamma    86.99132201147717

_space_group_name_H-M_alt    "P 1"
_space_group_IT_number       1

loop_
  _space_group_symop_operation_xyz
  'x, y, z'

loop_
  _atom_site_type_symbol
  _atom_site_label
  _atom_site_symmetry_multiplicity
  _atom_site_fract_x
  _atom_site_fract_y
  _atom_site_fract_z
  _atom_site_occupancy
  Bi  Bi1       1.0  0.3929799900813506  0.11455268829701035  0.8584685235390167  1.0000
  Bi  Bi2       1.0  0.6070166635295208  0.8854426031305563  0.1415340644820446  1.0000
  H   H1        1.0  0.3122224393326079  0.5656642397098537  0.9459377299528027  1.0000
  H   H2        1.0  0.6877700983426535  0.4343329258023587  0.05405837072763118  1.0000
  H   H3        1.0  0.6498846630694785  0.7132710194457134  0.5975344800988366  1.0000
  H   H4        1.0  0.35012414801569486  0.28672332105402637  0.40246937539014727  1.0000
  H   H5        1.0  0.5949844833133326  0.39586076359032063  0.6692622881248766  1.0000
  H   H6        1.0  0.40501486871569625  0.6041345315569373  0.3307385976773176  1.0000
  H   H7        1.0  0.5209080931720821  0.8608162629044144  0.7168091898742545  1.0000
  H   H8        1.0  0.47909659842083835  0.1391799466191799  0.2831889795683579  1.0000
  H   H9        1.0  0.9188285755542935  0.40175704168188997  0.8306819916587925  1.0000
  H   H10       1.0  0.08116642789273952  0.5982437502370956  0.16931596040969044  1.0000
  H   H11       1.0  0.7675677514950509  0.6121755600458343  0.9898332579933038  1.0000
  H   H12       1.0  0.2324203088267325  0.3878288958688997  0.010164490286776115  1.0000
  H   H13       1.0  0.0140382866894271  0.802858619381624  0.7282653711181836  1.0000
  H   H14       1.0  0.9859593365634114  0.19714305282929703  0.27173637457510574  1.0000
  H   H15       1.0  0.22430293925297926  0.6576468494595601  0.5163751535452263  1.0000
  H   H16       1.0  0.7757053346743988  0.34235661101773474  0.48362756978292504  1.0000
  H   H17       1.0  0.21961629801906213  0.43395803499791447  0.5211976450180913  1.0000
  H   H18       1.0  0.7803961131838405  0.566043581759459  0.47880675788517374  1.0000
  H   H19       1.0  0.031314570428897105  0.10989463727842971  0.9810859170272153  1.0000
  H   H20       1.0  0.9686841871698988  0.890110684783359  0.018914524692299015  1.0000
  H   H21       1.0  0.1474514831557627  0.1609363946360958  0.06198268836731559  1.0000
  H   H22       1.0  0.8525514259451794  0.8390671039489136  0.9380162277503101  1.0000
  H   H23       1.0  0.560112667311259  0.1122956191296538  0.6352521959949016  1.0000
  H   H24       1.0  0.43989567100185667  0.8877069445322547  0.3647482366665712  1.0000
  H   H25       1.0  0.34710568303432143  0.1281139841851058  0.6242808796380288  1.0000
  H   H26       1.0  0.6529013668988027  0.8718876757407727  0.3757189147604619  1.0000
  H   H27       1.0  0.7790165826957037  0.018890286873038103  0.8764391971549867  1.0000
  H   H28       1.0  0.22098787625082386  0.9811095453376452  0.12356252589454897  1.0000
  H   H29       1.0  0.7799022505435361  0.12145353597449572  0.7692653896064099  1.0000
  H   H30       1.0  0.22009672547503106  0.8785481431570475  0.23073470368318988  1.0000
  C   C1        1.0  0.41092967090725097  0.719669068717586  0.8390593759998451  1.0000
  C   C2        1.0  0.5890681348328429  0.2803298978647888  0.16093790157619028  1.0000
  C   C3        1.0  0.38673037165235513  0.5961054342678195  0.8698130667221875  1.0000
  C   C4        1.0  0.613267437644396  0.403893537375339  0.13018340955959218  1.0000
  C   C5        1.0  0.45624592089882293  0.5118247785382692  0.8023870441596301  1.0000
  C   C6        1.0  0.543751985159531  0.4881723539270197  0.19761206243707355  1.0000
  C   C7        1.0  0.5511462885281518  0.5558763660725603  0.7027577031632503  1.0000
  C   C8        1.0  0.4488545703006466  0.44411618988048923  0.2972434724720116  1.0000
  C   C9        1.0  0.5746355952338008  0.6818915474042344  0.6735019454274038  1.0000
  C   C10       1.0  0.4253691966773658  0.31810282800227446  0.32649805303587687  1.0000
  C   C11       1.0  0.5047077640236708  0.7633202092461179  0.740541574859513  1.0000
  C   C12       1.0  0.4952955282010407  0.23667691547618128  0.2594565311822024  1.0000
  C   C13       1.0  0.42845142573764855  0.3806757555744725  0.8314794402757073  1.0000
  C   C14       1.0  0.5715437854591984  0.6193213782319161  0.16852056724562198  1.0000
  C   C15       1.0  0.0675303432949548  0.40430528099031454  0.6756791853138251  1.0000
  C   C16       1.0  0.9324699282169178  0.5956973119988332  0.32431994365025923  1.0000
  C   C17       1.0  0.9858290389901754  0.457079956453157  0.7616452690521243  1.0000
  C   C18       1.0  0.0141671920077613  0.5429226410780359  0.23835481065176367  1.0000
  C   C19       1.0  0.988329194702274  0.5837784672821941  0.759637410818911  1.0000
  C   C20       1.0  0.011668324675653697  0.41622503398502186  0.24036330714796603  1.0000
  C   C21       1.0  0.07418194713984858  0.6573403893360421  0.6692836246323279  1.0000
  C   C22       1.0  0.9258128844898793  0.3426631233938481  0.33071639167066275  1.0000
  C   C23       1.0  0.15900280049146429  0.6008809622182624  0.5848102537944297  1.0000
  C   C24       1.0  0.8410056345832545  0.39911976226576945  0.41519280918197404  1.0000
  C   C25       1.0  0.1551750098779721  0.4759822825956662  0.5877465921969787  1.0000
  C   C26       1.0  0.8448279853146019  0.5240193616291151  0.4122573581183318  1.0000
  C   C27       1.0  0.9010004301593993  0.6416803105693063  0.8484458287671827  1.0000
  C   C28       1.0  0.0989929985454694  0.3583241122984973  0.15155492542915988  1.0000
  S   S1        1.0  0.3166877705705389  0.8261288592923467  0.9209943859188667  1.0000
  S   S2        1.0  0.6833101354878154  0.1738682731729355  0.07900472067783679  1.0000
  S   S3        1.0  0.0525479863280864  0.24616512601572543  0.6742000098491018  1.0000
  S   S4        1.0  0.9474522887404363  0.7538374720342063  0.3257983178207269  1.0000
  O   O1        1.0  0.4720403570819513  0.8872616215863404  0.959694464314701  1.0000
  O   O2        1.0  0.5279561926540169  0.11273549889752839  0.040307095979947895  1.0000
  O   O3        1.0  0.22062186661658956  0.9217630675367732  0.8474924382064868  1.0000
  O   O4        1.0  0.7793746866760288  0.07823405800787948  0.15250832079390614  1.0000
  O   O5        1.0  0.20535886707876475  0.7628747658271279  0.009360477547481625  1.0000
  O   O6        1.0  0.7946379188602393  0.23711873703044256  0.990636727845988  1.0000
  O   O7        1.0  0.3404709015199501  0.33415582681996625  0.9174606439219841  1.0000
  O   O8        1.0  0.6595217151336428  0.6658394742104363  0.08254209354463883  1.0000
  O   O9        1.0  0.4969928545135999  0.3075805723057671  0.7658474802238969  1.0000
  O   O10       1.0  0.503002618148834  0.692411991390266  0.23415469596635316  1.0000
  O   O11       1.0  0.6206946589585414  0.481557831490882  0.6342127446556417  1.0000
  O   O12       1.0  0.3793088982884143  0.5184347281818518  0.3657867287607387  1.0000
  O   O13       1.0  0.11170344326318832  0.18431431397220166  0.7817914159675677  1.0000
  O   O14       1.0  0.8882980700262028  0.8156901048722958  0.218206635454905  1.0000
  O   O15       1.0  0.1719677324520248  0.21453461450374792  0.5833076571526019  1.0000
  O   O16       1.0  0.8280312506798496  0.785467074749377  0.4166908335484932  1.0000
  O   O17       1.0  0.8622443344311534  0.22228341542540872  0.6655211071239933  1.0000
  O   O18       1.0  0.13775448755338  0.7777210098209791  0.3344770439288567  1.0000
  O   O19       1.0  0.8330039467716119  0.5673329223518877  0.9314059425071048  1.0000
  O   O20       1.0  0.1669800837061999  0.432671553287257  0.0685903526300251  1.0000
  O   O21       1.0  0.8918638687069915  0.7558415947161733  0.8441757983716653  1.0000
  O   O22       1.0  0.10813759086661888  0.24416373612608322  0.15582213983473278  1.0000
  O   O23       1.0  0.07952234444640993  0.7787016564678382  0.661604000055746  1.0000
  O   O24       1.0  0.9204765707430694  0.2213009245398894  0.33839758260627656  1.0000
  O   O25       1.0  0.14923537975001014  0.09631692740953922  0.012498505121399698  1.0000
  O   O26       1.0  0.8507635962685641  0.9036847517220111  0.9875015881682001  1.0000
  O   O27       1.0  0.4453364461487865  0.08065948628329521  0.6661544589325031  1.0000
  O   O28       1.0  0.5546693154043396  0.9193412699065603  0.33384469720300547  1.0000
  O   O29       1.0  0.7071652554742512  0.059066720639549396  0.8164512699444585  1.0000
  O   O30       1.0  0.29283623647521045  0.9409376678402239  0.18355158924353523  1.0000
