data_image0
_chemical_formula_structural       Zr6H37C52N7O32
_chemical_formula_sum              "Zr6 H37 C52 N7 O32"
_cell_length_a       14.777716697010367
_cell_length_b       14.77643263698602
_cell_length_c       14.785746845250486
_cell_angle_alpha    60.11167678044265
_cell_angle_beta     60.025138996239576
_cell_angle_gamma    60.09333648826989

_space_group_name_H-M_alt    "P 1"
_space_group_IT_number       1

loop_
  _space_group_symop_operation_xyz
  'x, y, z'

loop_
  _atom_site_type_symbol
  _atom_site_label
  _atom_site_symmetry_multiplicity
  _atom_site_fract_x
  _atom_site_fract_y
  _atom_site_fract_z
  _atom_site_occupancy
  Zr  Zr1       1.0  0.8758507738864483  0.8826662915554805  0.6210632513439266  1.0000
  Zr  Zr2       1.0  0.11622253367043812  0.11898284521924296  0.38441390118990887  1.0000
  Zr  Zr3       1.0  0.11438074008380267  0.8813089463060707  0.6226886648301715  1.0000
  Zr  Zr4       1.0  0.876809604152797  0.12171345027308425  0.38212561118105287  1.0000
  Zr  Zr5       1.0  0.11594657840539206  0.8830284737248633  0.3819651899352721  1.0000
  Zr  Zr6       1.0  0.877225979219247  0.12193829558628982  0.6205936645167186  1.0000
  H   H1        1.0  0.09074175200798594  0.7195205463723725  0.5945689078481352  1.0000
  H   H2        1.0  0.09311157786072496  0.09431022280931237  0.21989609345646946  1.0000
  H   H3        1.0  0.0905492851063698  0.09464455385479914  0.5975913652156564  1.0000
  H   H4        1.0  0.7139691007022221  0.09673305907330855  0.5956236269290757  1.0000
  H   H5        1.0  0.8271669930489907  0.6110260600713814  0.6173767261780015  1.0000
  H   H6        1.0  0.14537047214263046  0.5882252890262906  0.3619988926285274  1.0000
  H   H7        1.0  0.8350147114468526  0.4391251811801452  0.6128347525561041  1.0000
  H   H8        1.0  0.5845877263951992  0.8508548925062128  0.9244798724438539  1.0000
  H   H9        1.0  0.5970056572002491  0.13630018684955292  0.9222411735009218  1.0000
  H   H10       1.0  0.4149004349751807  0.8566691508446026  0.09418557943285336  1.0000
  H   H11       1.0  0.1396897024006947  0.8516424046022449  0.08733949549337446  1.0000
  H   H12       1.0  0.8347087080107015  0.12503648298621084  0.11236086110812961  1.0000
  H   H13       1.0  0.13283619660773363  0.8575488106112416  0.9181764768467816  1.0000
  H   H14       1.0  0.5821267179688618  0.423814240311586  0.6455156478390763  1.0000
  H   H15       1.0  0.5947483877252394  0.41922074748395494  0.3512969362301207  1.0000
  H   H16       1.0  0.41055455139035485  0.5913634819423877  0.6412171570213019  1.0000
  H   H17       1.0  0.9786853514823762  0.5759171205141342  0.7422072973827127  1.0000
  H   H18       1.0  0.9665247012788923  0.41439350946011194  0.7464987274078254  1.0000
  H   H19       1.0  0.9678981806289998  0.244989457410867  0.08125320202218234  1.0000
  H   H20       1.0  0.9615801923843393  0.2469169963470394  0.9181461968029083  1.0000
  H   H21       1.0  0.5852779512177547  0.14085002940992553  0.3478603917719313  1.0000
  H   H22       1.0  0.5945073604396284  0.8515388798352177  0.6381099098925277  1.0000
  H   H23       1.0  0.41529263044861137  0.13357123007283886  0.35522993182516416  1.0000
  H   H24       1.0  0.18726290037051996  0.3316749564076034  0.35044764909385867  1.0000
  H   H25       1.0  0.24477928603721485  0.42866198095960323  0.31152305287271537  1.0000
  H   H26       1.0  0.34874219086238156  0.1710308399316034  0.15851747961059465  1.0000
  H   H27       1.0  0.4533976122171309  0.22474435138940407  0.050428650551481345  1.0000
  H   H28       1.0  0.8125362164657873  0.16313907639214165  0.8622941844138411  1.0000
  H   H29       1.0  0.7604079597722587  0.21370944639258466  0.9697592748762391  1.0000
  H   H30       1.0  0.3578734298490147  0.6668931716127986  0.3170482385431797  1.0000
  H   H31       1.0  0.4715367250044622  0.5684261063627504  0.2586821574526823  1.0000
  H   H32       1.0  0.35547899416673084  0.8162560162684401  0.6653674609542931  1.0000
  H   H33       1.0  0.4663090809028105  0.7618884388025079  0.7127140716674774  1.0000
  H   H34       1.0  0.054734130863579325  0.41787749292009835  0.2306819601766747  1.0000
  H   H35       1.0  0.08106785446963012  0.5386672658232072  0.14766022056786454  1.0000
  H   H36       1.0  0.03866477391881769  0.7401567071037577  0.9220495863589591  1.0000
  H   H37       1.0  0.9938855990796753  0.6917397623131974  0.06312923949594314  1.0000
  C   C1        1.0  0.9896694444085767  0.7053741257303585  0.49443834548462445  1.0000
  C   C2        1.0  0.3073932261432404  0.9984842534534337  0.20154155830851286  1.0000
  C   C3        1.0  0.9952630896032488  0.31163209320550334  0.4949463267018074  1.0000
  C   C4        1.0  0.6975810266615096  0.9970657505722617  0.8100532734879876  1.0000
  C   C5        1.0  0.9928045765467886  0.6989472389871737  0.8080480282171223  1.0000
  C   C6        1.0  0.6968754825113309  0.9993901871174272  0.49552502241030544  1.0000
  C   C7        1.0  0.9938662584102572  0.3078906034716624  0.20020360353183972  1.0000
  C   C8        1.0  0.3054851255328257  0.9949162368286792  0.5010113418454978  1.0000
  C   C9        1.0  0.3045950241704604  0.6993181727505585  0.4981470937115944  1.0000
  C   C10       1.0  0.9878436588369297  0.9972740799775006  0.8142717707758323  1.0000
  C   C11       1.0  0.6975298100343962  0.31045507104136755  0.49905178761364516  1.0000
  C   C12       1.0  0.9923327659382294  0.993961481775955  0.20418041555915076  1.0000
  C   C13       1.0  0.9944153123325846  0.4157141350963301  0.48734350948306837  1.0000
  C   C14       1.0  0.9873065188238926  0.607858540750982  0.48988944487567215  1.0000
  C   C15       1.0  0.08416429126342719  0.45789715910693474  0.4134673248720019  1.0000
  C   C16       1.0  0.8975273640016681  0.5679142961187509  0.561017999983477  1.0000
  C   C17       1.0  0.07754665255573191  0.5547037434840901  0.4167384937429617  1.0000
  C   C18       1.0  0.9023708893486458  0.4732283737580262  0.5584522012578078  1.0000
  C   C19       1.0  0.4097871655451327  0.9986969087333719  0.1042983249418087  1.0000
  C   C20       1.0  0.5993502810426108  0.9947513194291415  0.913744940887689  1.0000
  C   C21       1.0  0.461361611062344  0.07986361431077432  0.05618179918339198  1.0000
  C   C22       1.0  0.5496268405420037  0.9136878360799303  0.9619291973509903  1.0000
  C   C23       1.0  0.5563273138015319  0.07517671256658089  0.9606302066072487  1.0000
  C   C24       1.0  0.4563932632304172  0.9170863651738657  0.05559690528185256  1.0000
  C   C25       1.0  0.9813027667932201  0.9944590224705082  0.9187055752495467  1.0000
  C   C26       1.0  0.9869933539339687  0.9893986446556012  0.10831917486404324  1.0000
  C   C27       1.0  0.8941571209313183  0.07186645290898501  0.9738614079141642  1.0000
  C   C28       1.0  0.07165137594755333  0.9113731228472375  0.05560624347712914  1.0000
  C   C29       1.0  0.8994289342142849  0.0662478722055083  0.06928798772158032  1.0000
  C   C30       1.0  0.06735852375138064  0.915025928533531  0.9624485656813917  1.0000
  C   C31       1.0  0.40580036093789573  0.6006703506015684  0.4945008746883772  1.0000
  C   C32       1.0  0.597593987999609  0.412492038891628  0.4976962558134447  1.0000
  C   C33       1.0  0.45802862563738955  0.5526447452384673  0.40974974202420367  1.0000
  C   C34       1.0  0.5468085400824236  0.4603080606161711  0.5807618420118459  1.0000
  C   C35       1.0  0.5539141897139572  0.45820830984813193  0.41424624431587637  1.0000
  C   C36       1.0  0.4523739336166911  0.5526606827976509  0.577946590651294  1.0000
  C   C37       1.0  0.9974335905922939  0.596123317000192  0.9055638302901488  1.0000
  C   C38       1.0  0.9839228540748121  0.5045009639046684  0.9089567234394665  1.0000
  C   C39       1.0  0.01593960032035808  0.5903042587028011  0.9924172203877151  1.0000
  C   C40       1.0  0.9778975757654466  0.5034726784765696  0.81658237356168  1.0000
  C   C41       1.0  0.9698859437281229  0.412899734016044  0.8192385348150567  1.0000
  C   C42       1.0  0.9961138350147463  0.405924746057103  0.09765141200570344  1.0000
  C   C43       1.0  0.017431930834327043  0.49242251130689146  0.08939701225406792  1.0000
  C   C44       1.0  0.9811765218720794  0.408932843084955  0.007072818587183008  1.0000
  C   C45       1.0  0.9716549180542841  0.317697945334487  0.007313052077606319  1.0000
  C   C46       1.0  0.9666664428428431  0.3192837133081029  0.9156325674184915  1.0000
  C   C47       1.0  0.40751763319942563  0.9906542745769115  0.5008445257991312  1.0000
  C   C48       1.0  0.5982427861799663  0.9960708777022305  0.49410691837301357  1.0000
  C   C49       1.0  0.45880168683842737  0.9074252432337816  0.5823542216963633  1.0000
  C   C50       1.0  0.5491400280399219  0.07691218427030579  0.4123838585481537  1.0000
  C   C51       1.0  0.5543843001968511  0.9130107296707166  0.5762937940596516  1.0000
  C   C52       1.0  0.4553856841549618  0.07276422346552641  0.4171211558222084  1.0000
  N   N1        1.0  0.176261078801531  0.40989063779161933  0.338708031013077  1.0000
  N   N2        1.0  0.4243262481502511  0.16045341834293947  0.09873641126932851  1.0000
  N   N3        1.0  0.8063430471653562  0.15045910250479713  0.9390338176298842  1.0000
  N   N4        1.0  0.41834477429964767  0.591705213682431  0.3262898305895733  1.0000
  N   N5        1.0  0.4188620663602691  0.8248553484420356  0.6664411234339624  1.0000
  N   N6        1.0  0.03412674029264184  0.49306710256317393  0.17286161635427533  1.0000
  N   N7        1.0  0.03597345430253512  0.6728446436098282  0.9920589483794797  1.0000
  O   O1        1.0  0.9142265196976709  0.7423259868883038  0.5734229265320608  1.0000
  O   O2        1.0  0.26289082968622074  0.0766905568271739  0.2423899785099692  1.0000
  O   O3        1.0  0.07487045555564012  0.2660669603785805  0.42169080611641635  1.0000
  O   O4        1.0  0.7347573746174875  0.9222507654211685  0.7685641556144844  1.0000
  O   O5        1.0  0.0676020767328822  0.7418762763367397  0.7696336454089022  1.0000
  O   O6        1.0  0.7343744748879358  0.07815203247602652  0.4204750735494188  1.0000
  O   O7        1.0  0.9178586909513979  0.2667838884991697  0.24084047795313532  1.0000
  O   O8        1.0  0.2617912986491148  0.919744595302305  0.578511337449342  1.0000
  O   O9        1.0  0.2621405006974271  0.7412685357021896  0.42191461187692175  1.0000
  O   O10       1.0  0.9158415455389601  0.07782352593957853  0.7682752921551596  1.0000
  O   O11       1.0  0.7358121691028998  0.2697884026567505  0.5772399574893046  1.0000
  O   O12       1.0  0.07283347084897661  0.9208002591218333  0.23955779257043017  1.0000
  O   O13       1.0  0.0654142880868346  0.9210188411795102  0.7736711561963431  1.0000
  O   O14       1.0  0.7366543689752804  0.2696064141947261  0.4232614046294928  1.0000
  O   O15       1.0  0.9173875064747747  0.07242962408773225  0.24226216079251384  1.0000
  O   O16       1.0  0.2630918800175907  0.7377493831456546  0.5764982909806308  1.0000
  O   O17       1.0  0.9164023451487037  0.7394757009215028  0.7678497412859074  1.0000
  O   O18       1.0  0.2640942338561345  0.07348540113019907  0.4258165113851576  1.0000
  O   O19       1.0  0.06904944785848942  0.2690511858181068  0.24266210692041312  1.0000
  O   O20       1.0  0.7356269646624585  0.924112518840566  0.5733024053624477  1.0000
  O   O21       1.0  0.7364326079694549  0.07505131182085725  0.7688535123789395  1.0000
  O   O22       1.0  0.0688579962701753  0.7428260416975047  0.4206436384684267  1.0000
  O   O23       1.0  0.26624386569515196  0.9229458004380079  0.23982177720599657  1.0000
  O   O24       1.0  0.9195297738690654  0.27123410471298115  0.5730200977585866  1.0000
  O   O25       1.0  0.7942607801525269  0.06993628821547311  0.5688469262462165  1.0000
  O   O26       1.0  0.06350985994865253  0.06805898469839633  0.5708576580159743  1.0000
  O   O27       1.0  0.0645610979763021  0.06851770576917461  0.30010705462095894  1.0000
  O   O28       1.0  0.06275968731862464  0.7997388272634112  0.569112016122105  1.0000
  O   O29       1.0  0.1457957035316186  0.9509474342419962  0.45338205833322587  1.0000
  O   O30       1.0  0.9468822199954445  0.952730358672838  0.4519767501622243  1.0000
  O   O31       1.0  0.9473443663744731  0.15051221895443936  0.45245657860199645  1.0000
  O   O32       1.0  0.9460181228311269  0.9526180698265777  0.6504844782245557  1.0000
