data_image0
_chemical_formula_structural       La2H20C16S2O20
_chemical_formula_sum              "La2 H20 C16 S2 O20"
_cell_length_a       7.7877580453331765
_cell_length_b       8.564060400625653
_cell_length_c       10.854138818753436
_cell_angle_alpha    70.03240053833792
_cell_angle_beta     88.40689853765575
_cell_angle_gamma    70.57107535341773

_space_group_name_H-M_alt    "P 1"
_space_group_IT_number       1

loop_
  _space_group_symop_operation_xyz
  'x, y, z'

loop_
  _atom_site_type_symbol
  _atom_site_label
  _atom_site_symmetry_multiplicity
  _atom_site_fract_x
  _atom_site_fract_y
  _atom_site_fract_z
  _atom_site_occupancy
  La  La1       1.0  0.675061406314633  0.22443631727939822  0.11760786348411051  1.0000
  La  La2       1.0  0.32494224115234954  0.7755570779755417  0.8823928604535353  1.0000
  H   H1        1.0  0.08714815303589771  0.9453276851141865  0.12829903706341378  1.0000
  H   H2        1.0  0.9128575187083572  0.05467098277633651  0.8717020462004896  1.0000
  H   H3        1.0  0.1003904365304749  0.1274524920953297  0.1307900942061693  1.0000
  H   H4        1.0  0.8996125228541061  0.8725501548973469  0.869208143393962  1.0000
  H   H5        1.0  0.7979184287856498  0.0511926281238715  0.43723820904552463  1.0000
  H   H6        1.0  0.20207975479897294  0.948812677015191  0.5627603613787001  1.0000
  H   H7        1.0  0.9676198714343655  0.08162999127772962  0.3603511242261135  1.0000
  H   H8        1.0  0.03237914697025697  0.9183766295417614  0.6396479883456934  1.0000
  H   H9        1.0  0.7486599443506776  0.5755393965679404  0.08030548354792437  1.0000
  H   H10       1.0  0.25134271395671703  0.42445665493865903  0.9196908628569174  1.0000
  H   H11       1.0  0.9456419002896439  0.4174916591948019  0.14203225588541105  1.0000
  H   H12       1.0  0.0543593894549446  0.5825083564370105  0.8579648974195634  1.0000
  H   H13       1.0  0.24266311877427435  0.16431952160371582  0.5788216649203405  1.0000
  H   H14       1.0  0.7573234785642737  0.8356897738092786  0.4211825929397647  1.0000
  H   H15       1.0  0.22864155363732414  0.3593053837634629  0.7030662494562491  1.0000
  H   H16       1.0  0.7713539895729797  0.6407038878200739  0.29693408355379347  1.0000
  H   H17       1.0  0.24445418332783928  0.660661877512972  0.5872005740382136  1.0000
  H   H18       1.0  0.7555465582768618  0.3393434204560253  0.4127970066645616  1.0000
  H   H19       1.0  0.2772701315083452  0.7599905639093835  0.34745211142604393  1.0000
  H   H20       1.0  0.7227369087987157  0.2400041398559267  0.6525481649377268  1.0000
  C   C1        1.0  0.3131830247112432  0.5873402550516645  0.1838125698889428  1.0000
  C   C2        1.0  0.6868214575757392  0.4126544558837041  0.8161886961962779  1.0000
  C   C3        1.0  0.2841868288683072  0.5171831069354128  0.3262594872686861  1.0000
  C   C4        1.0  0.7158141926214369  0.4828142522324726  0.6737439209046981  1.0000
  C   C5        1.0  0.27423265540589625  0.3475720126987696  0.3934215246574411  1.0000
  C   C6        1.0  0.7257631101011552  0.6524293302097918  0.6065809492235559  1.0000
  C   C7        1.0  0.2525610342042982  0.29372501317067895  0.5278765449537559  1.0000
  C   C8        1.0  0.747427286334336  0.706282959391821  0.47212618103731063  1.0000
  C   C9        1.0  0.24333682441373136  0.40531717484466884  0.5978596743376697  1.0000
  C   C10       1.0  0.7566567089163743  0.5946868215717558  0.402141220996036  1.0000
  C   C11       1.0  0.25209391692401795  0.5731050560691598  0.532832933433852  1.0000
  C   C12       1.0  0.7479034750318191  0.4268989257948733  0.4671678597925463  1.0000
  C   C13       1.0  0.2700244127467783  0.6287839154151059  0.398121049605784  1.0000
  C   C14       1.0  0.7299803562203238  0.37121739353787586  0.6018811860248121  1.0000
  C   C15       1.0  0.5834022028999685  0.9156384414733054  0.036288176452394814  1.0000
  C   C16       1.0  0.4165962421444078  0.0843549833109662  0.963708997028661  1.0000
  S   S1        1.0  0.2832181257914499  0.1950128480268276  0.3127241581201758  1.0000
  S   S2        1.0  0.7167832647326406  0.8049871498842552  0.687279446734223  1.0000
  O   O1        1.0  0.42396914456819  0.48818744660843566  0.1296248575969585  1.0000
  O   O2        1.0  0.576032794095781  0.5118072689654625  0.870378319859647  1.0000
  O   O3        1.0  0.22997621200154578  0.7501701230041818  0.11766762479006583  1.0000
  O   O4        1.0  0.7700243252772694  0.24982461767278613  0.8823282135029658  1.0000
  O   O5        1.0  0.4771618218857654  0.11325985852051451  0.2952735566747791  1.0000
  O   O6        1.0  0.5228404754436868  0.8867414424133244  0.7047351985767776  1.0000
  O   O7        1.0  0.17032926725132574  0.2947565738520694  0.1858536048481056  1.0000
  O   O8        1.0  0.8296764332870764  0.7052420889753893  0.8141493217156323  1.0000
  O   O9        1.0  0.2103145999553817  0.06178813310361873  0.3995220398565208  1.0000
  O   O10       1.0  0.7896862815918413  0.9382131954648261  0.6004784545815552  1.0000
  O   O11       1.0  0.7012423890637367  0.9298163877029993  0.10508710217429501  1.0000
  O   O12       1.0  0.2987628560578841  0.07017965157046291  0.8949100978089248  1.0000
  O   O13       1.0  0.5867476793368881  0.7754042951033641  0.01884671848595325  1.0000
  O   O14       1.0  0.4132531837850593  0.2245930919113945  0.9811465515383373  1.0000
  O   O15       1.0  0.015580932375001999  0.0664046200445867  0.1264280967769409  1.0000
  O   O16       1.0  0.9844234387636064  0.9335940552282693  0.8735720988728133  1.0000
  O   O17       1.0  0.8357824624490888  0.10240517718914081  0.3490522868731745  1.0000
  O   O18       1.0  0.16421756988106037  0.8975948382304112  0.6509467437674062  1.0000
  O   O19       1.0  0.8146453695854918  0.4451034256349332  0.11828920977232117  1.0000
  O   O20       1.0  0.18536087506458893  0.554886010770126  0.8817069866297587  1.0000
