data_image0
_chemical_formula_structural       Zn2H36C54N4O16
_chemical_formula_sum              "Zn2 H36 C54 N4 O16"
_cell_length_a       8.36050792278342
_cell_length_b       11.272285849412464
_cell_length_c       13.0007
_cell_angle_alpha    100.39106808853312
_cell_angle_beta     92.61010086199694
_cell_angle_gamma    109.17141806659475

_space_group_name_H-M_alt    "P 1"
_space_group_IT_number       1

loop_
  _space_group_symop_operation_xyz
  'x, y, z'

loop_
  _atom_site_type_symbol
  _atom_site_label
  _atom_site_symmetry_multiplicity
  _atom_site_fract_x
  _atom_site_fract_y
  _atom_site_fract_z
  _atom_site_occupancy
  Zn  Zn1       1.0  0.2567080621604134  0.4102006162018981  0.3778819363825008  1.0000
  Zn  Zn2       1.0  0.7432903316340287  0.5897981477798524  0.6221189770665774  1.0000
  H   H1        1.0  0.6753995838127124  0.0830729064883897  0.06932113788321458  1.0000
  H   H2        1.0  0.3245998948627999  0.9169229774508381  0.9306785877476287  1.0000
  H   H3        1.0  0.8066358575908198  0.3209173780241699  0.10412891793747289  1.0000
  H   H4        1.0  0.19336525502725982  0.6790794659292345  0.8958686981092256  1.0000
  H   H5        1.0  0.5758218480549715  0.5201856000201985  0.14903122155784126  1.0000
  H   H6        1.0  0.42418177170728916  0.4798141239757285  0.8509623031753294  1.0000
  H   H7        1.0  0.6441219371786673  0.6204571604295168  0.9930695819465  1.0000
  H   H8        1.0  0.3558858236703486  0.3795464036231024  0.006927741350565987  1.0000
  H   H9        1.0  0.9451394020345133  0.6984784723361628  0.9517282879683222  1.0000
  H   H10       1.0  0.054869344476806185  0.3015298917873253  0.048271353239570686  1.0000
  H   H11       1.0  0.17709055891887718  0.6817771057571917  0.0718437149084892  1.0000
  H   H12       1.0  0.8229144831065086  0.3182283783237807  0.9281569057909564  1.0000
  H   H13       1.0  0.48099992838640304  0.11066851390994259  0.3697181791567274  1.0000
  H   H14       1.0  0.5190050011783  0.8893340901285071  0.6302835262279771  1.0000
  H   H15       1.0  0.027203046862730687  0.38887582136262466  0.5649821978122844  1.0000
  H   H16       1.0  0.9727925156474058  0.6111219826049492  0.43502079015637196  1.0000
  H   H17       1.0  0.7984522605372035  0.20877812240019716  0.6197096184851958  1.0000
  H   H18       1.0  0.2015444993146787  0.7912196815673767  0.3802934045480272  1.0000
  H   H19       1.0  0.7109584868947394  0.9875185797243091  0.5090942651013606  1.0000
  H   H20       1.0  0.2890399068997027  0.0124801842574414  0.4909074175370662  1.0000
  H   H21       1.0  0.879627744791051  0.8160331679136945  0.18110611475693617  1.0000
  H   H22       1.0  0.1203662962372007  0.1839665560822326  0.8188932829745071  1.0000
  H   H23       1.0  0.7439507211060246  0.8416204256839633  0.34444239942615695  1.0000
  H   H24       1.0  0.2560472360876176  0.1583773782836104  0.6555583511035793  1.0000
  H   H25       1.0  0.09092557871222334  0.9153514342485778  0.05970841061282073  1.0000
  H   H26       1.0  0.9090677015750827  0.0846492497615259  0.9402918841627469  1.0000
  H   H27       1.0  0.31435727927646445  0.1126663034053053  0.024261851416682096  1.0000
  H   H28       1.0  0.6856355644100348  0.8873334205906219  0.9757382804395434  1.0000
  H   H29       1.0  0.389170328679512  0.3181179766938058  0.1580473060514862  1.0000
  H   H30       1.0  0.6108232757479257  0.6818807872879447  0.8419534671393195  1.0000
  H   H31       1.0  0.42373552780922097  0.5886979715368525  0.3005531454355079  1.0000
  H   H32       1.0  0.576265260668734  0.4113007924448979  0.6994470689533543  1.0000
  H   H33       1.0  0.5264193875603809  0.5915146531223385  0.40856129267668  1.0000
  H   H34       1.0  0.47357976697500703  0.4084831508452424  0.5914371853495695  1.0000
  H   H35       1.0  0.36008079048284  0.7918907314747585  0.24664397468578161  1.0000
  H   H36       1.0  0.6399196738549833  0.20810995253533798  0.7533572996665399  1.0000
  C   C1        1.0  0.6661780126334165  0.1411681642067748  0.1438328620985416  1.0000
  C   C2        1.0  0.3338227758445385  0.8588305997749756  0.8561658139116162  1.0000
  C   C3        1.0  0.7385087268494389  0.273594439348301  0.1629002175281187  1.0000
  C   C4        1.0  0.2614944563120146  0.7264043246334495  0.8370977594218232  1.0000
  C   C5        1.0  0.7222957634997442  0.3486128269197764  0.2576574035164896  1.0000
  C   C6        1.0  0.27771025094602914  0.6513868970761507  0.7423408064819271  1.0000
  C   C7        1.0  0.8341684128774463  0.5366344828715057  0.1907922872743626  1.0000
  C   C8        1.0  0.1658319389996876  0.46336332109607536  0.809201610680347  1.0000
  C   C9        1.0  0.7054400614334071  0.5519419088703401  0.1279611565131589  1.0000
  C   C10       1.0  0.29456595301236627  0.44805781512557985  0.8720339767278487  1.0000
  C   C11       1.0  0.7456246933301216  0.6094006771916014  0.04176586916962322  1.0000
  C   C12       1.0  0.254383828259833  0.3906019268468484  0.95822978789397  1.0000
  C   C13       1.0  0.914797437445614  0.6549744700430722  0.020040639927827897  1.0000
  C   C14       1.0  0.085210760004216  0.3450300540237166  0.9799576154779286  1.0000
  C   C15       1.0  0.04370264507572587  0.6449596021835688  0.0860883528460121  1.0000
  C   C16       1.0  0.9563010871472244  0.3550430018548809  0.9139110099060658  1.0000
  C   C17       1.0  0.0052940970572307585  0.5839343812072073  0.17150869181723039  1.0000
  C   C18       1.0  0.9947095227050369  0.41606534278871976  0.828487909673342  1.0000
  C   C19       1.0  0.14461172669378186  0.5634956794502131  0.2349451037977275  1.0000
  C   C20       1.0  0.8553854697589144  0.4365030845315374  0.7650550053974284  1.0000
  C   C21       1.0  0.6052659923280358  0.3660092437604732  0.43596953433830515  1.0000
  C   C22       1.0  0.39473850063585303  0.6339924002638  0.5640297005590043  1.0000
  C   C23       1.0  0.6306767882077438  0.2898321190814031  0.33434395063365224  1.0000
  C   C24       1.0  0.36932846549708387  0.7101685649286935  0.6656551564088886  1.0000
  C   C25       1.0  0.5567556917172851  0.1560282236006927  0.312453947625734  1.0000
  C   C26       1.0  0.443248040505665  0.8439743804377499  0.6875469535050412  1.0000
  C   C27       1.0  0.5741210858547562  0.0803503062919191  0.2184111733214635  1.0000
  C   C28       1.0  0.4258801392240059  0.9196494177040009  0.7815899731760894  1.0000
  C   C29       1.0  0.49133964754341247  0.9388045805108262  0.1916130819729744  1.0000
  C   C30       1.0  0.5086612533952248  0.06119706351344689  0.8083898936773862  1.0000
  C   C31       1.0  0.9842123825902647  0.2910302167701175  0.5188030567735993  1.0000
  C   C32       1.0  0.015784813862431687  0.7089685472116329  0.4811993599896098  1.0000
  C   C33       1.0  0.8573349271764598  0.1898639231509591  0.5487675366879827  1.0000
  C   C34       1.0  0.142662593416361  0.8101329208024453  0.4512338201117672  1.0000
  C   C35       1.0  0.8086268970890486  0.0675955579808161  0.4873283294979558  1.0000
  C   C36       1.0  0.1913726940471534  0.9324032060009344  0.5126741573943931  1.0000
  C   C37       1.0  0.8855147560502701  0.0459923590311888  0.39451573437968074  1.0000
  C   C38       1.0  0.11448080645985931  0.9540054449363922  0.6054857152102713  1.0000
  C   C39       1.0  0.012149840281217896  0.1533670643113396  0.3703425011721606  1.0000
  C   C40       1.0  0.9878465954305399  0.8466326596845875  0.6296600434458243  1.0000
  C   C41       1.0  0.0937057710342302  0.1378973959171503  0.27604979887651376  1.0000
  C   C42       1.0  0.9062894673357746  0.8621023280787696  0.7239511722982  1.0000
  C   C43       1.0  0.044086617032469605  0.0158450339360812  0.20717270537543436  1.0000
  C   C44       1.0  0.9559062266540295  0.9841546900598458  0.7928281956701396  1.0000
  C   C45       1.0  0.9165360589676653  0.9092044634946959  0.2343557032019845  1.0000
  C   C46       1.0  0.0834579820605867  0.0907952605012241  0.7656444637188072  1.0000
  C   C47       1.0  0.8410348261851652  0.9235125147387677  0.3246373507601064  1.0000
  C   C48       1.0  0.15896041218483964  0.0764872092571593  0.675362851225259  1.0000
  C   C49       1.0  0.1252575938427327  0.0076167524537354  0.1143396286125977  1.0000
  C   C50       1.0  0.8747340525020135  0.9923829715421917  0.88566123736841  1.0000
  C   C51       1.0  0.2476696599849149  0.11558762653572069  0.0944403392680968  1.0000
  C   C52       1.0  0.7523227471007773  0.8844111374460297  0.9055596296687867  1.0000
  C   C53       1.0  0.2897890621519608  0.23161973963383528  0.1687844184523541  1.0000
  C   C54       1.0  0.7102053030164157  0.7683780643337385  0.8312169960730315  1.0000
  N   N1        1.0  0.21536227769761498  0.2424534995834691  0.256370470502624  1.0000
  N   N2        1.0  0.7846325240715759  0.7575452643982814  0.7436311069421038  1.0000
  N   N3        1.0  0.059751701627178  0.2723896215603716  0.43240088138266936  1.0000
  N   N4        1.0  0.9402450582247112  0.7276081824072023  0.567600603271849  1.0000
  O   O1        1.0  0.10443365241687987  0.4657806367853183  0.2761578945330001  1.0000
  O   O2        1.0  0.8955676851225648  0.5342219672531243  0.7238429364686425  1.0000
  O   O3        1.0  0.4556224697864907  0.3343508563560462  0.4653649089094642  1.0000
  O   O4        1.0  0.5443827839183372  0.6656498276540574  0.5346334289437209  1.0000
  O   O5        1.0  0.4782917724021373  0.5370655292354769  0.3363301015552125  1.0000
  O   O6        1.0  0.5217061847915048  0.462932274732104  0.6636706489745237  1.0000
  O   O7        1.0  0.29626924484193745  0.643818145331096  0.24110300172270627  1.0000
  O   O8        1.0  0.7037348115211444  0.3561825386790005  0.7588960702552613  1.0000
  O   O9        1.0  0.7892159137305014  0.4796547616229033  0.2764205818615011  1.0000
  O   O10       1.0  0.2107869452908204  0.5203459223872002  0.7235753782944983  1.0000
  O   O11       1.0  0.4092296404873466  0.8898380975696725  0.2688606753117213  1.0000
  O   O12       1.0  0.590769626508724  0.1101625864404241  0.7311405639760337  1.0000
  O   O13       1.0  0.4956837746845721  0.8720144744217039  0.10594312859992533  1.0000
  O   O14       1.0  0.504316253052437  0.1279852495742233  0.8940572136437055  1.0000
  O   O15       1.0  0.7359612484421304  0.4555612859068248  0.4865799627052069  1.0000
  O   O16       1.0  0.2640444418635113  0.5444403581174484  0.5134208456353733  1.0000
