data_image0
_chemical_formula_structural       Li8H24C24N8O24
_chemical_formula_sum              "Li8 H24 C24 N8 O24"
_cell_length_a       7.326576476519033
_cell_length_b       7.328310197018472
_cell_length_c       15.198283047757064
_cell_angle_alpha    89.99987284879865
_cell_angle_beta     101.28317182661792
_cell_angle_gamma    89.99980318418545

_space_group_name_H-M_alt    "P 1"
_space_group_IT_number       1

loop_
  _space_group_symop_operation_xyz
  'x, y, z'

loop_
  _atom_site_type_symbol
  _atom_site_label
  _atom_site_symmetry_multiplicity
  _atom_site_fract_x
  _atom_site_fract_y
  _atom_site_fract_z
  _atom_site_occupancy
  Li  Li1       1.0  0.9705119716552562  0.030524805361750403  0.7384364078856295  1.0000
  Li  Li2       1.0  0.5294849597143171  0.5305234616995804  0.7615650583633313  1.0000
  Li  Li3       1.0  0.029485667525712203  0.9694725056172615  0.2615641952261427  1.0000
  Li  Li4       1.0  0.4705098740795394  0.46947657842850543  0.23843464319512017  1.0000
  Li  Li5       1.0  0.32855276408343315  0.8155552439513373  0.8364618204131776  1.0000
  Li  Li6       1.0  0.1714455866587485  0.31555660840281524  0.6635361802929226  1.0000
  Li  Li7       1.0  0.6714448529331491  0.1844516190266248  0.16353812271712806  1.0000
  Li  Li8       1.0  0.8285548579011889  0.684442067140303  0.3364653243691862  1.0000
  H   H1        1.0  0.6924875318027331  0.2935343864070177  0.6044887712244886  1.0000
  H   H2        1.0  0.8075000940325978  0.7935492007300696  0.8955142279018633  1.0000
  H   H3        1.0  0.3075060211162893  0.7064574662896919  0.39551410942411996  1.0000
  H   H4        1.0  0.19249330384147362  0.20645629768804247  0.10448403291517393  1.0000
  H   H5        1.0  0.6806434402822392  0.9328388786237269  0.5161203839594324  1.0000
  H   H6        1.0  0.8193657432645196  0.432854639709845  0.9838797254830853  1.0000
  H   H7        1.0  0.3193640066808783  0.0671488803343223  0.4838830446016687  1.0000
  H   H8        1.0  0.18063459056024567  0.5671481295541697  0.01611847930343661  1.0000
  H   H9        1.0  0.10264005785420949  0.7177967012496399  0.705728664412405  1.0000
  H   H10       1.0  0.3973587032218902  0.21779668074757552  0.7942701383590676  1.0000
  H   H11       1.0  0.8973603867003064  0.2822047034356032  0.2942728402477144  1.0000
  H   H12       1.0  0.6026444581272586  0.7822074530790105  0.20572962795231584  1.0000
  H   H13       1.0  0.10099732822040862  0.9726128615367031  0.595420734494745  1.0000
  H   H14       1.0  0.399007489826289  0.4726164255280025  0.9045816017191799  1.0000
  H   H15       1.0  0.8990045301111992  0.02738172028899301  0.4045815509332585  1.0000
  H   H16       1.0  0.6009901493357078  0.5273904374484246  0.09541900138565042  1.0000
  H   H17       1.0  0.004549928406937894  0.6903783582456454  0.7880476839921258  1.0000
  H   H18       1.0  0.49544757206543016  0.190381100351587  0.7119516978154083  1.0000
  H   H19       1.0  0.9954477550621306  0.30962031730133793  0.21195423906769412  1.0000
  H   H20       1.0  0.5045555892918472  0.809618939761826  0.2880480684989522  1.0000
  H   H21       1.0  0.9425590642579423  0.1184268159520272  0.5684311709049867  1.0000
  H   H22       1.0  0.5574403455746622  0.6184341508053067  0.9315717290999219  1.0000
  H   H23       1.0  0.05744418569180711  0.8815677658709687  0.4315712353114237  1.0000
  H   H24       1.0  0.442560076823611  0.38157271216570626  0.06842911558171492  1.0000
  C   C1        1.0  0.8102874579144556  0.3573678182799611  0.4432967079129214  1.0000
  C   C2        1.0  0.6897130021636145  0.8573777671430989  0.05670792856685133  1.0000
  C   C3        1.0  0.18972111488395876  0.6426390446887355  0.5566989217284333  1.0000
  C   C4        1.0  0.31028470343461123  0.1426290958286884  0.9432946544615463  1.0000
  C   C5        1.0  0.6367412684282671  0.735648656090632  0.6165644906998226  1.0000
  C   C6        1.0  0.8632603927287477  0.2356578995974843  0.8834365005776237  1.0000
  C   C7        1.0  0.36325785096059354  0.2643445611663253  0.38343887310141167  1.0000
  C   C8        1.0  0.1367385273351829  0.764343505099724  0.11656092344696843  1.0000
  C   C9        1.0  0.5731391010530446  0.8717018161135783  0.679541260999841  1.0000
  C   C10       1.0  0.9268633450508617  0.3717043022869219  0.8204576733971296  1.0000
  C   C11       1.0  0.42686406029881857  0.12830095314194526  0.32045850531253  1.0000
  C   C12       1.0  0.07313424982302763  0.6283011961215339  0.17954160975964584  1.0000
  C   C13       1.0  0.6942506717447117  0.4370900304579166  0.5857924751050448  1.0000
  C   C14       1.0  0.8057516254115812  0.9371061301463969  0.9142096641143455  1.0000
  C   C15       1.0  0.30575673092487693  0.5628990930742788  0.4142096335060189  1.0000
  C   C16       1.0  0.1942432305276895  0.06289390998014001  0.0857906974186378  1.0000
  C   C17       1.0  0.7474801248510304  0.4921901337439324  0.5063075914247933  1.0000
  C   C18       1.0  0.7525205176071168  0.9922033272390183  0.9936930269724943  1.0000
  C   C19       1.0  0.25252712278444284  0.5078071772254305  0.49368989735867086  1.0000
  C   C20       1.0  0.24748547126641546  0.007802171150125002  0.0063083008637506  1.0000
  C   C21       1.0  0.6868869377106391  0.789693953824205  0.5359860884259434  1.0000
  C   C22       1.0  0.813118683681161  0.2897098273701317  0.9640151866582658  1.0000
  C   C23       1.0  0.31311489848369684  0.2102965342898671  0.46401553703051956  1.0000
  C   C24       1.0  0.1868816501436044  0.7102929418938901  0.03598301812825611  1.0000
  N   N1        1.0  0.6376932197271188  0.5590567302186572  0.6404167246858918  1.0000
  N   N2        1.0  0.8622965516525201  0.05906608594099791  0.8595814562446764  1.0000
  N   N3        1.0  0.36230293925948603  0.440937851627119  0.35958111774137086  1.0000
  N   N4        1.0  0.13769682408426584  0.940935318765476  0.14041614460082033  1.0000
  N   N5        1.0  0.7410243109370711  0.6681407246485236  0.4807780090773265  1.0000
  N   N6        1.0  0.7589809425124656  0.16815335893431185  0.01922330495590778  1.0000
  N   N7        1.0  0.2589803084908269  0.33185112803119676  0.5192238579549482  1.0000
  N   N8        1.0  0.2410179775460436  0.8318507749050141  0.9807741190666948  1.0000
  O   O1        1.0  0.07837950512566043  0.7832905714353802  0.7603476546625604  1.0000
  O   O2        1.0  0.4216176042593887  0.28329344472162177  0.7396509321245335  1.0000
  O   O3        1.0  0.9216167202863377  0.2167094686899986  0.23965216768429806  1.0000
  O   O4        1.0  0.5783856013832889  0.716709324530811  0.2603501541368801  1.0000
  O   O5        1.0  0.4919646783959379  0.806034569414166  0.7388220077705867  1.0000
  O   O6        1.0  0.008035079621308196  0.3060374229643159  0.761175467586398  1.0000
  O   O7        1.0  0.5080356997250632  0.1939654707046472  0.26117751696696706  1.0000
  O   O8        1.0  0.9919625595542385  0.6939626171568138  0.23882513552338483  1.0000
  O   O9        1.0  0.0356590262922509  0.07438811271273241  0.6206153461787027  1.0000
  O   O10       1.0  0.4643418287261555  0.5743901722708528  0.8793877456679626  1.0000
  O   O11       1.0  0.9643400709484952  0.9256064691168291  0.3793873576470191  1.0000
  O   O12       1.0  0.5356572020593973  0.42561396156074943  0.12061297822724983  1.0000
  O   O13       1.0  0.8529921517525239  0.4222123214739214  0.372742105688893  1.0000
  O   O14       1.0  0.6470065041958507  0.9222248264723873  0.12725769592893957  1.0000
  O   O15       1.0  0.14701352711779955  0.5777768020841522  0.6272499825159416  1.0000
  O   O16       1.0  0.3529841768862951  0.07777657823331911  0.8727423032378355  1.0000
  O   O17       1.0  0.815130264838416  0.18958283184388594  0.465126876178566  1.0000
  O   O18       1.0  0.6848652285872348  0.6895901681138242  0.0348755410976409  1.0000
  O   O19       1.0  0.18487009113176364  0.8104199374185868  0.5348719885824738  1.0000
  O   O20       1.0  0.31513373575125314  0.310419424006639  0.9651232028700394  1.0000
  O   O21       1.0  0.610047071217764  0.0379065614306811  0.6672974483782071  1.0000
  O   O22       1.0  0.8899525476213839  0.537914551905523  0.8327022687879906  1.0000
  O   O23       1.0  0.3899506122404689  0.9620975724005376  0.332704474677641  1.0000
  O   O24       1.0  0.11004643885980409  0.46209640478446096  0.16729713515321984  1.0000
