data_image0
_chemical_formula_structural       Hg8H48C48S4N8Cl16
_chemical_formula_sum              "Hg8 H48 C48 S4 N8 Cl16"
_cell_length_a       8.976456056
_cell_length_b       12.43419053
_cell_length_c       15.646
_cell_angle_alpha    90.0
_cell_angle_beta     90.0
_cell_angle_gamma    90.0

_space_group_name_H-M_alt    "P 1"
_space_group_IT_number       1

loop_
  _space_group_symop_operation_xyz
  'x, y, z'

loop_
  _atom_site_type_symbol
  _atom_site_label
  _atom_site_symmetry_multiplicity
  _atom_site_fract_x
  _atom_site_fract_y
  _atom_site_fract_z
  _atom_site_occupancy
  Hg  Hg1       1.0  0.8165416233615659  0.1951112132427681  0.7146842643487119  1.0000
  Hg  Hg2       1.0  0.3165414036757568  0.8048887441328247  0.2853157356512881  1.0000
  Hg  Hg3       1.0  0.8165416233615659  0.3048891675620808  0.2146842643487119  1.0000
  Hg  Hg4       1.0  0.3165414036757568  0.6951107898135118  0.7853157356512881  1.0000
  Hg  Hg5       1.0  0.18400580247880072  0.3576742683224765  0.716803655886487  1.0000
  Hg  Hg6       1.0  0.6840060221646098  0.6423256890531164  0.283196344113513  1.0000
  Hg  Hg7       1.0  0.18400580247880072  0.14232611248237248  0.216803655886487  1.0000
  Hg  Hg8       1.0  0.6840049081392153  0.8576738448932204  0.7831957049725133  1.0000
  H   H1        1.0  0.9669606742182211  0.15148231768328907  0.5389460565000661  1.0000
  H   H2        1.0  0.46696045453241203  0.8485192481604997  0.4610545826409336  1.0000
  H   H3        1.0  0.9669617882436157  0.3485172588874619  0.0389460565000661  1.0000
  H   H4        1.0  0.46696045453241203  0.6514802857858442  0.9610545826409336  1.0000
  H   H5        1.0  0.9090369238253829  0.1097884093625865  0.38566534577527983  1.0000
  H   H6        1.0  0.4090367041395808  0.8902147649493981  0.6143346542247201  1.0000
  H   H7        1.0  0.9090369238253829  0.3902119714422625  0.8856653457752799  1.0000
  H   H8        1.0  0.4090367041395808  0.6097847689969385  0.1143346542247201  1.0000
  H   H9        1.0  0.6407706965997306  0.08593241332614807  0.3431957049725156  1.0000
  H   H10       1.0  0.14076936288852693  0.9140691525176408  0.6568042950274844  1.0000
  H   H11       1.0  0.6407706965997306  0.4140695759468969  0.8431957049725156  1.0000
  H   H12       1.0  0.14076936288852693  0.585930381428696  0.1568042950274844  1.0000
  H   H13       1.0  0.4430857763004924  0.1086085979414406  0.4542413396395233  1.0000
  H   H14       1.0  0.9430848819609068  0.8913913594341522  0.5457586603604767  1.0000
  H   H15       1.0  0.4430857763004924  0.3913909786293103  0.9542407004985307  1.0000
  H   H16       1.0  0.9430848819609068  0.6086089787462825  0.0457586603604767  1.0000
  H   H17       1.0  0.4949347462165079  0.08113756963638957  0.6683759427329647  1.0000
  H   H18       1.0  0.9949338518769224  0.9188631919733011  0.3316240572670353  1.0000
  H   H19       1.0  0.4949347462165079  0.4188612027002633  0.1683759427329647  1.0000
  H   H20       1.0  0.9949338518769224  0.5811371462071335  0.8316240572670353  1.0000
  H   H21       1.0  0.3721368409938535  0.1453234929640388  0.5958577272146213  1.0000
  H   H22       1.0  0.872135946654268  0.8546772686456521  0.4041422727853785  1.0000
  H   H23       1.0  0.3721368409938535  0.354676083606705  0.0958577272146215  1.0000
  H   H24       1.0  0.872135946654268  0.6453222653006917  0.9041422727853785  1.0000
  H   H25       1.0  0.0070595789256558  0.360189912579699  0.5500498529975744  1.0000
  H   H26       1.0  0.5070597986114649  0.6398100447958939  0.4499488687204404  1.0000
  H   H27       1.0  0.0070595789256558  0.139809663991052  0.0500504921385669  1.0000
  H   H28       1.0  0.5070597986114649  0.8601902933845407  0.9499495078614328  1.0000
  H   H29       1.0  0.04564050639184811  0.36226161961505443  0.3908551706506458  1.0000
  H   H30       1.0  0.545638498026868  0.6377383377605383  0.609143551067362  1.0000
  H   H31       1.0  0.04564050639184811  0.1377387611897873  0.8908558097916384  1.0000
  H   H32       1.0  0.5456396120522626  0.8622611961858055  0.1091441902083616  1.0000
  H   H33       1.0  0.3071624238785233  0.3729772347311808  0.3349156333887251  1.0000
  H   H34       1.0  0.8071593014881486  0.6270227226444121  0.6650850057522675  1.0000
  H   H35       1.0  0.3071613098531287  0.1270223418395702  0.8349156333887251  1.0000
  H   H36       1.0  0.8071615295389378  0.8729776155360227  0.1650843666112749  1.0000
  H   H37       1.0  0.519036685628933  0.3770941090766796  0.4389038731944268  1.0000
  H   H38       1.0  0.0190364659431239  0.6229066525330111  0.5610974050875654  1.0000
  H   H39       1.0  0.519036685628933  0.12290546749407129  0.9389038731944268  1.0000
  H   H40       1.0  0.0190364659431239  0.8770936856474234  0.0610961268055732  1.0000
  H   H41       1.0  0.49190571116855614  0.4487087427636495  0.651424645276748  1.0000
  H   H42       1.0  0.9919048168289706  0.5512920188460413  0.348575354723252  1.0000
  H   H43       1.0  0.49190571116855614  0.051290833807094295  0.15142528441774056  1.0000
  H   H44       1.0  0.9919059308543653  0.9487083193344006  0.8485747155822594  1.0000
  H   H45       1.0  0.6076028185259545  0.375352942255418  0.5801450850057535  1.0000
  H   H46       1.0  0.1076037128655472  0.6246470151201677  0.4198549149942465  1.0000
  H   H47       1.0  0.6076028185259545  0.1246466343153259  0.08014508500575347  1.0000
  H   H48       1.0  0.1076025988401526  0.8753533230602668  0.9198549149942465  1.0000
  C   C1        1.0  0.8525001350488424  0.1423003769912441  0.5165626997315584  1.0000
  C   C2        1.0  0.3524999153630333  0.8577019930866355  0.4834373002684416  1.0000
  C   C3        1.0  0.8525001350488424  0.3577000038135978  0.0165626997315584  1.0000
  C   C4        1.0  0.3524999153630333  0.6422975408597011  0.9834373002684416  1.0000
  C   C5        1.0  0.8193066343909905  0.11777606241972187  0.4320069027227403  1.0000
  C   C6        1.0  0.3193053006797868  0.8822279161263609  0.5679937364182521  1.0000
  C   C7        1.0  0.8193066343909905  0.3822259268533159  0.9320069027227404  1.0000
  C   C8        1.0  0.3193053006797868  0.617771617819983  0.0679937364182521  1.0000
  C   C9        1.0  0.6704761837470556  0.10550103738840019  0.4088495462098933  1.0000
  C   C10       1.0  0.1704748500358519  0.8945013326894865  0.5911504537901067  1.0000
  C   C11       1.0  0.6704761837470556  0.39450175611874266  0.9088495462098933  1.0000
  C   C12       1.0  0.1704748500358519  0.6054982012568502  0.0911504537901067  1.0000
  C   C13       1.0  0.5603536594642904  0.1177463057581107  0.4708570880736288  1.0000
  C   C14       1.0  0.06035343977848131  0.8822544558515801  0.5291435510673637  1.0000
  C   C15       1.0  0.5603547734896851  0.3822548792808291  0.9708570880736289  1.0000
  C   C16       1.0  0.06035343977848131  0.6177458823288617  0.0291435510673637  1.0000
  C   C17       1.0  0.6010144723422216  0.1417896883392871  0.5548255145085008  1.0000
  C   C18       1.0  0.1010142526564195  0.8582118775045018  0.4451744854914992  1.0000
  C   C19       1.0  0.6010144723422216  0.35821069246556186  0.05482551450850079  1.0000
  C   C20       1.0  0.1010142526564195  0.641788460675933  0.945174485491499  1.0000
  C   C21       1.0  0.48419665543784873  0.1491942716756824  0.6236386296817074  1.0000
  C   C22       1.0  0.9841957610982561  0.8508072941681064  0.3763613703182925  1.0000
  C   C23       1.0  0.48419776946324333  0.3508053048950686  0.1236386296817074  1.0000
  C   C24       1.0  0.9841957610982561  0.6491930440123284  0.8763613703182926  1.0000
  C   C25       1.0  0.1180454728892428  0.3629130492340948  0.5217103413012936  1.0000
  C   C26       1.0  0.6180456925750448  0.637086908141498  0.4782890195577139  1.0000
  C   C27       1.0  0.11804435886384822  0.1370865273366562  0.0217109804422861  1.0000
  C   C28       1.0  0.6180445785496502  0.8629126258048387  0.9782890195577136  1.0000
  C   C29       1.0  0.1408194940312839  0.3655002703260024  0.4339665090118885  1.0000
  C   C30       1.0  0.6408185996916984  0.6345004912836885  0.5660334909881115  1.0000
  C   C31       1.0  0.1408183800058893  0.1345001104788466  0.9339665090118883  1.0000
  C   C32       1.0  0.6408185996916984  0.8654998468967461  0.0660328518471189  1.0000
  C   C33       1.0  0.2864170429800623  0.3708226915837684  0.4034347437044588  1.0000
  C   C34       1.0  0.7864150346150822  0.6291780700259224  0.5965658954365338  1.0000
  C   C35       1.0  0.2864159289546677  0.12917688498698246  0.9034347437044588  1.0000
  C   C36       1.0  0.7864161486404768  0.8708230723886102  0.0965646171545416  1.0000
  C   C37       1.0  0.4041672991397292  0.3732096583853775  0.4614272018407277  1.0000
  C   C38       1.0  0.9041664048001437  0.6267902989902154  0.5385740764412644  1.0000
  C   C39       1.0  0.4041661851143346  0.1267899181853664  0.9614272018407277  1.0000
  C   C40       1.0  0.9041664048001437  0.8732092349561283  0.03857215901827969  1.0000
  C   C41       1.0  0.3747414323664557  0.3700071982088247  0.5489486130640415  1.0000
  C   C42       1.0  0.8747405380268702  0.6299935634008662  0.4510520260769511  1.0000
  C   C43       1.0  0.3747403183410611  0.1299923783619263  0.0489486130640415  1.0000
  C   C44       1.0  0.8747405380268702  0.8700067747795757  0.9510507477949659  1.0000
  C   C45       1.0  0.4996660120674221  0.3747192057865334  0.612933657164767  1.0000
  C   C46       1.0  0.9996662317532313  0.6252815558231575  0.3870663428352259  1.0000
  C   C47       1.0  0.4996660120674221  0.1252803707842176  0.1129336571647741  1.0000
  C   C48       1.0  0.9996651177278367  0.8747187823572773  0.8870657036942333  1.0000
  S   S1        1.0  0.4976496261031755  0.2670998157851159  0.6918630959989756  1.0000
  S   S2        1.0  0.9976487317635901  0.732900141590477  0.3081381822830096  1.0000
  S   S3        1.0  0.4976496261031755  0.23289976078563507  0.1918630959989756  1.0000
  S   S4        1.0  0.9976498457889846  0.7670985881217618  0.808137543142017  1.0000
  N   N1        1.0  0.7455336447090133  0.1547137302873551  0.5758935191103163  1.0000
  N   N2        1.0  0.2455334250232113  0.8452870313223356  0.4241064808896836  1.0000
  N   N3        1.0  0.7455347587344079  0.3452858462833959  0.0758935191103163  1.0000
  N   N4        1.0  0.2455334250232113  0.6547125026240082  0.9241064808896837  1.0000
  N   N5        1.0  0.2326942823503089  0.3643727341211971  0.5771404831905897  1.0000
  N   N6        1.0  0.732694502036118  0.6356264190202978  0.4228595168094103  1.0000
  N   N7        1.0  0.2326942823503089  0.1356260382154559  0.0771404831905897  1.0000
  N   N8        1.0  0.732694502036118  0.864373114926039  0.9228588776684106  1.0000
  Cl  Cl1       1.0  0.8797157754392091  0.3992949913402981  0.7007676083343952  1.0000
  Cl  Cl2       1.0  0.3797155557533999  0.6007041618011968  0.2992317525246051  1.0000
  Cl  Cl3       1.0  0.8797157754392091  0.1007045852304458  0.2007682474753949  1.0000
  Cl  Cl4       1.0  0.3797155557533999  0.8992953721451471  0.7992317525246051  1.0000
  Cl  Cl5       1.0  0.751839028442518  0.1072542677211175  0.8495602709957807  1.0000
  Cl  Cl6       1.0  0.2518388087567089  0.8927448854203774  0.1504397290042192  1.0000
  Cl  Cl7       1.0  0.751839028442518  0.3927453088496335  0.3495602709957808  1.0000
  Cl  Cl8       1.0  0.2518388087567089  0.6072546485259592  0.6504397290042192  1.0000
  Cl  Cl9       1.0  0.1014988537030703  0.1419312335404612  0.6973072989901539  1.0000
  Cl  Cl10      1.0  0.6014990733888795  0.8580679196010337  0.3026920618688465  1.0000
  Cl  Cl11      1.0  0.1014988537030703  0.3580683430302898  0.19730729899015384  1.0000
  Cl  Cl12      1.0  0.6014990733888795  0.6419316143453031  0.8026920618688465  1.0000
  Cl  Cl13      1.0  0.207584149955764  0.4010570682480932  0.8643039754569841  1.0000
  Cl  Cl14      1.0  0.7075843696415662  0.5989428891274996  0.1356947462610236  1.0000
  Cl  Cl15      1.0  0.207584149955764  0.0989425083226578  0.3643046145979838  1.0000
  Cl  Cl16      1.0  0.7075843696415662  0.9010574490529351  0.6356953854020162  1.0000
