data_image0
_chemical_formula_structural       Zn2H8C8Br4N4
_chemical_formula_sum              "Zn2 H8 C8 Br4 N4"
_cell_length_a       3.7378438960614533
_cell_length_b       7.2058845570222605
_cell_length_c       12.280976223170704
_cell_angle_alpha    90.0000172314729
_cell_angle_beta     89.9993972716434
_cell_angle_gamma    89.99972565418636

_space_group_name_H-M_alt    "P 1"
_space_group_IT_number       1

loop_
  _space_group_symop_operation_xyz
  'x, y, z'

loop_
  _atom_site_type_symbol
  _atom_site_label
  _atom_site_symmetry_multiplicity
  _atom_site_fract_x
  _atom_site_fract_y
  _atom_site_fract_z
  _atom_site_occupancy
  Zn  Zn1       1.0  0.99999087240073  0.9999982514402319  0.5000011189400766  1.0000
  Zn  Zn2       1.0  7.332599125200008e-06  0.9999981449793366  0.9999987986177743  1.0000
  H   H1        1.0  6.231069989000019e-07  0.08323340358119678  0.24999805117346338  1.0000
  H   H2        1.0  4.034069242199997e-06  0.9167675169113707  0.7500048187864935  1.0000
  H   H3        1.0  1.241246600600001e-06  0.5914124844166437  0.0741896126347186  1.0000
  H   H4        1.0  5.017248412000012e-07  0.5914167057488556  0.4258082398195455  1.0000
  H   H5        1.0  7.406751337000052e-07  0.4085884360783253  0.9258083717244148  1.0000
  H   H6        1.0  1.480196893100002e-06  0.4085842147461136  0.5741897445395949  1.0000
  H   H7        1.0  1.7480430259000017e-06  0.407865304285295  0.2500005328053518  1.0000
  H   H8        1.0  2.909188772499999e-06  0.5921328406975093  0.7499998943517241  1.0000
  C   C1        1.0  8.769218950999999e-07  0.9322147206711336  0.2499998125276264  1.0000
  C   C2        1.0  5.413279893700005e-06  0.0677863888316708  0.7500030886976176  1.0000
  C   C3        1.0  2.221787703100001e-06  0.6588268442319105  0.1534512349469139  1.0000
  C   C4        1.0  0.9999978349047892  0.6588284528930259  0.3465507362428397  1.0000
  C   C5        1.0  5.110617372800001e-06  0.3411824027861884  0.8465557063473454  1.0000
  C   C6        1.0  0.9999993869983685  0.3411631313502285  0.6534530105311377  1.0000
  C   C7        1.0  1.0281010389999998e-06  0.5586295847019259  0.24999647950272672  1.0000
  C   C8        1.0  9.538140659999997e-07  0.44137272354772256  0.7500015048565772  1.0000
  Br  Br1       1.0  0.499977696142146  0.22305883099067364  0.4238197701550063  1.0000
  Br  Br2       1.0  0.4999997695047895  0.22306154906263484  0.07617558268128019  1.0000
  Br  Br3       1.0  0.499980438031777  0.7769381153052848  0.5761798740765939  1.0000
  Br  Br4       1.0  0.500027923585833  0.7769381726582195  0.9238175472994286  1.0000
  N   N1        1.0  0.9999969457411239  0.845649375314089  0.34637487680761586  1.0000
  N   N2        1.0  4.002009809800001e-06  0.8456422156880736  0.15362062493343126  1.0000
  N   N3        1.0  0.9999949254880321  0.15435608648168397  0.6536247986389937  1.0000
  N   N4        1.0  8.681287447100004e-06  0.15435176602080955  0.8463781736752906  1.0000
