data_image0
_chemical_formula_structural       Ag4H20C40S4N4O14F12
_chemical_formula_sum              "Ag4 H20 C40 S4 N4 O14 F12"
_cell_length_a       10.163015699238096
_cell_length_b       10.603365899073939
_cell_length_c       11.383088121391836
_cell_angle_alpha    97.35841988969841
_cell_angle_beta     100.37300531130704
_cell_angle_gamma    92.63528214784245

_space_group_name_H-M_alt    "P 1"
_space_group_IT_number       1

loop_
  _space_group_symop_operation_xyz
  'x, y, z'

loop_
  _atom_site_type_symbol
  _atom_site_label
  _atom_site_symmetry_multiplicity
  _atom_site_fract_x
  _atom_site_fract_y
  _atom_site_fract_z
  _atom_site_occupancy
  Ag  Ag1       1.0  0.40982640337295356  0.6828060279241016  0.051893996389225115  1.0000
  Ag  Ag2       1.0  0.5901671640339572  0.3171985202591472  0.9481086075277363  1.0000
  Ag  Ag3       1.0  0.047675226297727115  0.6655580326576711  0.013900338490529407  1.0000
  Ag  Ag4       1.0  0.9523250875609506  0.3344427735846338  0.9861047194150533  1.0000
  H   H1        1.0  0.8808972373035219  0.8365204848367184  0.037451194612245296  1.0000
  H   H2        1.0  0.11910183609042954  0.1634755715534268  0.9625512567140221  1.0000
  H   H3        1.0  0.6673742509276935  0.9393863294740186  0.014045905428787442  1.0000
  H   H4        1.0  0.3326235263831023  0.060604023971023914  0.9859538031142066  1.0000
  H   H5        1.0  0.42553670441300545  0.2619483523283321  0.11148906176735816  1.0000
  H   H6        1.0  0.5744477492708739  0.7380342947817695  0.8885011183811856  1.0000
  H   H7        1.0  0.8578068259042768  0.2711486413066169  0.25569175597641464  1.0000
  H   H8        1.0  0.14218567281513117  0.7288521999766927  0.7443031375090073  1.0000
  H   H9        1.0  0.07182994341256692  0.16725444179146362  0.28227718303404004  1.0000
  H   H10       1.0  0.9281657254386034  0.8327493017923333  0.7177186556857013  1.0000
  H   H11       1.0  0.565106107329541  0.8111613151722638  0.265887295253407  1.0000
  H   H12       1.0  0.43490161088615037  0.1888435386146128  0.7341116995027762  1.0000
  H   H13       1.0  0.784173794754885  0.8980478185329517  0.3879450329773634  1.0000
  H   H14       1.0  0.2158298972714193  0.10195787107845429  0.6120568758569577  1.0000
  H   H15       1.0  0.0218370891268194  0.22415049341493898  0.6556880248974368  1.0000
  H   H16       1.0  0.9781663318226776  0.7758378451924699  0.34432383793759413  1.0000
  H   H17       1.0  0.6152426430542093  0.25371336855762655  0.4852392842664843  1.0000
  H   H18       1.0  0.38475633354075006  0.7462826129497913  0.5147675337732595  1.0000
  H   H19       1.0  0.3957313701264837  0.1685890383552007  0.3628745553694302  1.0000
  H   H20       1.0  0.6042707766002452  0.8314098454527041  0.6371332079046257  1.0000
  C   C1        1.0  0.8770005417977913  0.931263816722577  0.08598947273973319  1.0000
  C   C2        1.0  0.12300587787377992  0.0687362422824975  0.914009535465226  1.0000
  C   C3        1.0  0.7566290237250329  0.98892866577102  0.07211882776317682  1.0000
  C   C4        1.0  0.243370946907099  0.011062774283899993  0.9278752613332063  1.0000
  C   C5        1.0  0.748462119292327  0.11224402087357528  0.13256599529966454  1.0000
  C   C6        1.0  0.2515339388482404  0.8877492530284387  0.8674285240507235  1.0000
  C   C7        1.0  0.6262850746498998  0.1723956359540821  0.11571726157773557  1.0000
  C   C8        1.0  0.3737081664292958  0.8276004691816329  0.8842762564193692  1.0000
  C   C9        1.0  0.521884152169271  0.22740130728208646  0.10019684641162747  1.0000
  C   C10       1.0  0.4781064749228534  0.772584285150174  0.8997948155936799  1.0000
  C   C11       1.0  0.8635201052071366  0.17604855906272124  0.20890449114546789  1.0000
  C   C12       1.0  0.13647556856596313  0.8239533681944663  0.791085835110181  1.0000
  C   C13       1.0  0.9834606363276633  0.11765944806785457  0.22363105415264778  1.0000
  C   C14       1.0  0.016533883935849814  0.8823414368731123  0.7763633237383801  1.0000
  C   C15       1.0  0.9917919069728784  0.9952888124080989  0.16171163684771286  1.0000
  C   C16       1.0  0.008211659378687798  0.004713139714276296  0.8382853604573132  1.0000
  C   C17       1.0  0.12009619433464283  0.9398138728129626  0.17579648274043796  1.0000
  C   C18       1.0  0.8799064821616298  0.060189971154727594  0.8242006080983446  1.0000
  C   C19       1.0  0.33407569144023347  0.935287172432439  0.23979464730462047  1.0000
  C   C20       1.0  0.6659249223313708  0.0647175060878098  0.7602074620459904  1.0000
  C   C21       1.0  0.46478896736181957  0.983774018884681  0.3072201251488665  1.0000
  C   C22       1.0  0.5352145190895924  0.0162287814948101  0.6927831217589856  1.0000
  C   C23       1.0  0.5754530810700942  0.9081146003677676  0.31357043594624673  1.0000
  C   C24       1.0  0.42455053597798553  0.09189012117415268  0.6864322100268156  1.0000
  C   C25       1.0  0.698643768805816  0.9564913343984927  0.3821831546324007  1.0000
  C   C26       1.0  0.3013639832075512  0.043515365668078204  0.6178196059024759  1.0000
  C   C27       1.0  0.7142659501356121  0.08093017694224612  0.4462491984284967  1.0000
  C   C28       1.0  0.28573621348995454  0.9190696300055093  0.5537604477349094  1.0000
  C   C29       1.0  0.8374182280302663  0.1306722996430025  0.5215055294984341  1.0000
  C   C30       1.0  0.16258799558236348  0.869328517759911  0.4785049683655275  1.0000
  C   C31       1.0  0.9378507529626249  0.17829847492188833  0.5905395714700036  1.0000
  C   C32       1.0  0.06214686946978531  0.8216917587107916  0.40946712381456524  1.0000
  C   C33       1.0  0.6034022157187026  0.1569898723289569  0.4373928994419744  1.0000
  C   C34       1.0  0.39660113767508426  0.843011915051413  0.5626137046327103  1.0000
  C   C35       1.0  0.4804123985581299  0.10898632877164263  0.36910067759605897  1.0000
  C   C36       1.0  0.5195939387523297  0.8910154866538562  0.6309073364437623  1.0000
  C   C37       1.0  0.7613446745628424  0.5470696727862432  0.3245315050433107  1.0000
  C   C38       1.0  0.23865012625380194  0.45293506945611745  0.6754607976354452  1.0000
  C   C39       1.0  0.23916601927749787  0.4533331999131748  0.3405520166836312  1.0000
  C   C40       1.0  0.7608393943799926  0.546668661077952  0.6594523251112607  1.0000
  S   S1        1.0  0.2363091798043016  0.42778154928067386  0.17529843232019005  1.0000
  S   S2        1.0  0.7636901547829781  0.5722183494343157  0.8247028171365048  1.0000
  S   S3        1.0  0.7618171770854617  0.5737048141918495  0.1659362384799366  1.0000
  S   S4        1.0  0.23818229548136574  0.4262942811956665  0.8340561413458406  1.0000
  N   N1        1.0  0.15709295577350704  0.829865303270303  0.12892039078452205  1.0000
  N   N2        1.0  0.8429084172567229  0.1701355622422014  0.871082225967122  1.0000
  N   N3        1.0  0.2939590851645306  0.8267173450018316  0.1696325532606267  1.0000
  N   N4        1.0  0.7060413230321815  0.1732844442865016  0.8303708941635153  1.0000
  O   O1        1.0  0.22834628300392273  0.009733831939080098  0.2463485515749469  1.0000
  O   O2        1.0  0.7716532184386579  0.990268926054732  0.7536531064936157  1.0000
  O   O3        1.0  0.3493880459026144  0.5104871677525651  0.16232487762849254  1.0000
  O   O4        1.0  0.6506102368960001  0.4895099472023289  0.837670544286006  1.0000
  O   O5        1.0  0.2483975100714915  0.29116172293023374  0.14801568478009136  1.0000
  O   O6        1.0  0.7516017495375565  0.7088372077152769  0.8519863018153445  1.0000
  O   O7        1.0  0.10289698390833024  0.4680945520408957  0.12396702097636593  1.0000
  O   O8        1.0  0.8971003266738792  0.531906211179738  0.8760375003067654  1.0000
  O   O9        1.0  0.8742439510919482  0.667891615975428  0.1777040618554225  1.0000
  O   O10       1.0  0.1257602851021318  0.3321037237665649  0.8222895408679848  1.0000
  O   O11       1.0  0.6298467150003191  0.6192612488368354  0.1276579650847225  1.0000
  O   O12       1.0  0.3701549121682532  0.3807389032074583  0.8723305419798354  1.0000
  O   O13       1.0  0.7815770365037835  0.4470068567524805  0.10605742625607922  1.0000
  O   O14       1.0  0.2184180543423011  0.5529882490886779  0.8939406799988492  1.0000
  F   F1        1.0  0.6632101853369434  0.4588892516576024  0.33081628213799535  1.0000
  F   F2        1.0  0.33678570598796403  0.541118304297953  0.669180101397558  1.0000
  F   F3        1.0  0.8806100770444302  0.5072968198907829  0.37536867979043365  1.0000
  F   F4        1.0  0.11938394023187023  0.4927135367093882  0.6246295012940807  1.0000
  F   F5        1.0  0.7406518915196544  0.6584324475606068  0.3904864031228073  1.0000
  F   F6        1.0  0.2593419856440278  0.34157234024738165  0.609502227311012  1.0000
  F   F7        1.0  0.13702818149974413  0.38263531202362344  0.36771724138540673  1.0000
  F   F8        1.0  0.8629790505879243  0.6173627952299512  0.6322851666565728  1.0000
  F   F9        1.0  0.3567773839787591  0.41752874238098064  0.39976019864572987  1.0000
  F   F10       1.0  0.6432325201753812  0.5824799225056765  0.6002414453599627  1.0000
  F   F11       1.0  0.22761446578255834  0.5772325630095666  0.3802336264373879  1.0000
  F   F12       1.0  0.7723830915551064  0.4227702112327664  0.6197650538547779  1.0000
