data_image0
_chemical_formula_structural       K2H50C38N4O4
_chemical_formula_sum              "K2 H50 C38 N4 O4"
_cell_length_a       7.65083372565863
_cell_length_b       10.259466107982682
_cell_length_c       13.185457782398084
_cell_angle_alpha    107.9253250533048
_cell_angle_beta     88.91609879459564
_cell_angle_gamma    108.23648691727155

_space_group_name_H-M_alt    "P 1"
_space_group_IT_number       1

loop_
  _space_group_symop_operation_xyz
  'x, y, z'

loop_
  _atom_site_type_symbol
  _atom_site_label
  _atom_site_symmetry_multiplicity
  _atom_site_fract_x
  _atom_site_fract_y
  _atom_site_fract_z
  _atom_site_occupancy
  K   K1        1.0  0.2941344148951685  0.0277379984517836  0.5271256617991114  1.0000
  K   K2        1.0  0.7058691357214072  0.9722585945813119  0.47287263500933086  1.0000
  H   H1        1.0  0.8825820241692384  0.7271953271997731  0.45186476539082315  1.0000
  H   H2        1.0  0.11741940269972417  0.27280560758850203  0.5481353348386192  1.0000
  H   H3        1.0  0.784253306244622  0.6838500303281663  0.5675237119571505  1.0000
  H   H4        1.0  0.21574983791402494  0.31615197165032066  0.4324781555461285  1.0000
  H   H5        1.0  0.02591996496731492  0.7166771059010485  0.5526591632583971  1.0000
  H   H6        1.0  0.9740853964013849  0.2833238166203458  0.4473401640363902  1.0000
  H   H7        1.0  0.6062123045184149  0.0276122652518609  0.9426371456523979  1.0000
  H   H8        1.0  0.39378458396350874  0.9723865883706893  0.05735185107265285  1.0000
  H   H9        1.0  0.18289679174921503  0.5187406203788073  0.0486230125026097  1.0000
  H   H10       1.0  0.8170761560830896  0.481245267160844  0.9513720541542126  1.0000
  H   H11       1.0  0.3707961914149606  0.7183209103621593  0.20448535999571496  1.0000
  H   H12       1.0  0.629199997156327  0.28167032202982506  0.7955071249219184  1.0000
  H   H13       1.0  0.3134644457493039  0.6111905196710623  0.5044488055252215  1.0000
  H   H14       1.0  0.6865492041422101  0.38880821265286863  0.49554769807016885  1.0000
  H   H15       1.0  0.2797273907374347  0.3554113699066335  0.8534093510373278  1.0000
  H   H16       1.0  0.7202755278565435  0.6445960838041672  0.14658927044325756  1.0000
  H   H17       1.0  0.8615407722906951  0.8814957855933374  0.7386426431210893  1.0000
  H   H18       1.0  0.13847195815711186  0.11850725904160703  0.2613594457867236  1.0000
  H   H19       1.0  0.7457053099757615  0.2665846621668564  0.05702183597278318  1.0000
  H   H20       1.0  0.25428053812957774  0.7334043738850582  0.9429815311145899  1.0000
  H   H21       1.0  0.9079437438770696  0.17421388908394422  0.04745141774497339  1.0000
  H   H22       1.0  0.09204130538006436  0.8257794878035938  0.952552990176471  1.0000
  H   H23       1.0  0.9069804047624785  0.13430635403605606  0.7320904741243339  1.0000
  H   H24       1.0  0.09302493650696422  0.8656945637312391  0.26790961058351564  1.0000
  H   H25       1.0  0.49074167833597215  0.5955240864635557  0.6199450469997385  1.0000
  H   H26       1.0  0.5092653540923138  0.40447141193058656  0.3800522192524695  1.0000
  H   H27       1.0  0.9299480007034189  0.2964118882172784  0.9736403457567419  1.0000
  H   H28       1.0  0.0700386723809743  0.7035792935623775  0.026366566226030775  1.0000
  H   H29       1.0  0.5960390584191302  0.5892775818791947  0.7923348021355279  1.0000
  H   H30       1.0  0.40396355265448847  0.4107233187108008  0.2076698373983915  1.0000
  H   H31       1.0  0.03573136302179589  0.12754903028727674  0.8406430979496022  1.0000
  H   H32       1.0  0.9642765677487187  0.8724518713785939  0.1593577338235689  1.0000
  H   H33       1.0  0.49954801464546245  0.0353648759171392  0.7690014303610082  1.0000
  H   H34       1.0  0.5004534463904021  0.9646295865700835  0.2309918118997841  1.0000
  H   H35       1.0  0.10123032433600797  0.9086605438778576  0.7196819731983692  1.0000
  H   H36       1.0  0.8987803295965122  0.09134361349288869  0.2803173540265219  1.0000
  H   H37       1.0  0.04482271825924758  0.5125373193060411  0.4162615152886814  1.0000
  H   H38       1.0  0.9551786613773882  0.4874668445016113  0.5837431500446683  1.0000
  H   H39       1.0  0.758685181222944  0.9054918284335045  0.037116260214553186  1.0000
  H   H40       1.0  0.2413168581258276  0.09451994709650789  0.9628864317523307  1.0000
  H   H41       1.0  0.7355844869440132  0.7190714602842547  0.9758614929709776  1.0000
  H   H42       1.0  0.2644222656534438  0.28093595738915406  0.02414014264024189  1.0000
  H   H43       1.0  0.5469834514869945  0.7700533459632836  0.03454509392703634  1.0000
  H   H44       1.0  0.45301369472205977  0.2299530242995687  0.9654570776927042  1.0000
  H   H45       1.0  0.8596020350845491  0.31568383542083467  0.26176403052609487  1.0000
  H   H46       1.0  0.14038776661755034  0.6843149134551395  0.7382461996338917  1.0000
  H   H47       1.0  0.13992201418604816  0.3731078512604071  0.7538473526917002  1.0000
  H   H48       1.0  0.8600773562668705  0.6268942010177838  0.24614922844176584  1.0000
  H   H49       1.0  0.3721082089989451  0.37313503153161065  0.7308947840031337  1.0000
  H   H50       1.0  0.6278938243182282  0.6268702621891437  0.2691025648212245  1.0000
  C   C1        1.0  0.22827497707215363  0.6293211112036162  0.32288878653542946  1.0000
  C   C2        1.0  0.7717321417847314  0.3706808880161958  0.6771107932070776  1.0000
  C   C3        1.0  0.08038515921558799  0.5130028881897886  0.3359226180420619  1.0000
  C   C4        1.0  0.919603938102959  0.4869937434830618  0.664079522744174  1.0000
  C   C5        1.0  0.9751615496673052  0.4016290019175131  0.2483999370872069  1.0000
  C   C6        1.0  0.024828845417580715  0.598370862609258  0.75160524880296  1.0000
  C   C7        1.0  0.009611008265849798  0.39998450288199183  0.14321819875635805  1.0000
  C   C8        1.0  0.9903657735699338  0.6000013486202675  0.8567798820310981  1.0000
  C   C9        1.0  0.15339750457622606  0.5162647931523097  0.12958201802931055  1.0000
  C   C10       1.0  0.8465932296350118  0.4837328866943338  0.8704249196830031  1.0000
  C   C11       1.0  0.25954588918266813  0.628800195152465  0.21683884174732523  1.0000
  C   C12       1.0  0.740434793988179  0.3711823960471392  0.7831569306538027  1.0000
  C   C13       1.0  0.8930333875058807  0.2785370422512941  0.05018919894737908  1.0000
  C   C14       1.0  0.10694899888699885  0.7214530931936736  0.9498144412831732  1.0000
  C   C15       1.0  0.48265053813675957  0.8162635497736092  0.6809661337264004  1.0000
  C   C16       1.0  0.5173550031229651  0.18374713587155614  0.3190347702711945  1.0000
  C   C17       1.0  0.5106789722362208  0.6903342792831708  0.6905148062450903  1.0000
  C   C18       1.0  0.4893293509245709  0.3096676904924678  0.3094885553888388  1.0000
  C   C19       1.0  0.5697640269269755  0.686359060576173  0.7886145567298397  1.0000
  C   C20       1.0  0.4302409742139018  0.3136537622080766  0.21139216957618598  1.0000
  C   C21       1.0  0.6040041130571865  0.8061285702857219  0.8817064873971459  1.0000
  C   C22       1.0  0.3959958367108669  0.19388107469841737  0.11829115002208816  1.0000
  C   C23       1.0  0.5778349819111809  0.9316360749972219  0.8723070853000577  1.0000
  C   C24       1.0  0.4221709246057514  0.0683789125311804  0.12770015624914063  1.0000
  C   C25       1.0  0.5181119143082211  0.936656128254043  0.7751372577489091  1.0000
  C   C26       1.0  0.4818932013965521  0.06335024124556551  0.22485958093624694  1.0000
  C   C27       1.0  0.6650991191911615  0.8000570163925785  0.9874905432143419  1.0000
  C   C28       1.0  0.3349013767273519  0.19995697326172754  0.012506615038979894  1.0000
  C   C29       1.0  0.3583099993353471  0.72331984667575  0.5001081468750141  1.0000
  C   C30       1.0  0.6416921670862834  0.2766670126777626  0.4998847913392054  1.0000
  C   C31       1.0  0.021544297285778696  0.10025244805388667  0.75266942952409  1.0000
  C   C32       1.0  0.9784653909729283  0.8997495303103944  0.2473316546968006  1.0000
  C   C33       1.0  0.980812992664944  0.9393332821719653  0.7035182766123069  1.0000
  C   C34       1.0  0.019195830416201404  0.06066654095637601  0.29648077753930113  1.0000
  C   C35       1.0  0.24679634037220657  0.32726076645914043  0.7666044514547891  1.0000
  C   C36       1.0  0.753206072269812  0.6727423520896991  0.23339313436559184  1.0000
  C   C37       1.0  0.9060186544492904  0.7481226653592186  0.5380752294389237  1.0000
  C   C38       1.0  0.09398628739605637  0.2518804228258844  0.4619253756859577  1.0000
  N   N1        1.0  0.3363813366968813  0.7444629913153165  0.4072645327115295  1.0000
  N   N2        1.0  0.6636213155774654  0.2555281984460508  0.5927301985759498  1.0000
  N   N3        1.0  0.4334839530778821  0.8353435858140871  0.5870062502786622  1.0000
  N   N4        1.0  0.5665201175582978  0.16465086532581807  0.412986981634404  1.0000
  O   O1        1.0  0.18957107445208263  0.17398313162851758  0.716190340353975  1.0000
  O   O2        1.0  0.8104365171920874  0.8260199547174738  0.2838087395970632  1.0000
  O   O3        1.0  0.9419980799717249  0.8997762678661871  0.5896769013420238  1.0000
  O   O4        1.0  0.05800814657452241  0.10022680989115432  0.410324456022053  1.0000
