data_image0
_chemical_formula_structural       Zn4H32C28N8O24
_chemical_formula_sum              "Zn4 H32 C28 N8 O24"
_cell_length_a       9.335163716005454
_cell_length_b       10.631850328740823
_cell_length_c       11.130464805588916
_cell_angle_alpha    118.1781415697303
_cell_angle_beta     89.99989993980378
_cell_angle_gamma    90.00011105209698

_space_group_name_H-M_alt    "P 1"
_space_group_IT_number       1

loop_
  _space_group_symop_operation_xyz
  'x, y, z'

loop_
  _atom_site_type_symbol
  _atom_site_label
  _atom_site_symmetry_multiplicity
  _atom_site_fract_x
  _atom_site_fract_y
  _atom_site_fract_z
  _atom_site_occupancy
  Zn  Zn1       1.0  0.6764562312053287  0.347952316513414  0.4035710575933393  1.0000
  Zn  Zn2       1.0  0.17645546217500652  0.1520469100732313  0.0964285140169636  1.0000
  Zn  Zn3       1.0  0.323543433503005  0.6520478255133072  0.5964293617976111  1.0000
  Zn  Zn4       1.0  0.823544202533327  0.8479532319534968  0.9035719053739798  1.0000
  H   H1        1.0  0.8432673400391762  0.1409904933158757  0.28620659970223983  1.0000
  H   H2        1.0  0.3432667829792421  0.35901001317304093  0.21379420051750497  1.0000
  H   H3        1.0  0.15673339588764887  0.8590096487115275  0.7137938196882274  1.0000
  H   H4        1.0  0.6567318105112747  0.6409911958808223  0.7862066981134247  1.0000
  H   H5        1.0  0.9388832540267346  0.27373966232220687  0.4052146380402064  1.0000
  H   H6        1.0  0.4388826517768506  0.22626096478720828  0.09478607610608239  1.0000
  H   H7        1.0  0.061117481899160005  0.726260482145463  0.5947866808836936  1.0000
  H   H8        1.0  0.5611159417139219  0.773739174798571  0.9052134437519044  1.0000
  H   H9        1.0  0.6462826491411207  0.8846137590671077  0.49054224360442317  1.0000
  H   H10       1.0  0.14628197993994974  0.6153843977335  0.009457594273989338  1.0000
  H   H11       1.0  0.35371808678409167  0.115385318372752  0.5094585960799806  1.0000
  H   H12       1.0  0.853718755990343  0.384616804000899  0.9905406057556618  1.0000
  H   H13       1.0  0.6728030558115138  0.0006691196509577998  0.3439209017766203  1.0000
  H   H14       1.0  0.1728039986704601  0.4993311717963353  0.15608005189444193  1.0000
  H   H15       1.0  0.3271955376773974  0.9993310248153618  0.6560804171482459  1.0000
  H   H16       1.0  0.8271967372621205  0.5006721615534246  0.843918207080769  1.0000
  H   H17       1.0  0.9919072876845902  0.28352375704245253  0.6183896641216364  1.0000
  H   H18       1.0  0.49190928215636376  0.21647534833687132  0.8816115737307086  1.0000
  H   H19       1.0  0.0080902345842233  0.7164753228356486  0.38161207509764944  1.0000
  H   H20       1.0  0.5080914537704615  0.7835247936905247  0.11838884565975853  1.0000
  H   H21       1.0  0.9683155624144105  0.1655714791963661  0.76348000919333  1.0000
  H   H22       1.0  0.46831704650219314  0.3344265269533295  0.7365198711235835  1.0000
  H   H23       1.0  0.0316830310731433  0.8344265312143264  0.23652035125253698  1.0000
  H   H24       1.0  0.5316836894232821  0.6655714810184393  0.2634795897878846  1.0000
  H   H25       1.0  0.42868004893731637  0.2412035813766452  0.4169423091861689  1.0000
  H   H26       1.0  0.9286791445888268  0.2587959682735814  0.08305883443912879  1.0000
  H   H27       1.0  0.5713196157694044  0.7587954960625396  0.5830585304987183  1.0000
  H   H28       1.0  0.0713194489000841  0.7412041761927385  0.9169424844857375  1.0000
  H   H29       1.0  0.4565831546317938  0.3829933807314916  0.5611313273692247  1.0000
  H   H30       1.0  0.9565833419960087  0.11700567764464145  0.938869042749289  1.0000
  H   H31       1.0  0.543416510074927  0.617005696707686  0.4388695123156623  1.0000
  H   H32       1.0  0.0434163227107121  0.882993399794543  0.06113179693559785  1.0000
  C   C1        1.0  0.7918664226566393  0.9399840451770134  0.7185089374398219  1.0000
  C   C2        1.0  0.2918672093124073  0.5600116371898309  0.7814899620499247  1.0000
  C   C3        1.0  0.20813431326722315  0.0600128982072192  0.2814909437655899  1.0000
  C   C4        1.0  0.708134597834352  0.4399863634617986  0.21850680026074806  1.0000
  C   C5        1.0  0.8047897420418623  0.0171853724941258  0.6375953705360758  1.0000
  C   C6        1.0  0.3047880778137539  0.48281242248341977  0.8624028579213673  1.0000
  C   C7        1.0  0.19521206510371059  0.9828137000658687  0.3624036700809726  1.0000
  C   C8        1.0  0.6952115868950841  0.5171855806071337  0.13759480392371162  1.0000
  C   C9        1.0  0.7217457739183716  0.9722074974661298  0.5189981308099831  1.0000
  C   C10       1.0  0.22174500427657756  0.5277902280571212  0.9810008907486534  1.0000
  C   C11       1.0  0.2782549620077717  0.027791577533456298  0.4810018093409881  1.0000
  C   C12       1.0  0.7782546604326869  0.4722099115293261  0.01899862910885733  1.0000
  C   C13       1.0  0.7362759085943082  0.0367162911901104  0.4366173392811988  1.0000
  C   C14       1.0  0.23627482208308243  0.46328301329978666  0.06338307801299688  1.0000
  C   C15       1.0  0.2637248273309111  0.9632827862497493  0.5633835004032051  1.0000
  C   C16       1.0  0.7637248426284698  0.5367192579020285  0.9366165007900733  1.0000
  C   C17       1.0  0.8337343820841312  0.14907033927985217  0.47262713453641686  1.0000
  C   C18       1.0  0.33373419420905037  0.3509290905958196  0.027374094558673814  1.0000
  C   C19       1.0  0.16626528262099075  0.850927673571782  0.5273741254424138  1.0000
  C   C20       1.0  0.6662633280645879  0.6490731830449121  0.9726263837787954  1.0000
  C   C21       1.0  0.915506845878937  0.19677338786404872  0.5916449469096394  1.0000
  C   C22       1.0  0.415505762147383  0.30322561869306947  0.9083554601863498  1.0000
  C   C23       1.0  0.08449389004535128  0.8032256920160775  0.40835679230819727  1.0000
  C   C24       1.0  0.5844939025618814  0.6967745208933849  0.09164405967116097  1.0000
  C   C25       1.0  0.9017072518007013  0.1302844369312339  0.6728463807296308  1.0000
  C   C26       1.0  0.4017054117751186  0.36971348274897764  0.8271526600161607  1.0000
  C   C27       1.0  0.09829455534300281  0.8697146405093009  0.32715445895428996  1.0000
  C   C28       1.0  0.5982942529327957  0.6302845227818423  0.1728459013623507  1.0000
  N   N1        1.0  0.8459003721124533  0.21589897636269476  0.3877868609025441  1.0000
  N   N2        1.0  0.34589986101186543  0.28410046886030216  0.11221435724085889  1.0000
  N   N3        1.0  0.1540992925949496  0.7841011681043001  0.612214458021839  1.0000
  N   N4        1.0  0.6540987324802572  0.7159018047811045  0.8877861210961272  1.0000
  N   N5        1.0  0.8470339075493385  0.5835715007183139  0.5982269495690248  1.0000
  N   N6        1.0  0.3470341578976672  0.9164274498857523  0.9017724384442404  1.0000
  N   N7        1.0  0.1529657571583201  0.41642757428058985  0.40177299058242977  1.0000
  N   N8        1.0  0.6529655068106662  0.08357269214097579  0.09822798094671012  1.0000
  O   O1        1.0  0.6988363757716058  0.8446945534777227  0.6915793652136061  1.0000
  O   O2        1.0  0.19883731629542464  0.6553042101739665  0.8084201562067933  1.0000
  O   O3        1.0  0.3011622177168789  0.15530345449269586  0.3084200956988283  1.0000
  O   O4        1.0  0.8011623484147705  0.34469592697222146  0.19157846411727766  1.0000
  O   O5        1.0  0.8824850092006429  0.9697311296037372  0.8180600226634028  1.0000
  O   O6        1.0  0.3824848658058357  0.5302689351901221  0.6819407122098795  1.0000
  O   O7        1.0  0.1175167979437433  0.030269014864607906  0.181941296260014  1.0000
  O   O8        1.0  0.6175169413413428  0.4697312019574155  0.3180579081132322  1.0000
  O   O9        1.0  0.5048479643160774  0.3004008810447374  0.4838517019709983  1.0000
  O   O10       1.0  0.004848537828529201  0.199598129057037  0.016148024120504097  1.0000
  O   O11       1.0  0.495151700392256  0.6995992609819839  0.5161487174199452  1.0000
  O   O12       1.0  0.9951511268791223  0.8004009459418739  0.9838519160309431  1.0000
  O   O13       1.0  0.735612105502291  0.5112996691593422  0.6003992923977819  1.0000
  O   O14       1.0  0.23561251945535838  0.9887002103530805  0.8996015746902728  1.0000
  O   O15       1.0  0.26438648798662  0.48870047530697747  0.39960202652708426  1.0000
  O   O16       1.0  0.7643871452529751  0.011299931673640599  0.10039884470067051  1.0000
  O   O17       1.0  0.9165323829573141  0.6515955021888401  0.7069069745182902  1.0000
  O   O18       1.0  0.41653270915848856  0.848404607996727  0.793094629238766  1.0000
  O   O19       1.0  0.0834672817500888  0.3484046422781546  0.29309434440610005  1.0000
  O   O20       1.0  0.583468026767406  0.15159553647094268  0.2069066896851339  1.0000
  O   O21       1.0  0.8833301151919953  0.5830228094225235  0.49024346411559355  1.0000
  O   O22       1.0  0.38333010928028693  0.9169767134442995  0.009756639611836789  1.0000
  O   O23       1.0  0.11666954951633811  0.4169773326041977  0.5097569552753498  1.0000
  O   O24       1.0  0.6166695554273716  0.0830223615546117  0.9902433005396105  1.0000
