data_image0
_chemical_formula_structural       Cu4H32C24N8O28
_chemical_formula_sum              "Cu4 H32 C24 N8 O28"
_cell_length_a       5.885538711571125
_cell_length_b       10.505486330387034
_cell_length_c       16.33605650093629
_cell_angle_alpha    96.06013813261976
_cell_angle_beta     90.00702937990903
_cell_angle_gamma    90.00203205535965

_space_group_name_H-M_alt    "P 1"
_space_group_IT_number       1

loop_
  _space_group_symop_operation_xyz
  'x, y, z'

loop_
  _atom_site_type_symbol
  _atom_site_label
  _atom_site_symmetry_multiplicity
  _atom_site_fract_x
  _atom_site_fract_y
  _atom_site_fract_z
  _atom_site_occupancy
  Cu  Cu1       1.0  0.13016049491964315  0.8974735173155252  0.3612911711706985  1.0000
  Cu  Cu2       1.0  0.6300403152134353  0.10251335656180775  0.1387061624072388  1.0000
  Cu  Cu3       1.0  0.8699704977359847  0.10245173849575913  0.6387078692610189  1.0000
  Cu  Cu4       1.0  0.3701280655181521  0.8975623772477592  0.8613077562747691  1.0000
  H   H1        1.0  0.41287929649410426  0.4337552600148058  0.39583482697968725  1.0000
  H   H2        1.0  0.9129112053839779  0.5662753205393899  0.1041715188904249  1.0000
  H   H3        1.0  0.5870767000197931  0.5662295677005886  0.6042029456346327  1.0000
  H   H4        1.0  0.08705157410828693  0.4337306893227436  0.8957859661244144  1.0000
  H   H5        1.0  0.3459512555131  0.3151273717874049  0.4622598571285721  1.0000
  H   H6        1.0  0.84583621733065  0.6848776240289638  0.037739162409096104  1.0000
  H   H7        1.0  0.6540370230910003  0.6848507366023286  0.5377769403143376  1.0000
  H   H8        1.0  0.15414185354455875  0.31513496133241153  0.9622150050224576  1.0000
  H   H9        1.0  0.7460169777671837  0.30791725886997784  0.3406305848863199  1.0000
  H   H10       1.0  0.24596211577230787  0.6922456083760551  0.1593837030721303  1.0000
  H   H11       1.0  0.25397639924700144  0.6920923690559917  0.6594060813222598  1.0000
  H   H12       1.0  0.7540006657516188  0.30776458016356406  0.8405844168943732  1.0000
  H   H13       1.0  0.6667343535076075  0.17673490786221183  0.3968513265627607  1.0000
  H   H14       1.0  0.16660844040842457  0.823344931882716  0.10310301453992572  1.0000
  H   H15       1.0  0.33326751710038155  0.8232525645369292  0.6031798550056778  1.0000
  H   H16       1.0  0.8333645339165375  0.17666399038110822  0.8968558528530792  1.0000
  H   H17       1.0  0.2594020218304254  0.30295154606073993  0.28271214714954596  1.0000
  H   H18       1.0  0.7594395165536698  0.6970452576858008  0.2172980186006939  1.0000
  H   H19       1.0  0.7404486362153622  0.6970549946850966  0.7173463912046003  1.0000
  H   H20       1.0  0.24039412877191785  0.302922037110946  0.7826445107948529  1.0000
  H   H21       1.0  0.8720109448687126  0.42488553018066  0.46244731440610565  1.0000
  H   H22       1.0  0.37187881507141196  0.5751645263935785  0.037568121327844005  1.0000
  H   H23       1.0  0.12792636477857403  0.5751150426260452  0.5376041677527041  1.0000
  H   H24       1.0  0.6280193983444137  0.4248308524729439  0.9623857256346824  1.0000
  H   H25       1.0  0.7282895439094546  0.931372617322559  0.4809982594594757  1.0000
  H   H26       1.0  0.22814988971080655  0.06866326423603651  0.0190010459683023  1.0000
  H   H27       1.0  0.27175989160918596  0.0685751520363453  0.5189885271494461  1.0000
  H   H28       1.0  0.7719250405067513  0.9314501920266949  0.9809983801588444  1.0000
  H   H29       1.0  0.6522160412493748  0.8970284184712229  0.38851090867338206  1.0000
  H   H30       1.0  0.15206060010146427  0.103017118085603  0.11148381143979691  1.0000
  H   H31       1.0  0.34785718262062204  0.10293855325502932  0.6114787543352306  1.0000
  H   H32       1.0  0.84801262921264  0.8970646949269677  0.8885120655906462  1.0000
  C   C1        1.0  0.07074169968745993  0.08992455206830391  0.2632846362688284  1.0000
  C   C2        1.0  0.5707223200106669  0.9100741676833766  0.2367340527513235  1.0000
  C   C3        1.0  0.9292058019712784  0.9100489976754389  0.7367586487657077  1.0000
  C   C4        1.0  0.4292404619034685  0.0899465273485873  0.7632340234328153  1.0000
  C   C5        1.0  0.20371357659587377  0.1470174806909839  0.3389049915910789  1.0000
  C   C6        1.0  0.7036445373059765  0.8529711848074087  0.1610980513611153  1.0000
  C   C7        1.0  0.7963392625335859  0.8529474447889176  0.6611090516573129  1.0000
  C   C8        1.0  0.29638960863641733  0.14706045068258086  0.8388828640412245  1.0000
  C   C9        1.0  0.41827958023192496  0.3308624496303878  0.4021182251935543  1.0000
  C   C10       1.0  0.9182491045031116  0.6691660528601987  0.09787966707114042  1.0000
  C   C11       1.0  0.5816781144457439  0.6691212560895038  0.5979145884665584  1.0000
  C   C12       1.0  0.08171367534291823  0.33084286928522033  0.9020792000963169  1.0000
  C   C13       1.0  0.6649576754016451  0.2812773160453262  0.3968407315253231  1.0000
  C   C14       1.0  0.1648918174034435  0.7188113973727469  0.1031513640212296  1.0000
  C   C15       1.0  0.3350204082341152  0.7187177709121639  0.6031896369828829  1.0000
  C   C16       1.0  0.8351117394603521  0.28119450983516003  0.8968030548906185  1.0000
  C   C17       1.0  0.8207484997008268  0.2801802181348876  0.5349327425094614  1.0000
  C   C18       1.0  0.3207235801527518  0.7198617718429717  0.9650914554934218  1.0000
  C   C19       1.0  0.17926696376294166  0.7197845336716429  0.4651045573677663  1.0000
  C   C20       1.0  0.679315661441706  0.28015913033265605  0.034882756392669  1.0000
  C   C21       1.0  0.9617227083728751  0.3470715048505753  0.6065494852094488  1.0000
  C   C22       1.0  0.46161821658591873  0.6529070155734049  0.8934846849448093  1.0000
  C   C23       1.0  0.03830125125161741  0.6528820104327766  0.3934945542659777  1.0000
  C   C24       1.0  0.53839384192667  0.34713516740352907  0.1064974129885528  1.0000
  N   N1        1.0  0.2772115866789164  0.26594715362768545  0.3378174441272606  1.0000
  N   N2        1.0  0.7771679038716215  0.7340573889415367  0.1621841077311785  1.0000
  N   N3        1.0  0.7227715948852879  0.734032889349848  0.662220070170946  1.0000
  N   N4        1.0  0.22278468215765918  0.2659564006413434  0.8377774717324442  1.0000
  N   N5        1.0  0.7949688183782375  0.33773931879009206  0.4672781795354837  1.0000
  N   N6        1.0  0.29486877302962006  0.6623081359550158  0.032738089907162815  1.0000
  N   N7        1.0  0.20499397554330306  0.6622457152598856  0.532765727239557  1.0000
  N   N8        1.0  0.7050940066257712  0.3376922143450614  0.9672215380107262  1.0000
  O   O1        1.0  0.014785895912062601  0.1601343146500511  0.2095613455761836  1.0000
  O   O2        1.0  0.5148090083023577  0.8398610268020192  0.29044985762926967  1.0000
  O   O3        1.0  0.9850698568239127  0.839836651753849  0.7904903696923853  1.0000
  O   O4        1.0  0.48505182543026154  0.16014954004847942  0.7095011366362841  1.0000
  O   O5        1.0  0.025885336605789205  0.9703957621140308  0.263164981883655  1.0000
  O   O6        1.0  0.5258706635157041  0.0296079548050443  0.2368324560500454  1.0000
  O   O7        1.0  0.974009492363422  0.029590834533443904  0.7368685991371677  1.0000
  O   O8        1.0  0.4740445417596605  0.9703961611086743  0.7631255377462483  1.0000
  O   O9        1.0  0.23424023617820922  0.07934302533392674  0.3976656493127848  1.0000
  O   O10       1.0  0.734085957577321  0.9206536743385101  0.1023293423744605  1.0000
  O   O11       1.0  0.7659162417589301  0.9205924897589242  0.6023259870880012  1.0000
  O   O12       1.0  0.266080721099229  0.0794025273511991  0.8976718859799747  1.0000
  O   O13       1.0  0.7331244293805599  0.17239174293678164  0.5437773827421424  1.0000
  O   O14       1.0  0.23322179391848866  0.8276718702246912  0.9562362610770023  1.0000
  O   O15       1.0  0.26698447875656944  0.8275417668451156  0.4562398600990463  1.0000
  O   O16       1.0  0.7669482819017477  0.17237655166533736  0.04376087267828411  1.0000
  O   O17       1.0  0.9758318757915277  0.28241101122106477  0.6687271691606114  1.0000
  O   O18       1.0  0.4758615931224528  0.7175666958550907  0.83130205588445  1.0000
  O   O19       1.0  0.0241954777473268  0.7175075567022946  0.33130028455859434  1.0000
  O   O20       1.0  0.524245615764869  0.2824815396747055  0.1686895558706354  1.0000
  O   O21       1.0  0.04565332450057723  0.4547639221253449  0.6009397140904937  1.0000
  O   O22       1.0  0.5453848597412122  0.5452078151659094  0.899104975263171  1.0000
  O   O23       1.0  0.9543179674318909  0.5452102260360691  0.39912136010035226  1.0000
  O   O24       1.0  0.4545286429172891  0.45480132089760184  0.10083186016037621  1.0000
  O   O25       1.0  0.7735108914332899  0.9365301368585224  0.4239378136912038  1.0000
  O   O26       1.0  0.2733484741865126  0.06351270192680401  0.0760687101345567  1.0000
  O   O27       1.0  0.2265283517205958  0.063464505281658  0.5760508966833839  1.0000
  O   O28       1.0  0.7267213573851876  0.9365710869444328  0.9239291105908407  1.0000
