data_image0
_chemical_formula_structural       Zn4H32C48N12Cl4O4
_chemical_formula_sum              "Zn4 H32 C48 N12 Cl4 O4"
_cell_length_a       7.256276376596613
_cell_length_b       10.96847309496467
_cell_length_c       15.796244271977349
_cell_angle_alpha    85.65265511143097
_cell_angle_beta     76.70887481219134
_cell_angle_gamma    70.71576653117961

_space_group_name_H-M_alt    "P 1"
_space_group_IT_number       1

loop_
  _space_group_symop_operation_xyz
  'x, y, z'

loop_
  _atom_site_type_symbol
  _atom_site_label
  _atom_site_symmetry_multiplicity
  _atom_site_fract_x
  _atom_site_fract_y
  _atom_site_fract_z
  _atom_site_occupancy
  Zn  Zn1       1.0  0.32143964603712744  0.6670447654165486  0.8930226762801396  1.0000
  Zn  Zn2       1.0  0.8811110240788055  0.3329771946271052  0.10697682374766533  1.0000
  Zn  Zn3       1.0  0.9646949905410762  0.16713295125285296  0.606908357824594  1.0000
  Zn  Zn4       1.0  0.7384817693039241  0.8328507386527731  0.3930263364150124  1.0000
  H   H1        1.0  0.2728919596916699  0.882764835485247  0.03806647292566372  1.0000
  H   H2        1.0  0.1927442944025727  0.11734013940666442  0.9620417842375417  1.0000
  H   H3        1.0  0.061676153026162646  0.3826839517074205  0.46188334640374523  1.0000
  H   H4        1.0  0.9047513059357186  0.6174523269925343  0.5380997643872548  1.0000
  H   H5        1.0  0.2517538555759561  0.9497651250298557  0.18700049728850843  1.0000
  H   H6        1.0  0.3879343396707925  0.05019432535787869  0.8131794389918882  1.0000
  H   H7        1.0  0.19035316016464768  0.44963492227690693  0.3130554403544893  1.0000
  H   H8        1.0  0.9510119375575029  0.5504941366846481  0.6869171420259834  1.0000
  H   H9        1.0  0.82277098705287  0.5310519614662893  0.8353706831815658  1.0000
  H   H10       1.0  0.18842409242348174  0.46887148637728165  0.16496750475594982  1.0000
  H   H11       1.0  0.4075561384439794  0.030827205305385495  0.6646883236266137  1.0000
  H   H12       1.0  0.10320796272814896  0.9691779123810491  0.33516618104190604  1.0000
  H   H13       1.0  0.620312624738432  0.24423753145943286  0.9965952767144163  1.0000
  H   H14       1.0  0.8621880861200568  0.755622179749622  0.0033289705285570416  1.0000
  H   H15       1.0  0.3675632831270049  0.7439802312916443  0.5030910369426635  1.0000
  H   H16       1.0  0.615397926845212  0.25593827597576546  0.49697124071460064  1.0000
  H   H17       1.0  0.42034262132978745  0.7948314385158212  0.2912444873177692  1.0000
  H   H18       1.0  0.5062878711170813  0.20500393063812788  0.7089129601378588  1.0000
  H   H19       1.0  0.46286413108121144  0.29460534295275653  0.20874078479125305  1.0000
  H   H20       1.0  0.9647788824260318  0.7053946689311843  0.7912183749052207  1.0000
  H   H21       1.0  0.6138361191676652  0.5671238595659744  0.2483217774005696  1.0000
  H   H22       1.0  0.4293220124221546  0.4328235294919692  0.7516671759292849  1.0000
  H   H23       1.0  0.6126073525315052  0.0667108631544977  0.25154598488696683  1.0000
  H   H24       1.0  0.9308845288752823  0.9331209052424752  0.7483283639350449  1.0000
  H   H25       1.0  0.0011212832182536689  0.35904986071637507  0.7205311753777935  1.0000
  H   H26       1.0  0.07963465814485474  0.640970560669224  0.2797516986939286  1.0000
  H   H27       1.0  0.4705775110693368  0.8588344097141842  0.779480949115687  1.0000
  H   H28       1.0  0.10885798596451221  0.14115787487840237  0.2202947321048754  1.0000
  H   H29       1.0  0.7983401669285328  0.0871057170253238  0.8733174964887455  1.0000
  H   H30       1.0  0.7595750376638648  0.9129193376445387  0.12653499556635248  1.0000
  H   H31       1.0  0.42185579348718977  0.5868097287282055  0.6263493635256554  1.0000
  H   H32       1.0  0.6357516722488017  0.4131532241725183  0.3736967077589954  1.0000
  C   C1        1.0  0.7055462720077801  0.40222805988674526  0.9257975557495046  1.0000
  C   C2        1.0  0.033927340515433065  0.5977105130143842  0.0742927961078976  1.0000
  C   C3        1.0  0.38140565488907197  0.9020125825950557  0.5740559226495066  1.0000
  C   C4        1.0  0.8578368446655985  0.0979396808196498  0.42584255556832334  1.0000
  C   C5        1.0  0.34830295087855506  0.8146885368404282  0.08291017301242934  1.0000
  C   C6        1.0  0.24499193294307997  0.185396514805916  0.917148489561072  1.0000
  C   C7        1.0  0.18194716333542263  0.31452543908868336  0.41704826380681237  1.0000
  C   C8        1.0  0.9120186678750816  0.685602495532855  0.5829452420808466  1.0000
  C   C9        1.0  0.336972068406233  0.8507416640711865  0.16698146890590954  1.0000
  C   C10       1.0  0.35406386061922046  0.14926222325537708  0.8331300467174574  1.0000
  C   C11       1.0  0.25516339316747866  0.3505351212988899  0.3330178141231955  1.0000
  C   C12       1.0  0.9370598552263373  0.6495783975143399  0.6669670665470024  1.0000
  C   C13       1.0  0.45794428686762273  0.6863058837634738  0.05896690204948386  1.0000
  C   C14       1.0  0.20267957241803475  0.3137795877672787  0.9410485553238744  1.0000
  C   C15       1.0  0.267315402482538  0.1861135971147903  0.44093771452825353  1.0000
  C   C16       1.0  0.8934696432744785  0.8139876069608007  0.5590282978128799  1.0000
  C   C17       1.0  0.8118303992094766  0.4344578468186241  0.8463904142053595  1.0000
  C   C18       1.0  0.09236539671416473  0.565487833965321  0.1538013817733557  1.0000
  C   C19       1.0  0.40784084327481923  0.9342202114033069  0.6535576676788183  1.0000
  C   C20       1.0  0.9958540794209372  0.0657651591053678  0.3463091793982473  1.0000
  C   C21       1.0  0.6998586035796068  0.275347045367262  0.9364892995456843  1.0000
  C   C22       1.0  0.9123784333362294  0.7246013887641851  0.06350309188121639  1.0000
  C   C23       1.0  0.3867058866188559  0.7750870046480713  0.5632552459976737  1.0000
  C   C24       1.0  0.725506109003803  0.2248341195891967  0.4367192923772053  1.0000
  C   C25       1.0  0.43000928962575824  0.7624690332604372  0.22625406294324088  1.0000
  C   C26       1.0  0.4183447775683646  0.23748727410871598  0.7738420642960693  1.0000
  C   C27       1.0  0.40727936253069436  0.2622227887415464  0.273686214102277  1.0000
  C   C28       1.0  0.9419590360731367  0.737805410279911  0.7262679235813823  1.0000
  C   C29       1.0  0.5372667975781624  0.6342406796148693  0.20346877384055528  1.0000
  C   C30       1.0  0.37466822584522674  0.3657790135389334  0.7965181823444711  1.0000
  C   C31       1.0  0.4912692848089578  0.13390798700493886  0.2963861887061939  1.0000
  C   C32       1.0  0.9211084553489289  0.8660521420405374  0.7035161410109725  1.0000
  C   C33       1.0  0.5495335715659665  0.5966546342686954  0.1190397767640833  1.0000
  C   C34       1.0  0.2650125324138344  0.4033999400989428  0.8809531020570774  1.0000
  C   C35       1.0  0.4189021001829829  0.0963983682292806  0.38083007768940297  1.0000
  C   C36       1.0  0.8957710120927658  0.9036014102924954  0.6190964796826324  1.0000
  C   C37       1.0  0.6135357569444508  0.49945072210439895  0.9950031492039316  1.0000
  C   C38       1.0  0.108270491911263  0.5005247558911916  0.005059240318615806  1.0000
  C   C39       1.0  0.3587190641984324  0.9992535654731967  0.5048692765593331  1.0000
  C   C40       1.0  0.8630218502336436  0.0007211519788513  0.495023882129509  1.0000
  C   C41       1.0  0.9095554965925532  0.34264113097653137  0.7819704386518539  1.0000
  C   C42       1.0  0.033691865000911085  0.657376391396518  0.21818676935443188  1.0000
  C   C43       1.0  0.4408639167946972  0.8424025558465545  0.717960456957279  1.0000
  C   C44       1.0  0.0014258289118061235  0.15760769014308806  0.281885474429842  1.0000
  C   C45       1.0  0.7956274787748399  0.18686602165976748  0.8697801789825025  1.0000
  C   C46       1.0  0.8528228037408426  0.8131642887070499  0.1301619926048333  1.0000
  C   C47       1.0  0.4155126504411229  0.6865871444943323  0.629956314987723  1.0000
  C   C48       1.0  0.7325324713585104  0.31335493192737834  0.3700306362066358  1.0000
  N   N1        1.0  0.500771097013676  0.6221265757015644  0.9806547141306512  1.0000
  N   N2        1.0  0.1033636695638834  0.3779066237896059  0.01939116858834921  1.0000
  N   N3        1.0  0.23170207005836116  0.12196617955675748  0.5192359454873454  1.0000
  N   N4        1.0  0.8724189644742283  0.8781020270350485  0.4807150481424217  1.0000
  N   N5        1.0  0.6462663592085252  0.47835741168627516  0.07684516585321437  1.0000
  N   N6        1.0  0.2016668385350261  0.5216422661293335  0.9231901153484259  1.0000
  N   N7        1.0  0.4732478951019491  0.9780996144061973  0.42300326114190784  1.0000
  N   N8        1.0  0.8746486545614048  0.021844248632149295  0.5768714412684945  1.0000
  N   N9        1.0  0.8988497372618414  0.2211997967356893  0.7937311057837492  1.0000
  N   N10       1.0  0.9138337496452  0.7788722906851147  0.20628549992777337  1.0000
  N   N11       1.0  0.44219426908207293  0.7209251412341188  0.7061067099870187  1.0000
  N   N12       1.0  0.8695191445465158  0.2790537386543832  0.2938232031797981  1.0000
  Cl  Cl1       1.0  0.1191313945996697  0.870894142289792  0.897286048305979  1.0000
  Cl  Cl2       1.0  0.88688398271826  0.12907741947080353  0.10266245962361624  1.0000
  Cl  Cl3       1.0  0.7670263735961529  0.37109268434379333  0.6027705437782204  1.0000
  Cl  Cl4       1.0  0.7401803179441944  0.6289170780177926  0.3973099809399019  1.0000
  O   O1        1.0  0.9943235869136019  0.13224638331311664  0.7320315241837394  1.0000
  O   O2        1.0  0.8585798012782746  0.8678552905641015  0.267983672795964  1.0000
  O   O3        1.0  0.475686115841107  0.6319886149777643  0.7678238960340807  1.0000
  O   O4        1.0  0.8756707285412231  0.3680013760065961  0.23209507344734  1.0000
