data_image0
_chemical_formula_structural       Cd2H36Pt2C36N12O4
_chemical_formula_sum              "Cd2 H36 Pt2 C36 N12 O4"
_cell_length_a       8.89825611101662
_cell_length_b       10.430052913216754
_cell_length_c       10.706383134962055
_cell_angle_alpha    93.97728346127155
_cell_angle_beta     89.99979829669175
_cell_angle_gamma    89.99992194348617

_space_group_name_H-M_alt    "P 1"
_space_group_IT_number       1

loop_
  _space_group_symop_operation_xyz
  'x, y, z'

loop_
  _atom_site_type_symbol
  _atom_site_label
  _atom_site_symmetry_multiplicity
  _atom_site_fract_x
  _atom_site_fract_y
  _atom_site_fract_z
  _atom_site_occupancy
  Cd  Cd1       1.0  1.1238148048000002e-06  9.61077177e-07  6.20470715e-08  1.0000
  Cd  Cd2       1.0  0.4999987564388704  0.5000018925391885  0.5000006298774834  1.0000
  H   H1        1.0  0.9308563670494792  0.9420956494854025  0.2591979463124119  1.0000
  H   H2        1.0  0.4308564972365404  0.5579033831799833  0.2407992161850174  1.0000
  H   H3        1.0  0.06914339346601389  0.057901408045836385  0.740802879097771  1.0000
  H   H4        1.0  0.5691421394682836  0.44209462650262304  0.7591988686191016  1.0000
  H   H5        1.0  0.16510862864556947  0.8368735809430986  0.2723360206623013  1.0000
  H   H6        1.0  0.6651090818714351  0.6631248506265591  0.22766094760255842  1.0000
  H   H7        1.0  0.834892255688523  0.1631225125336471  0.7276638084785745  1.0000
  H   H8        1.0  0.3348895548344616  0.3368741171582029  0.7723362650314982  1.0000
  H   H9        1.0  0.15871154328765164  0.9825247747786109  0.3709764233067219  1.0000
  H   H10       1.0  0.6587115253796013  0.5174727104021316  0.1290223706543756  1.0000
  H   H11       1.0  0.8412904648652033  0.017472273823749204  0.62902159944354  1.0000
  H   H12       1.0  0.3412893589535814  0.4825243441525588  0.87097752053527  1.0000
  H   H13       1.0  0.2021574525793213  0.8422982249092285  0.8049217028120664  1.0000
  H   H14       1.0  0.7021591763867648  0.6576992097964264  0.6950805272719478  1.0000
  H   H15       1.0  0.797845679382732  0.15770363205786003  0.19507756439919893  1.0000
  H   H16       1.0  0.2978428317552826  0.3422988147627848  0.3049222286213009  1.0000
  H   H17       1.0  0.26384337231214533  0.09486222513762502  0.1814408901356614  1.0000
  H   H18       1.0  0.7638408026430453  0.4051373908409062  0.3185606877958875  1.0000
  H   H19       1.0  0.736158635833867  0.9051357934700235  0.8185599973199019  1.0000
  H   H20       1.0  0.23615895786684152  0.5948635139778845  0.6814413200282204  1.0000
  H   H21       1.0  0.3870112159870586  0.002334705259905  0.26878745879283633  1.0000
  H   H22       1.0  0.887009990931361  0.49766185926126383  0.2312135612657187  1.0000
  H   H23       1.0  0.612989668347943  0.9976604271388965  0.73121230829927  1.0000
  H   H24       1.0  0.11298976958141795  0.5023380815038081  0.7687874502907803  1.0000
  H   H25       1.0  0.4425721208617688  0.7192325224425742  0.7832542401523385  1.0000
  H   H26       1.0  0.9425746782722227  0.7807626587725238  0.7167462060345571  1.0000
  H   H27       1.0  0.5574298872894445  0.28076836749577433  0.216743096574163  1.0000
  H   H28       1.0  0.057428453688416405  0.2192344017321943  0.28325555358937743  1.0000
  H   H29       1.0  0.5487165935745962  0.8593226256731301  0.1620098281862852  1.0000
  H   H30       1.0  0.048712807168414  0.6406769259455984  0.3379875534087731  1.0000
  H   H31       1.0  0.4512854145755441  0.14067730616306312  0.8379883807102857  1.0000
  H   H32       1.0  0.951284705714926  0.3593230118452269  0.662012523932269  1.0000
  H   H33       1.0  0.6200750437918073  0.7270993490852431  0.967637177784063  1.0000
  H   H34       1.0  0.12007346260011788  0.7728972247497409  0.532361501108241  1.0000
  H   H35       1.0  0.37992808817512014  0.2729015408523381  0.0323601589407474  1.0000
  H   H36       1.0  0.8799274217321625  0.22710079088289348  0.4676384521301742  1.0000
  Pt  Pt1       1.0  0.9999967921821523  0.500002025646566  0.9999984202539309  1.0000
  Pt  Pt2       1.0  0.49999803573768287  3.980394929200232e-06  0.4999989727903725  1.0000
  C   C1        1.0  0.8240592102154168  0.44095181843159276  0.8985188614853074  1.0000
  C   C2        1.0  0.32406330013238  0.05905348765601558  0.6014855400233117  1.0000
  C   C3        1.0  0.175934931220965  0.5590500385416419  0.1014804057395224  1.0000
  C   C4        1.0  0.6759330889298099  0.9409522166032361  0.3985149096120537  1.0000
  C   C5        1.0  0.9413514835714737  0.6803046286196591  0.983137312996135  1.0000
  C   C6        1.0  0.44135101638881485  0.8196934434500489  0.5168651914632534  1.0000
  C   C7        1.0  0.05864602931260521  0.3196924289131147  0.0168635124174443  1.0000
  C   C8        1.0  0.5586453726717977  0.18030554516672484  0.4831385607060881  1.0000
  C   C9        1.0  0.1572395845661418  0.942414932912101  0.27299471915125656  1.0000
  C   C10       1.0  0.657237963128054  0.5575844734602455  0.2270032691333768  1.0000
  C   C11       1.0  0.8427624235838281  0.05758307974398489  0.7270042998666213  1.0000
  C   C12       1.0  0.3427606735729825  0.442415461354031  0.772995873987128  1.0000
  C   C13       1.0  0.2819246039173251  0.8424051672179902  0.8822528264689637  1.0000
  C   C14       1.0  0.7819255316479284  0.6575921585422435  0.6177491628763292  1.0000
  C   C15       1.0  0.7180774042358707  0.15759571974457737  0.1177435760386984  1.0000
  C   C16       1.0  0.21807535268129644  0.34240490196400947  0.38225259675100176  1.0000
  C   C17       1.0  0.33702466385309293  0.9182171066316371  0.0869161596245505  1.0000
  C   C18       1.0  0.8370210913692943  0.5817820631189506  0.4130840887222078  1.0000
  C   C19       1.0  0.6629795919235945  0.0817837922325211  0.9130839797550934  1.0000
  C   C20       1.0  0.162976421513136  0.4182188357498191  0.586916050667611  1.0000
  C   C21       1.0  0.29101309047455  0.9961722154607813  0.2039034477625634  1.0000
  C   C22       1.0  0.7910123868643595  0.5038260590282918  0.2960978116143949  1.0000
  C   C23       1.0  0.7089900414909637  0.0038238780144367996  0.7960963813749231  1.0000
  C   C24       1.0  0.20898737364733933  0.49617292363461724  0.7039040721121737  1.0000
  C   C25       1.0  0.41598690720250897  0.7743690445106067  0.8705065138579897  1.0000
  C   C26       1.0  0.9159876754760675  0.7256271340937418  0.6294940746154367  1.0000
  C   C27       1.0  0.5840151009398723  0.22563281840881189  0.1294946217926523  1.0000
  C   C28       1.0  0.0840143326688647  0.2743699264117438  0.370507685010196  1.0000
  C   C29       1.0  0.47404820721794755  0.852181418483582  0.08116654987919251  1.0000
  C   C30       1.0  0.9740478753502944  0.6478175611422826  0.4188323507022105  1.0000
  C   C31       1.0  0.5259526771096292  0.147819483358667  0.9188345237243779  1.0000
  C   C32       1.0  0.025951885162484697  0.3521823796227892  0.5811686608542885  1.0000
  C   C33       1.0  0.5135743482344494  0.7788836230540213  0.972602081980284  1.0000
  C   C34       1.0  0.013575119200865503  0.7211140602917183  0.5273979145987298  1.0000
  C   C35       1.0  0.48642653610088626  0.22111534770499466  0.027396064869215305  1.0000
  C   C36       1.0  0.9864268889462195  0.27888491641809304  0.47260210068675695  1.0000
  N   N1        1.0  0.7214201571578087  0.4072863883489788  0.8360447512575818  1.0000
  N   N2        1.0  0.22142280434179182  0.09271425848585578  0.6639615182151317  1.0000
  N   N3        1.0  0.2785773557311373  0.5927097021542879  0.16395414366954242  1.0000
  N   N4        1.0  0.7785747085339595  0.9072895295683027  0.3360406757586816  1.0000
  N   N5        1.0  0.9086259060811981  0.7878689616719255  0.9724306539957864  1.0000
  N   N6        1.0  0.40863006224026327  0.7121406880265297  0.5275726938087573  1.0000
  N   N7        1.0  0.09136823534397108  0.2121405898764124  0.0275709780569002  1.0000
  N   N8        1.0  0.5913730697035646  0.2878679143408505  0.47243261305695944  1.0000
  N   N9        1.0  0.24249412637522028  0.912337433208954  0.9876361738999648  1.0000
  N   N10       1.0  0.7424922418176438  0.5876608985579423  0.5123631938443083  1.0000
  N   N11       1.0  0.7575078817720283  0.08766346268095761  0.012363031264222004  1.0000
  N   N12       1.0  0.2575075186942258  0.412340003285074  0.4876378797609604  1.0000
  O   O1        1.0  0.0196644056502251  0.9793997678050061  0.21522019321982103  1.0000
  O   O2        1.0  0.5196625991201032  0.5206007875455682  0.284778272320338  1.0000
  O   O3        1.0  0.9803376025015567  0.020596322695190798  0.7847787017005102  1.0000
  O   O4        1.0  0.48033716139663346  0.4793991472679408  0.7152208707984755  1.0000
