data_image0
_chemical_formula_structural       Zn2H26C44N8O12
_chemical_formula_sum              "Zn2 H26 C44 N8 O12"
_cell_length_a       16.24245620138515
_cell_length_b       17.12038088651711
_cell_length_c       19.14428873639958
_cell_angle_alpha    88.99640285614683
_cell_angle_beta     86.90932187790037
_cell_angle_gamma    85.20615794768804

_space_group_name_H-M_alt    "P 1"
_space_group_IT_number       1

loop_
  _space_group_symop_operation_xyz
  'x, y, z'

loop_
  _atom_site_type_symbol
  _atom_site_label
  _atom_site_symmetry_multiplicity
  _atom_site_fract_x
  _atom_site_fract_y
  _atom_site_fract_z
  _atom_site_occupancy
  Zn  Zn1       1.0  0.5864058243225048  0.501679819506819  0.4923928929406927  1.0000
  Zn  Zn2       1.0  0.41484981842522484  0.4946278800131979  0.5030059763845287  1.0000
  H   H1        1.0  0.6264567879144565  0.5324653511031341  0.7099491208052058  1.0000
  H   H2        1.0  0.3650209415669325  0.517688029595682  0.2837603096695674  1.0000
  H   H3        1.0  0.624134522146754  0.5573892434920112  0.8388574866621427  1.0000
  H   H4        1.0  0.3616502806376189  0.5412947342787433  0.1542936372021018  1.0000
  H   H5        1.0  0.3633169640853922  0.5268346338214442  0.8548837973322776  1.0000
  H   H6        1.0  0.6268452496027593  0.5428102938886422  0.14102081397889782  1.0000
  H   H7        1.0  0.3673032264812903  0.4993693122165368  0.7262990237080444  1.0000
  H   H8        1.0  0.6295506907940621  0.5169185237087531  0.2703430844742769  1.0000
  H   H9        1.0  0.425485165318996  0.23858043221880365  0.4696190732593735  1.0000
  H   H10       1.0  0.5761885439348973  0.7619151656120591  0.45930274756637607  1.0000
  H   H11       1.0  0.37849701315467854  0.7213963498591125  0.6101216249679241  1.0000
  H   H12       1.0  0.6278449770759097  0.2688237149533207  0.5991975127724771  1.0000
  H   H13       1.0  0.6302719831923369  0.12892583217256967  0.6372312899241166  1.0000
  H   H14       1.0  0.3747984226264551  0.8595451063048285  0.6496365191260837  1.0000
  H   H15       1.0  0.5690291521750414  0.9016702032933991  0.49355039458455974  1.0000
  H   H16       1.0  0.431485151845223  0.09712805623490076  0.5017914220123458  1.0000
  H   H17       1.0  0.2770061256002521  0.5698034388122009  0.42637666348478126  1.0000
  H   H18       1.0  0.72503106877857  0.4256124394801048  0.5663631572985608  1.0000
  H   H19       1.0  0.7066856407414122  0.5962465426978766  0.4113272229640472  1.0000
  H   H20       1.0  0.2933333965415913  0.40369089915049716  0.5854666672584372  1.0000
  H   H21       1.0  0.9937232283801055  0.568066966902144  0.4437839086750586  1.0000
  H   H22       1.0  0.0066166366747851  0.43413019214859355  0.5533908960180156  1.0000
  H   H23       1.0  0.13965624658630557  0.39502659437329146  0.5931138592167002  1.0000
  H   H24       1.0  0.860039108061564  0.6072094515591787  0.4046805999294705  1.0000
  H   H25       1.0  0.8777462478278437  0.42905524907159526  0.5679517883040504  1.0000
  H   H26       1.0  0.12376297509042193  0.5699297219746171  0.42694552597630786  1.0000
  C   C1        1.0  0.5228066617011606  0.34699708134594687  0.5111143212802176  1.0000
  C   C2        1.0  0.48166467132922003  0.6496056076747792  0.510190157848811  1.0000
  C   C3        1.0  0.49846274997542406  0.5020321286887963  0.6336274544227649  1.0000
  C   C4        1.0  0.49871288888276405  0.5059460752842783  0.3625748197739612  1.0000
  C   C5        1.0  0.5696102509254147  0.5304144296300844  0.7425938354736206  1.0000
  C   C6        1.0  0.4219343241645178  0.5230174389591082  0.2518790381847823  1.0000
  C   C7        1.0  0.5682455150452628  0.5444995766493077  0.8138587199895041  1.0000
  C   C8        1.0  0.4200136328950209  0.5360897373359207  0.1801365980870102  1.0000
  C   C9        1.0  0.49355706728889004  0.5436603409439157  0.8545878006047902  1.0000
  C   C10       1.0  0.4939805958144419  0.5441215637138368  0.1399043246622753  1.0000
  C   C11       1.0  0.4208685229747218  0.5270925928445748  0.8229554755838607  1.0000
  C   C12       1.0  0.5698241906357424  0.5368048663949523  0.17259946821552324  1.0000
  C   C13       1.0  0.4229602147905355  0.5120938914962563  0.7517650853773931  1.0000
  C   C14       1.0  0.5712943485416488  0.5228522508825364  0.2443149361638177  1.0000
  C   C15       1.0  0.49708981080855363  0.5142384933161424  0.7109918129438456  1.0000
  C   C16       1.0  0.4973874283297377  0.5168192181726068  0.28471638830268386  1.0000
  C   C17       1.0  0.49191873084073734  0.5595450861279473  0.0644515409330282  1.0000
  C   C18       1.0  0.49162528874840933  0.5594755158538831  0.9296381913097845  1.0000
  C   C19       1.0  0.5264183999243316  0.2620694065369449  0.5322995769278975  1.0000
  C   C20       1.0  0.47764023142384093  0.7334918428158729  0.5324723313253656  1.0000
  C   C21       1.0  0.4700617003630896  0.21377883515710744  0.5061611472278926  1.0000
  C   C22       1.0  0.5323759515092946  0.7840750661904748  0.5008127806243721  1.0000
  C   C23       1.0  0.47268322207958857  0.13511247667708653  0.5252573731935612  1.0000
  C   C24       1.0  0.5291179770336286  0.8617410602455988  0.5209676505376138  1.0000
  C   C25       1.0  0.5300065943637478  0.10344752986856778  0.5729753110194693  1.0000
  C   C26       1.0  0.47271887458553163  0.8899995575960558  0.5750324865993548  1.0000
  C   C27       1.0  0.5857173367394709  0.15241261979401335  0.5999816784162917  1.0000
  C   C28       1.0  0.41862102524721223  0.8386725234607296  0.6075305944488534  1.0000
  C   C29       1.0  0.5843804755752803  0.2306819308005784  0.5791106181618417  1.0000
  C   C30       1.0  0.42064208031975897  0.761439154524943  0.5858248369992225  1.0000
  C   C31       1.0  0.5331307060090539  0.019630313148503793  0.588778465140564  1.0000
  C   C32       1.0  0.4691490520818819  0.9731090787307862  0.5917423320697068  1.0000
  C   C33       1.0  0.24321399601893756  0.532678948361557  0.4626557946942995  1.0000
  C   C34       1.0  0.7582295487583155  0.4648304901324778  0.531692360566808  1.0000
  C   C35       1.0  0.15795390349920518  0.5320262885498224  0.4635089101193089  1.0000
  C   C36       1.0  0.8432337729168896  0.4671865061806171  0.531777314000685  1.0000
  C   C37       1.0  0.11747964060157301  0.4825265182656651  0.5111520214704941  1.0000
  C   C38       1.0  0.8831121267004463  0.518387967533897  0.48534128877994936  1.0000
  C   C39       1.0  0.16742008767700872  0.4349909422602422  0.5554976213093141  1.0000
  C   C40       1.0  0.832736371330441  0.5660307397492232  0.44140849437882684  1.0000
  C   C41       1.0  0.25260832301508895  0.43914365010379436  0.5516814276601281  1.0000
  C   C42       1.0  0.7477824098140502  0.5603694233082805  0.44448695932565135  1.0000
  C   C43       1.0  0.02816588717148962  0.4783429376910249  0.5164219626524515  1.0000
  C   C44       1.0  0.972313961163401  0.5235441750340896  0.48051430422341923  1.0000
  N   N1        1.0  0.41749549464739044  0.5675399626510893  0.966026368429695  1.0000
  N   N2        1.0  0.5630928804378854  0.573511479229751  0.027855944492429813  1.0000
  N   N3        1.0  0.4178271328953543  0.5671658269506493  0.03472580667393999  1.0000
  N   N4        1.0  0.5629751449849393  0.5730908074970029  0.9591477832003719  1.0000
  N   N5        1.0  0.2898245901172488  0.48735422694655006  0.5061834131596257  1.0000
  N   N6        1.0  0.7112260932941866  0.5103287528009303  0.48863514058088947  1.0000
  N   N7        1.0  0.384287434376148  0.012276910794966496  0.6055241183630501  1.0000
  N   N8        1.0  0.6179763154180263  0.9798517936264872  0.5943067876606918  1.0000
  O   O1        1.0  0.5881041422720018  0.38245194801705645  0.5158633369833083  1.0000
  O   O2        1.0  0.4172863747365484  0.6130868370395816  0.523194623945166  1.0000
  O   O3        1.0  0.4536902649006507  0.3772034711275793  0.4907852815604628  1.0000
  O   O4        1.0  0.5497707323171924  0.6211738362299142  0.4811531094484565  1.0000
  O   O5        1.0  0.563946821429859  0.5181920308148164  0.5985359859420498  1.0000
  O   O6        1.0  0.4293453534424715  0.5146235114747668  0.39714560268675575  1.0000
  O   O7        1.0  0.4340937925704085  0.4780158354874116  0.6086228496556316  1.0000
  O   O8        1.0  0.5689410890213438  0.4899151188739453  0.3883876667392059  1.0000
  O   O9        1.0  0.3303458354657139  0.9967803775664588  0.5657171485126753  1.0000
  O   O10       1.0  0.3732772580193427  0.05516497620275368  0.6571056138074881  1.0000
  O   O11       1.0  0.6710140286921844  0.9952420916444139  0.5482877289949286  1.0000
  O   O12       1.0  0.6299469988349744  0.9368344674415353  0.6459577024885378  1.0000
