data_image0
_chemical_formula_structural       H20Pb2C24N8Cl4O2
_chemical_formula_sum              "H20 Pb2 C24 N8 Cl4 O2"
_cell_length_a       8.129075256306846
_cell_length_b       9.327980372005559
_cell_length_c       10.887639671730614
_cell_angle_alpha    98.42080917448278
_cell_angle_beta     106.0825141734193
_cell_angle_gamma    85.60560398918695

_space_group_name_H-M_alt    "P 1"
_space_group_IT_number       1

loop_
  _space_group_symop_operation_xyz
  'x, y, z'

loop_
  _atom_site_type_symbol
  _atom_site_label
  _atom_site_symmetry_multiplicity
  _atom_site_fract_x
  _atom_site_fract_y
  _atom_site_fract_z
  _atom_site_occupancy
  H   H1        1.0  0.9344682490566143  0.524111248340631  0.1948217482106713  1.0000
  H   H2        1.0  0.06550772058182018  0.475844017042597  0.8051527247679644  1.0000
  H   H3        1.0  0.8159943356041522  0.6552562621251568  0.0326624582160804  1.0000
  H   H4        1.0  0.18397579655650284  0.34469974093737216  0.9672951518842934  1.0000
  H   H5        1.0  0.8783938235063572  0.41164458703005385  0.3248875629734584  1.0000
  H   H6        1.0  0.12159885389743148  0.5883353139126722  0.6751639186658308  1.0000
  H   H7        1.0  0.8663249830288889  0.23938299807929997  0.47399947822759697  1.0000
  H   H8        1.0  0.13374238724787088  0.7605842726912397  0.5260555597360295  1.0000
  H   H9        1.0  0.14272821853570863  0.15199110283400327  0.6210271387326429  1.0000
  H   H10       1.0  0.8573802989199281  0.8480114232375368  0.3790030034851383  1.0000
  H   H11       1.0  0.43153402104048416  0.38325306094381517  0.465542599537251  1.0000
  H   H12       1.0  0.5684650266087773  0.6168023752627362  0.5344526539178175  1.0000
  H   H13       1.0  0.24294962006511875  0.758414857362247  0.9917143390327325  1.0000
  H   H14       1.0  0.7570293160027006  0.24156502879418434  0.00828901512419123  1.0000
  H   H15       1.0  0.25880055537246693  0.9252423903341761  0.8343254256403654  1.0000
  H   H16       1.0  0.7412026461489918  0.07473567382348278  0.1656850337549827  1.0000
  H   H17       1.0  0.9867988214236619  0.03860583392938819  0.7100670110756439  1.0000
  H   H18       1.0  0.0132090774907496  0.9613680015100451  0.28992017925808256  1.0000
  H   H19       1.0  0.6920247089499513  0.8353798348480195  0.8837745371770964  1.0000
  H   H20       1.0  0.3079570167576335  0.16459091901381123  0.11618624239822141  1.0000
  Pb  Pb1       1.0  0.4226662317662004  0.8522232977653983  0.3118087090418058  1.0000
  Pb  Pb2       1.0  0.5773578696648227  0.1478110829150197  0.6881689115627196  1.0000
  C   C1        1.0  0.19110365733526177  0.5184347869432457  0.3029573983231798  1.0000
  C   C2        1.0  0.8088530032560256  0.4816038504415232  0.6970643299739478  1.0000
  C   C3        1.0  0.9453791794423693  0.6902512838819062  0.040987813680729235  1.0000
  C   C4        1.0  0.054586433672611206  0.30972939731169896  0.9589914870099748  1.0000
  C   C5        1.0  0.15843280581361804  0.41278423498128797  0.3829973785346965  1.0000
  C   C6        1.0  0.8415586262541055  0.5872346157877146  0.6170237341086987  1.0000
  C   C7        1.0  0.9980109979588222  0.3707518996407869  0.3858758189450455  1.0000
  C   C8        1.0  0.0019991516283325997  0.629238579374025  0.614158591585678  1.0000
  C   C9        1.0  0.9894966223488737  0.2760249020618843  0.4715935314112014  1.0000
  C   C10       1.0  0.010555813037711904  0.7239587311987491  0.5284487687625442  1.0000
  C   C11       1.0  0.14112055717835403  0.2260302988493733  0.5518079835835934  1.0000
  C   C12       1.0  0.8589595136921843  0.7739712544242322  0.4482230247286906  1.0000
  C   C13       1.0  0.30443426793710415  0.35487369215801573  0.4663444449069728  1.0000
  C   C14       1.0  0.695582519803139  0.6451552860212928  0.5336558069350872  1.0000
  C   C15       1.0  0.9652026746836813  0.7832278409415566  0.9499242992898758  1.0000
  C   C16       1.0  0.034770691653086806  0.2167536038765262  0.050054981360702286  1.0000
  C   C17       1.0  0.12665218500814027  0.8094027013676379  0.9352379456667208  1.0000
  C   C18       1.0  0.8733307072282203  0.19058345856763026  0.06476417099822376  1.0000
  C   C19       1.0  0.13658806065721046  0.901513937523688  0.8484658857503362  1.0000
  C   C20       1.0  0.8634089644960667  0.09846194251164768  0.15153653232346895  1.0000
  C   C21       1.0  0.9847652419430233  0.9651816704117379  0.7791092435348544  1.0000
  C   C22       1.0  0.015240000781815902  0.0347945143935249  0.22088034417132008  1.0000
  C   C23       1.0  0.8197954747054012  0.8514035592130679  0.8745733338653209  1.0000
  C   C24       1.0  0.18018474529225875  0.14857071596587446  0.1253938961430165  1.0000
  N   N1        1.0  0.2956140648735541  0.26468676184391887  0.5485770073586949  1.0000
  N   N2        1.0  0.7044487634236136  0.7353407578270532  0.45143527721570814  1.0000
  N   N3        1.0  0.05324389637011961  0.5639473749419536  0.20970712202318958  1.0000
  N   N4        1.0  0.9467134477496799  0.43605476350680306  0.7902899452866732  1.0000
  N   N5        1.0  0.07786742493668437  0.655025375372574  0.13041617719761683  1.0000
  N   N6        1.0  0.9220846140159651  0.34498471136272  0.8695860135343451  1.0000
  N   N7        1.0  0.8299280364284057  0.9413673850538798  0.7917986971660013  1.0000
  N   N8        1.0  0.17006618189889616  0.058610855506174175  0.2081748336360363  1.0000
  Cl  Cl1       1.0  0.6112278451241265  0.09705327716820018  0.3971055679150624  1.0000
  Cl  Cl2       1.0  0.38875905006273836  0.9030061396789791  0.6028340444913097  1.0000
  Cl  Cl3       1.0  0.5714779041205488  0.7844634606767967  0.11853134830830916  1.0000
  Cl  Cl4       1.0  0.4284958500018234  0.21561082145309735  0.8814169195439515  1.0000
  O   O1        1.0  0.3368862948258666  0.5632316956738775  0.3210391053645906  1.0000
  O   O2        1.0  0.6630595665281404  0.43684256504040764  0.6790012470037111  1.0000
