data_image0
_chemical_formula_structural       Hf12H52C52N4O64
_chemical_formula_sum              "Hf12 H52 C52 N4 O64"
_cell_length_a       14.48201338708052
_cell_length_b       20.0212132993912
_cell_length_c       19.43538135373614
_cell_angle_alpha    87.52036022196042
_cell_angle_beta     71.31890665142139
_cell_angle_gamma    84.20914224544481

_space_group_name_H-M_alt    "P 1"
_space_group_IT_number       1

loop_
  _space_group_symop_operation_xyz
  'x, y, z'

loop_
  _atom_site_type_symbol
  _atom_site_label
  _atom_site_symmetry_multiplicity
  _atom_site_fract_x
  _atom_site_fract_y
  _atom_site_fract_z
  _atom_site_occupancy
  Hf  Hf1       1.0  0.6197170954188209  0.5645668320291364  0.5451188149181263  1.0000
  Hf  Hf2       1.0  0.3080734043165236  0.4516311484437025  0.6283821013145499  1.0000
  Hf  Hf3       1.0  0.4899743280920177  0.48190447691459326  0.7030316534903207  1.0000
  Hf  Hf4       1.0  0.4357215065387835  0.5369671437413855  0.47113317641716895  1.0000
  Hf  Hf5       1.0  0.5570203496255105  0.40068854715983065  0.5354841467145804  1.0000
  Hf  Hf6       1.0  0.36768786187587194  0.6183080767152231  0.6392688833629593  1.0000
  Hf  Hf7       1.0  0.17187163292094707  0.07087338012942722  0.11213019153350251  1.0000
  Hf  Hf8       1.0  0.5208235925644332  0.991203698013628  0.017316641553186737  1.0000
  Hf  Hf9       1.0  0.3914283230880856  0.1385660596469691  0.09573817842392882  1.0000
  Hf  Hf10      1.0  0.3026145497312172  0.922104745737478  0.02953392171956894  1.0000
  Hf  Hf11      1.0  0.3544961976172089  0.07917577151321349  0.9387565002897278  1.0000
  Hf  Hf12      1.0  0.3450024256640418  0.9804927857467404  0.18684684679521976  1.0000
  H   H1        1.0  0.8939902506684874  0.6780094508917216  0.27808963983374474  1.0000
  H   H2        1.0  0.01841243628425813  0.7627657347316726  0.18914184528923528  1.0000
  H   H3        1.0  0.8788558047464647  0.3807904110036943  0.8114469823689349  1.0000
  H   H4        1.0  0.7201497084305262  0.3211963423736107  0.8970333609964101  1.0000
  H   H5        1.0  0.6363089913359373  0.4903275590161726  0.42081249607075927  1.0000
  H   H6        1.0  0.4248736149243512  0.359353025031993  0.6840750393331803  1.0000
  H   H7        1.0  0.25056163939196097  0.5748113555925796  0.5632998003849395  1.0000
  H   H8        1.0  0.5248342296412503  0.6225341461530859  0.6873349229006394  1.0000
  H   H9        1.0  0.5965949061030784  0.2868869860074596  0.5912575461800105  1.0000
  H   H10       1.0  0.4475168238317266  0.5564673731261107  0.8308300303811508  1.0000
  H   H11       1.0  0.27412936926423015  0.657761812262656  0.7731444350688008  1.0000
  H   H12       1.0  0.6500106074463545  0.3615396903135205  0.39548538014031465  1.0000
  H   H13       1.0  0.5324580854781331  0.4219404739068721  0.3914592977712417  1.0000
  H   H14       1.0  0.3929895661827769  0.6640060575468282  0.4187533990216679  1.0000
  H   H15       1.0  0.23584799203487716  0.7042313216532532  0.5996890959214554  1.0000
  H   H16       1.0  0.512989253674803  0.2902156020824265  0.4959443837217066  1.0000
  H   H17       1.0  0.28672223813887143  0.3428607252365409  0.5547399849734305  1.0000
  H   H18       1.0  0.6794056065954308  0.6763639854544223  0.5805822665045781  1.0000
  H   H19       1.0  0.42610389406665666  0.7395386119834979  0.5873485955237855  1.0000
  H   H20       1.0  0.532245569558995  0.48384933140467723  0.33116578912756733  1.0000
  H   H21       1.0  0.38778968698306227  0.3224453562420705  0.5738365968028702  1.0000
  H   H22       1.0  0.516354526767053  0.4025023010786837  0.8139419252229203  1.0000
  H   H23       1.0  0.702156703823441  0.3137842132278479  0.5718116844044375  1.0000
  H   H24       1.0  0.33066527669932116  0.6652571304995332  0.5058404539347735  1.0000
  H   H25       1.0  0.3783807661976085  0.591423005698971  0.7825279343692985  1.0000
  H   H26       1.0  0.5300657112416048  0.6991551815928573  0.5882984157625017  1.0000
  H   H27       1.0  0.2353946368747302  0.4200026378495281  0.1747822214262911  1.0000
  H   H28       1.0  0.2502535501544757  0.5075251324344803  0.2736584629495553  1.0000
  H   H29       1.0  0.798576804417756  0.8051150827435548  0.8980457121057415  1.0000
  H   H30       1.0  0.9771354167701107  0.7358488982963036  0.8345319203304556  1.0000
  H   H31       1.0  0.18236456614240354  0.013591353746328094  0.9778384620116968  1.0000
  H   H32       1.0  0.5304156089597141  0.12043845789445833  0.9482383160623301  1.0000
  H   H33       1.0  0.4484897646014332  0.8745523775044498  0.08974958857179874  1.0000
  H   H34       1.0  0.24928867674941557  0.10808190190191878  0.23013274281719023  1.0000
  H   H35       1.0  0.3412813987822289  0.22024085382399503  0.9029657721385008  1.0000
  H   H36       1.0  0.47584806554387893  0.20161772713534984  0.17931640353781123  1.0000
  H   H37       1.0  0.41773874812136574  0.0045948441286327996  0.2902178041533999  1.0000
  H   H38       1.0  0.3757311622013761  0.012166921564343599  0.8206232489330744  1.0000
  H   H39       1.0  0.21855423267050603  0.8866439688315066  0.9332819795871146  1.0000
  H   H40       1.0  0.2146410621186946  0.8262671646333075  0.11543487387569232  1.0000
  H   H41       1.0  0.36890235581534364  0.8449794972920371  0.22206721156351247  1.0000
  H   H42       1.0  0.4921667814197689  0.12050700901178861  0.8228147201472069  1.0000
  H   H43       1.0  0.7019603003124574  0.016477105552937098  0.9295255498550006  1.0000
  H   H44       1.0  0.04061305882202498  0.09498056624310178  0.2439117749576454  1.0000
  H   H45       1.0  0.20410204244844724  0.9985589544873007  0.314208007266835  1.0000
  H   H46       1.0  0.30613889899189656  0.9627167877266556  0.88368506875171  1.0000
  H   H47       1.0  0.672378012107515  0.9519982591930897  0.8970028161872322  1.0000
  H   H48       1.0  0.4876629743873977  0.23846997213377816  0.021580857082433614  1.0000
  H   H49       1.0  0.3956674375412562  0.213244296528245  0.9654562772965462  1.0000
  H   H50       1.0  0.29743065748593983  0.8536387231898528  0.16768476786783285  1.0000
  H   H51       1.0  0.3630039885002177  0.22898789439037867  0.20023033124533637  1.0000
  H   H52       1.0  0.14046423502147576  0.013324161963453197  0.2570215391169555  1.0000
  C   C1        1.0  0.780808045761802  0.7426204000597281  0.248464898346647  1.0000
  C   C2        1.0  0.8760643188137822  0.7211009752665588  0.24742974153820546  1.0000
  C   C3        1.0  0.9397805730819615  0.7640138627833792  0.20129890962607538  1.0000
  C   C4        1.0  0.8839649125986286  0.8131808836927376  0.1748466044045855  1.0000
  C   C5        1.0  0.9628495590755296  0.3001486898666883  0.8520680855468187  1.0000
  C   C6        1.0  0.8785960122707975  0.33652504054839477  0.8456936569106974  1.0000
  C   C7        1.0  0.7964813182182695  0.30596644081534646  0.8904844796282703  1.0000
  C   C8        1.0  0.8287590776837419  0.25003506986266183  0.9250230974648235  1.0000
  C   C9        1.0  0.7828745437512694  0.44351065495354197  0.4680593596471851  1.0000
  C   C10       1.0  0.6105753236589563  0.6222199816775882  0.3849135438129068  1.0000
  C   C11       1.0  0.6819291764739862  0.5548408029292771  0.6929739660879122  1.0000
  C   C12       1.0  0.2441438811548267  0.3431528279568353  0.7554148118086631  1.0000
  C   C13       1.0  0.14625902801424925  0.571728871885341  0.6984910737775041  1.0000
  C   C14       1.0  0.22949962893299167  0.48046530933729753  0.4912956883103447  1.0000
  C   C15       1.0  0.10165502119060926  0.39598521700051487  0.2603399272747069  1.0000
  C   C16       1.0  0.1836183350776821  0.43132034353579474  0.22813405410239795  1.0000
  C   C17       1.0  0.1907882894769131  0.4768299300908722  0.2785404646979189  1.0000
  C   C18       1.0  0.11354523746707196  0.4696730788552869  0.3425859480043841  1.0000
  C   C19       1.0  0.7442468789046687  0.7303791576571113  0.8451719129644674  1.0000
  C   C20       1.0  0.8154094924408283  0.7614701196384954  0.863527959368618  1.0000
  C   C21       1.0  0.906321646113824  0.7262434645924072  0.83121932966052  1.0000
  C   C22       1.0  0.8918885599898377  0.6731193385554091  0.7926500992122029  1.0000
  C   C23       1.0  0.13363690872860454  0.14502840835522324  0.9722452036109742  1.0000
  C   C24       1.0  0.06385810859338653  0.9469850690529924  0.08827734124241722  1.0000
  C   C25       1.0  0.16912737496761568  0.2214973843247279  0.16618332972390704  1.0000
  C   C26       1.0  0.6347296160134449  0.12301319148291866  0.04030130989265503  1.0000
  C   C27       1.0  0.5778410045239896  0.9147154193420728  0.14723152745442994  1.0000
  C   C28       1.0  0.5170676542760901  0.8474800629276443  0.946048654933243  1.0000
  C   C29       1.0  0.6454859799859137  0.7539555355003953  0.868782364409313  1.0000
  C   C30       1.0  0.5780259876194906  0.7940881020744609  0.9018560174101964  1.0000
  C   C31       1.0  0.11510008391029204  0.2829718081476073  0.1997455762969551  1.0000
  C   C32       1.0  0.0877057015717639  0.33549773774725367  0.23332635631345508  1.0000
  C   C33       1.0  0.8821737213605869  0.42624397180575363  0.42095601094244733  1.0000
  C   C34       1.0  0.9627805322065441  0.41735568022222935  0.3753439941560971  1.0000
  C   C35       1.0  0.11647123053487717  0.4825294903203243  0.41140601617850336  1.0000
  C   C36       1.0  0.15144025340237724  0.4876429650924477  0.46031552385890967  1.0000
  C   C37       1.0  0.7249246810618858  0.5942334892065586  0.7343160003189269  1.0000
  C   C38       1.0  0.7527003806231395  0.6335374234447142  0.7677833057096562  1.0000
  C   C39       1.0  0.04543195018200649  0.5958242668824099  0.7285292088004667  1.0000
  C   C40       1.0  0.9645722150536071  0.6254198043758805  0.7548509531000249  1.0000
  C   C41       1.0  0.9934652032954291  0.20686065197091347  0.926538076956767  1.0000
  C   C42       1.0  0.059974161373368466  0.17718130275814298  0.9439916463030754  1.0000
  C   C43       1.0  0.7726921423277631  0.20238009367150767  0.9701233126210271  1.0000
  C   C44       1.0  0.7145415300869474  0.16436572944292743  0.007276689970304194  1.0000
  C   C45       1.0  0.06169726910378149  0.31080976898459767  0.8213146382045126  1.0000
  C   C46       1.0  0.14681411521211624  0.32297463080239897  0.7931646018803775  1.0000
  C   C47       1.0  0.9773670788238462  0.9114078767204958  0.10747539776557599  1.0000
  C   C48       1.0  0.919458184561819  0.8704375636434063  0.13646999070316926  1.0000
  C   C49       1.0  0.7115447392261274  0.8366173456324046  0.18815313748130802  1.0000
  C   C50       1.0  0.6507724413208252  0.873059119243528  0.16997101702400394  1.0000
  C   C51       1.0  0.6509061735369669  0.6697910874451765  0.3289096562686425  1.0000
  C   C52       1.0  0.699141311798563  0.7099511010597224  0.2868190566436653  1.0000
  N   N1        1.0  0.7854732666040789  0.7996874687018901  0.2031463561834812  1.0000
  N   N2        1.0  0.93165987997763  0.24649778299909997  0.901086163505383  1.0000
  N   N3        1.0  0.05401406207113977  0.4226969368964076  0.330002364954133  1.0000
  N   N4        1.0  0.7915997289175182  0.6752999729222464  0.8012542431267775  1.0000
  O   O1        1.0  0.6365098523189728  0.6647602079757249  0.5543667354252905  1.0000
  O   O2        1.0  0.7615908325501977  0.5044144259472532  0.48837862665042314  1.0000
  O   O3        1.0  0.7084714692732988  0.5645464581031802  0.6246344547657258  1.0000
  O   O4        1.0  0.5318825551227208  0.59687455797539  0.3851543556004131  1.0000
  O   O5        1.0  0.6172585708125311  0.5170359229537311  0.730043531142755  1.0000
  O   O6        1.0  0.6585311713553352  0.6086652481451152  0.42882401413240256  1.0000
  O   O7        1.0  0.7247340903069742  0.3969075742731292  0.4830420029964557  1.0000
  O   O8        1.0  0.5836986504171904  0.4733219251142983  0.5991323943517487  1.0000
  O   O9        1.0  0.5874349118882166  0.49469796202828314  0.46834674990893177  1.0000
  O   O10       1.0  0.5101570004385394  0.5885125789757877  0.6592368472801908  1.0000
  O   O11       1.0  0.48010569339290055  0.5895182105780632  0.5410176652199254  1.0000
  O   O12       1.0  0.35164105522331107  0.6374198777855326  0.45733820121069607  1.0000
  O   O13       1.0  0.632983845456259  0.3237446769666547  0.5986924991201477  1.0000
  O   O14       1.0  0.42780064612346536  0.45026993029426876  0.5324654056318608  1.0000
  O   O15       1.0  0.4428894506697815  0.3984112377787453  0.6510859408011385  1.0000
  O   O16       1.0  0.3663065267298933  0.5176940127559959  0.6772258110739529  1.0000
  O   O17       1.0  0.31089656368119734  0.5557745960126751  0.570843495052685  1.0000
  O   O18       1.0  0.49848568257920084  0.4072674781818789  0.7700891860569498  1.0000
  O   O19       1.0  0.32014160022954735  0.3078031786659849  0.7540655863451136  1.0000
  O   O20       1.0  0.23963622734071074  0.4022110383610026  0.7244236259689032  1.0000
  O   O21       1.0  0.45716235587794074  0.7104473579902545  0.6167626239043997  1.0000
  O   O22       1.0  0.16734037003219981  0.5111045992239767  0.6786248852331624  1.0000
  O   O23       1.0  0.41065220717658973  0.5456396701042934  0.7995946350487628  1.0000
  O   O24       1.0  0.34314563858804104  0.6473112529553899  0.7467463525666034  1.0000
  O   O25       1.0  0.30594213868333503  0.6925383542805433  0.5797600670054592  1.0000
  O   O26       1.0  0.2056162365453388  0.6163829956825707  0.6941686189371624  1.0000
  O   O27       1.0  0.31517683074443414  0.3432148123026622  0.5937521229556495  1.0000
  O   O28       1.0  0.4915046877851807  0.4649757892541685  0.3762467779611925  1.0000
  O   O29       1.0  0.22045697667428504  0.4491567315612244  0.5513181187774734  1.0000
  O   O30       1.0  0.30577824410492127  0.5071207378302702  0.45135766355203794  1.0000
  O   O31       1.0  0.5817408063332226  0.3707594906062397  0.42439463529704824  1.0000
  O   O32       1.0  0.4971284180018358  0.3055912495309697  0.5456720548080725  1.0000
  O   O33       1.0  0.0825075995753082  0.05694579883142837  0.21855296507199992  1.0000
  O   O34       1.0  0.1032813436126219  0.12735506294417584  0.0387216335390193  1.0000
  O   O35       1.0  0.12229851750936399  0.17499935797366106  0.15561630434811494  1.0000
  O   O36       1.0  0.14240114672767856  0.9082053687549061  0.0618985461375345  1.0000
  O   O37       1.0  0.2617831592150851  0.22064995309047924  0.1515883488561585  1.0000
  O   O38       1.0  0.056573299136722724  0.009002281955318398  0.1012743328055024  1.0000
  O   O39       1.0  0.22121438686807685  0.1372003748031716  0.9286485222547327  1.0000
  O   O40       1.0  0.29722539041290463  0.11535835492611571  0.04751629459694577  1.0000
  O   O41       1.0  0.22983028013108253  0.019871857633944497  0.0020641875127012186  1.0000
  O   O42       1.0  0.2782926404456205  0.0885613751725529  0.18230500043714673  1.0000
  O   O43       1.0  0.2523813406046216  0.9838697721444376  0.12216807197559379  1.0000
  O   O44       1.0  0.2809779323795283  0.8389977080301633  0.10383801667187242  1.0000
  O   O45       1.0  0.3877625321489689  0.1917727908611225  0.9205303632463285  1.0000
  O   O46       1.0  0.4090436677532027  0.9888098814962377  0.9760232836791258  1.0000
  O   O47       1.0  0.4816708438384722  0.09482470115619887  0.9822194494014268  1.0000
  O   O48       1.0  0.44346796886237894  0.03966141362164418  0.11006637943575735  1.0000
  O   O49       1.0  0.4214035860612171  0.9199594472727667  0.08400975129308114  1.0000
  O   O50       1.0  0.4206698868584838  0.22679261019138144  0.03489493522863541  1.0000
  O   O51       1.0  0.5557197563919161  0.15348927303483603  0.0816173182866606  1.0000
  O   O52       1.0  0.6456353842790534  0.061619815771685196  0.0222508036064397  1.0000
  O   O53       1.0  0.1938173057689099  0.9821064507204438  0.2709926740973501  1.0000
  O   O54       1.0  0.6054261511693753  0.9362568022272979  0.0814007312075589  1.0000
  O   O55       1.0  0.40886624754266176  0.1885781236671917  0.19540425521543636  1.0000
  O   O56       1.0  0.3564690207722947  0.013831690538637493  0.2798770869822249  1.0000
  O   O57       1.0  0.3151868676059451  0.8734319455751204  0.2134167354340377  1.0000
  O   O58       1.0  0.49318922355772804  0.9251345733507532  0.1936821574636269  1.0000
  O   O59       1.0  0.6520757120202915  0.9983813305710854  0.9131335769507488  1.0000
  O   O60       1.0  0.28118330370750055  0.9012487174706719  0.9313259324810303  1.0000
  O   O61       1.0  0.5674583211740652  0.8934632353648339  0.9570859396362791  1.0000
  O   O62       1.0  0.42595433329890375  0.8452182754776555  0.9711835060078472  1.0000
  O   O63       1.0  0.3174024474896627  0.011373423249416696  0.8633533405509937  1.0000
  O   O64       1.0  0.45834189705306017  0.0807523517299131  0.840429332840074  1.0000
