data_image0
_chemical_formula_structural       Gd4H56C68N4O28
_chemical_formula_sum              "Gd4 H56 C68 N4 O28"
_cell_length_a       6.389646584941555
_cell_length_b       16.590634762212872
_cell_length_c       24.194335312163197
_cell_angle_alpha    89.99989580778309
_cell_angle_beta     91.35918588360845
_cell_angle_gamma    90.00054050850562

_space_group_name_H-M_alt    "P 1"
_space_group_IT_number       1

loop_
  _space_group_symop_operation_xyz
  'x, y, z'

loop_
  _atom_site_type_symbol
  _atom_site_label
  _atom_site_symmetry_multiplicity
  _atom_site_fract_x
  _atom_site_fract_y
  _atom_site_fract_z
  _atom_site_occupancy
  Gd  Gd1       1.0  0.2634599477237032  0.06344645134809922  0.0218488512718693  1.0000
  Gd  Gd2       1.0  0.7365448744276434  0.5634491550469319  0.4781525277059444  1.0000
  Gd  Gd3       1.0  0.7365320462064985  0.9365571110657597  0.9781538986661289  1.0000
  Gd  Gd4       1.0  0.2634642798583968  0.43655561290021433  0.521847001550789  1.0000
  H   H1        1.0  0.639060366342278  0.7779532394255568  0.8202893369149534  1.0000
  H   H2        1.0  0.36093179550267246  0.27795100665175443  0.6797092339714083  1.0000
  H   H3        1.0  0.36091922311378977  0.2220382679637466  0.1797199641178793  1.0000
  H   H4        1.0  0.6390803851870713  0.7220459255630091  0.32028452389761947  1.0000
  H   H5        1.0  0.011043144912847004  0.8368909280264132  0.7634421886831503  1.0000
  H   H6        1.0  0.9889552216456676  0.336882225917229  0.7365551095807916  1.0000
  H   H7        1.0  0.9889441823973754  0.1631060041304977  0.2365621911925828  1.0000
  H   H8        1.0  0.011061715019700099  0.6631110898025837  0.2634419786983671  1.0000
  H   H9        1.0  0.9613938341105381  0.9164553783256365  0.8487943857644138  1.0000
  H   H10       1.0  0.038617542297693305  0.41644911918989874  0.6512020649684445  1.0000
  H   H11       1.0  0.038585621253361096  0.08354697856881897  0.1512074747487731  1.0000
  H   H12       1.0  0.9614009523882457  0.5835460047822351  0.34879461778563586  1.0000
  H   H13       1.0  0.053676435967752  0.6968228588849924  0.7379708986733816  1.0000
  H   H14       1.0  0.9463198879827887  0.19682478649485793  0.7620281940829372  1.0000
  H   H15       1.0  0.9463186737922484  0.30316804579181417  0.2620310402221975  1.0000
  H   H16       1.0  0.0536877081574332  0.8031685292048889  0.23797174070346466  1.0000
  H   H17       1.0  0.7333695690940444  0.7041174255124574  0.642944356784227  1.0000
  H   H18       1.0  0.2666175365825083  0.20411194041225394  0.8570538552881004  1.0000
  H   H19       1.0  0.26663341284711345  0.29588613691758064  0.35706010146529366  1.0000
  H   H20       1.0  0.7333774913418621  0.7958940330133898  0.1429435366192351  1.0000
  H   H21       1.0  0.677619308685621  0.7936966655311364  0.7240012632456754  1.0000
  H   H22       1.0  0.3223716593134185  0.2936934162306314  0.7759952180210732  1.0000
  H   H23       1.0  0.3223805720900401  0.2063002666446039  0.2760048327792788  1.0000
  H   H24       1.0  0.6776295781723433  0.7063083379619356  0.22399931170563292  1.0000
  H   H25       1.0  0.1223758041299519  0.22049794293643285  0.9288135156869968  1.0000
  H   H26       1.0  0.877641448307699  0.7204956908222327  0.5711835896355097  1.0000
  H   H27       1.0  0.8776426831768732  0.779503208533221  0.0711827537023026  1.0000
  H   H28       1.0  0.12233621803647309  0.2795187210812314  0.4288058621767732  1.0000
  H   H29       1.0  0.9775046022497449  0.3177452912644013  0.8831821372244518  1.0000
  H   H30       1.0  0.022501213613551795  0.8177357774717816  0.616821832227508  1.0000
  H   H31       1.0  0.0224746890749827  0.6822588738921951  0.1168106293257267  1.0000
  H   H32       1.0  0.9774922711972065  0.18226778495066748  0.3831767919290244  1.0000
  H   H33       1.0  0.8444428857652468  0.3901026939508227  0.9244774416174479  1.0000
  H   H34       1.0  0.1555570269849866  0.8900973704246977  0.5755288999998669  1.0000
  H   H35       1.0  0.15553959611194298  0.6099002657069403  0.07551864750401188  1.0000
  H   H36       1.0  0.8444474533176063  0.10990800026241487  0.4244718458292525  1.0000
  H   H37       1.0  0.6987009439383272  0.3182589616862543  0.8838177528379775  1.0000
  H   H38       1.0  0.3013018066500877  0.8182564255127003  0.6161890939801609  1.0000
  H   H39       1.0  0.3012737553638302  0.6817403814565353  0.11618077726823368  1.0000
  H   H40       1.0  0.6986917154319839  0.18174593140739145  0.38381159698652567  1.0000
  H   H41       1.0  0.7068029674797601  0.23025877762901809  0.027161335566965795  1.0000
  H   H42       1.0  0.2932548804392354  0.730257578102872  0.4728492216961228  1.0000
  H   H43       1.0  0.29321397670562277  0.7697393600877404  0.972836166071815  1.0000
  H   H44       1.0  0.706776339232185  0.2697375458744275  0.527158684531237  1.0000
  H   H45       1.0  0.5294423173817577  0.261083515412885  0.9729800574156755  1.0000
  H   H46       1.0  0.4705904139165397  0.7610848304229662  0.5270356811316006  1.0000
  H   H47       1.0  0.4705637208005058  0.7389128140320833  0.0270202828935169  1.0000
  H   H48       1.0  0.529418949043432  0.23890969076278165  0.4729754222636585  1.0000
  H   H49       1.0  0.6701511377525123  0.3352999251952652  0.012854888080035203  1.0000
  H   H50       1.0  0.32990006064423494  0.8353006165726596  0.48715634898019283  1.0000
  H   H51       1.0  0.329856458465983  0.664699418001412  0.9871450467035031  1.0000
  H   H52       1.0  0.6701404548158081  0.16469511017795918  0.5128462305681438  1.0000
  H   H53       1.0  0.1308784704557269  0.5661156790831328  0.6254012591615208  1.0000
  H   H54       1.0  0.8691035376566703  0.06611399991547269  0.8745999698516015  1.0000
  H   H55       1.0  0.8691260321877367  0.4338872806034217  0.37460072675449396  1.0000
  H   H56       1.0  0.13088215712166829  0.9338859459925928  0.1254006819277578  1.0000
  C   C1        1.0  0.23039634084225466  0.9401264040900228  0.9322778065949747  1.0000
  C   C2        1.0  0.769600055577392  0.4401264927344071  0.5677218501408632  1.0000
  C   C3        1.0  0.7695878481955419  0.05987776105848748  0.0677261442400123  1.0000
  C   C4        1.0  0.2304121848575988  0.5598770697222192  0.43227521462033985  1.0000
  C   C5        1.0  0.26997493196267897  0.8931777675392708  0.8829229179319852  1.0000
  C   C6        1.0  0.7300248891570148  0.39317396021098006  0.6170739134359806  1.0000
  C   C7        1.0  0.7300061335609128  0.10682157560580659  0.1170814305918242  1.0000
  C   C8        1.0  0.26999983748598305  0.6068187527753608  0.38292114722235476  1.0000
  C   C9        1.0  0.46835669433573907  0.8541591153490201  0.8748953596106049  1.0000
  C   C10       1.0  0.5316452666050181  0.3541540069744754  0.6251027646279042  1.0000
  C   C11       1.0  0.5316228653455539  0.14583661129049827  0.1251122879725557  1.0000
  C   C12       1.0  0.46837784986261966  0.645840514261856  0.37488980802039146  1.0000
  C   C13       1.0  0.4903007028477474  0.8089288880374426  0.8256390024140002  1.0000
  C   C14       1.0  0.5096906980501856  0.30892416317742283  0.6743595311763927  1.0000
  C   C15       1.0  0.5096772689833955  0.1910650303521351  0.17436739724658415  1.0000
  C   C16       1.0  0.49032619387082116  0.6910691525459496  0.3256350769312704  1.0000
  C   C17       1.0  0.32928978510326345  0.8016492640930862  0.7861837250737549  1.0000
  C   C18       1.0  0.6707076885188671  0.30164316281203424  0.7138148467913723  1.0000
  C   C19       1.0  0.6706881792939682  0.19834646254616217  0.21382226122405257  1.0000
  C   C20       1.0  0.32931231938066935  0.698348947418445  0.2861789502684218  1.0000
  C   C21       1.0  0.1360444564180341  0.8408541738572808  0.794767295093763  1.0000
  C   C22       1.0  0.8639524104037336  0.34085056328952845  0.7052279247512345  1.0000
  C   C23       1.0  0.8639319276490696  0.15914456652896541  0.2052378566410837  1.0000
  C   C24       1.0  0.13606920770247646  0.6591421496897281  0.29476836031746245  1.0000
  C   C25       1.0  0.10929850342380829  0.8857456504411798  0.8421392368508193  1.0000
  C   C26       1.0  0.8907027049949505  0.38573925614643656  0.6578584361482456  1.0000
  C   C27       1.0  0.8906872509667068  0.11425067896398387  0.1578647218255966  1.0000
  C   C28       1.0  0.1093142167556351  0.6142540595745629  0.3421378254070859  1.0000
  C   C29       1.0  0.36101988017773573  0.751997885209505  0.7363960581409258  1.0000
  C   C30       1.0  0.6389731580306374  0.25199333811061564  0.7636017185453027  1.0000
  C   C31       1.0  0.638973694074771  0.24800206070766254  0.2636075263603175  1.0000
  C   C32       1.0  0.36103123267365334  0.7480035940879262  0.23639406694483972  1.0000
  C   C33       1.0  0.20212135691789254  0.7008971275747553  0.7167984001731398  1.0000
  C   C34       1.0  0.7978688109512788  0.20089246064000577  0.7832006573606947  1.0000
  C   C35       1.0  0.7978737678664913  0.2991022155965552  0.283204365442252  1.0000
  C   C36       1.0  0.20212777482928598  0.7991026632944197  0.2167963290275807  1.0000
  C   C37       1.0  0.2329182919777679  0.6500920778437375  0.6713368767934327  1.0000
  C   C38       1.0  0.7670705116160831  0.1500907892201084  0.8286597488855564  1.0000
  C   C39       1.0  0.7670799189790499  0.3499078680861344  0.3286634243255691  1.0000
  C   C40       1.0  0.2329229880546677  0.8499085539532985  0.1713397019968141  1.0000
  C   C41       1.0  0.4259358163583116  0.652743340469911  0.6432415701681649  1.0000
  C   C42       1.0  0.5740546364572481  0.15274131289012158  0.8567558875512162  1.0000
  C   C43       1.0  0.5740576610107055  0.34726142745251554  0.356756640625882  1.0000
  C   C44       1.0  0.42593883340741456  0.8472598385347393  0.143241909882633  1.0000
  C   C45       1.0  0.5834085107816378  0.7048627418832042  0.6633685842526944  1.0000
  C   C46       1.0  0.41658483136553304  0.20486023779355378  0.8366271782886656  1.0000
  C   C47       1.0  0.41659123582356716  0.2951390123007726  0.33663007125547745  1.0000
  C   C48       1.0  0.583418053621692  0.7951427218945143  0.1633719062562378  1.0000
  C   C49       1.0  0.5537629493083429  0.7535780600610593  0.7090532820238734  1.0000
  C   C50       1.0  0.44622859429226475  0.2535715716424391  0.7909461387704153  1.0000
  C   C51       1.0  0.44623688680123746  0.2464248996151709  0.2909503338267143  1.0000
  C   C52       1.0  0.553775811365945  0.7464283743033774  0.2090504734421188  1.0000
  C   C53       1.0  0.4598757294419755  0.6016923798258773  0.5939531041218729  1.0000
  C   C54       1.0  0.5401165432554932  0.10169190038568128  0.9060452445481316  1.0000
  C   C55       1.0  0.5401303088107382  0.39830937436632036  0.4060472361847474  1.0000
  C   C56       1.0  0.45987537606163886  0.8983086482856562  0.09395337177214459  1.0000
  C   C57       1.0  0.0043525577186827044  0.21827656199913995  0.9612538620009872  1.0000
  C   C58       1.0  0.9956788528948621  0.7182748065399805  0.5387503431257555  1.0000
  C   C59       1.0  0.9956628509513763  0.7817300142082857  0.0387452852437562  1.0000
  C   C60       1.0  0.004319283574126602  0.281731769642441  0.4612458243709341  1.0000
  C   C61       1.0  0.8416746931152445  0.3276301170259187  0.9092119390176592  1.0000
  C   C62       1.0  0.1583314168383581  0.8276253608672731  0.590794087840635  1.0000
  C   C63       1.0  0.15831091220568544  0.6723722398880482  0.0907837524175648  1.0000
  C   C64       1.0  0.8416667867158621  0.17237880431103747  0.4092057999144458  1.0000
  C   C65       1.0  0.6785404895832201  0.2747987038612293  0.9945175864669835  1.0000
  C   C66       1.0  0.32150032079128715  0.7747983695004946  0.5054923911588602  1.0000
  C   C67       1.0  0.32146709172831567  0.7252012420863279  0.005481521592436399  1.0000
  C   C68       1.0  0.6785230194372787  0.22519916546648483  0.4945125823454788  1.0000
  N   N1        1.0  0.8486724550061949  0.2716074907662571  0.9555430775016659  1.0000
  N   N2        1.0  0.15135722474807517  0.7716022440932232  0.5444618879546681  1.0000
  N   N3        1.0  0.1513256441210302  0.7283948661712925  0.0444510231874489  1.0000
  N   N4        1.0  0.8486503789747812  0.22840071560101186  0.45553846018906796  1.0000
  O   O1        1.0  0.054934612095479486  0.9764628598294038  0.9398265850276815  1.0000
  O   O2        1.0  0.945065888871916  0.47646537566487257  0.5601747062721856  1.0000
  O   O3        1.0  0.945052663052131  0.02353708608012539  0.060174901313210696  1.0000
  O   O4        1.0  0.054947976637564004  0.5235351730411891  0.4398256732234742  1.0000
  O   O5        1.0  0.3728596606148855  0.9482432174879845  0.9705932708534989  1.0000
  O   O6        1.0  0.6271260779824884  0.4482471532754884  0.5294112836401226  1.0000
  O   O7        1.0  0.6271229480145024  0.051757933910600684  0.029409845421398  1.0000
  O   O8        1.0  0.37287842469228116  0.5517582174098405  0.470590702274741  1.0000
  O   O9        1.0  0.6124164323320115  0.6170326649449932  0.5625853754067052  1.0000
  O   O10       1.0  0.3875746882478381  0.11703097185837659  0.9374137775605931  1.0000
  O   O11       1.0  0.3875817712222016  0.3829715002333173  0.4374145123483757  1.0000
  O   O12       1.0  0.612417260961493  0.8829743988081232  0.0625864922050496  1.0000
  O   O13       1.0  0.32708590986867847  0.5443387250346845  0.5854260418354755  1.0000
  O   O14       1.0  0.6729064833929356  0.044340480454998485  0.914574849388984  1.0000
  O   O15       1.0  0.6729295509013723  0.4556600154225805  0.41457599894640396  1.0000
  O   O16       1.0  0.32707447026976394  0.955658862698989  0.0854232987060897  1.0000
  O   O17       1.0  0.6267865379691813  0.8574696341497725  0.9102825890947273  1.0000
  O   O18       1.0  0.37321861006956414  0.35746710455165936  0.5897138942218021  1.0000
  O   O19       1.0  0.37318209334463853  0.14252488696943286  0.08972665707280919  1.0000
  O   O20       1.0  0.6268138692797506  0.6425262112035667  0.4102770720055631  1.0000
  O   O21       1.0  0.0742234496623624  0.6009189082007038  0.6557395661738639  1.0000
  O   O22       1.0  0.9257625933252169  0.10091811353559167  0.8442616454145337  1.0000
  O   O23       1.0  0.9257684995078249  0.39908344871732726  0.3442607035932141  1.0000
  O   O24       1.0  0.0742293856275822  0.8990806268819184  0.1557402778019252  1.0000
  O   O25       1.0  0.0203975685184545  0.16828447303142005  0.9999308834379974  1.0000
  O   O26       1.0  0.9796418692310027  0.6682815710471388  0.5000696960033082  1.0000
  O   O27       1.0  0.9796241467921689  0.8317281306799698  7.077532615089961e-05  1.0000
  O   O28       1.0  0.020357787979420998  0.33172741614026796  0.49992399915844027  1.0000
