data_image0
_chemical_formula_structural       Cu2H20C12Br4N16
_chemical_formula_sum              "Cu2 H20 C12 Br4 N16"
_cell_length_a       6.834639140149493
_cell_length_b       7.792219380638043
_cell_length_c       11.074289530530157
_cell_angle_alpha    98.30959266231534
_cell_angle_beta     89.99980579381224
_cell_angle_gamma    90.00042049877398

_space_group_name_H-M_alt    "P 1"
_space_group_IT_number       1

loop_
  _space_group_symop_operation_xyz
  'x, y, z'

loop_
  _atom_site_type_symbol
  _atom_site_label
  _atom_site_symmetry_multiplicity
  _atom_site_fract_x
  _atom_site_fract_y
  _atom_site_fract_z
  _atom_site_occupancy
  Cu  Cu1       1.0  2.9262691186e-06  2.6013666598999997e-06  1.157065654e-06  1.0000
  Cu  Cu2       1.0  0.49999624515354674  0.4999837092719516  0.9999959853516671  1.0000
  H   H1        1.0  0.45150500410268524  0.9993446639949537  0.1144627543807744  1.0000
  H   H2        1.0  0.9514951646770271  0.5006641985786616  0.8855416690519462  1.0000
  H   H3        1.0  0.5484946662329692  0.0006642891320040998  0.8855472169199103  1.0000
  H   H4        1.0  0.04847963239151909  0.49930829051326947  0.11444668088272178  1.0000
  H   H5        1.0  0.5330659795428119  0.26739886176751776  0.41869194428580414  1.0000
  H   H6        1.0  0.03309030577933919  0.2326111913693722  0.5813101593894743  1.0000
  H   H7        1.0  0.46692930141288247  0.7326100163461077  0.5813089896175753  1.0000
  H   H8        1.0  0.9669298484632732  0.7673873189793452  0.4186906649343952  1.0000
  H   H9        1.0  0.6621030019221124  0.13572117073214682  0.299756190426173  1.0000
  H   H10       1.0  0.16211372578477778  0.3642981430557768  0.700248364057984  1.0000
  H   H11       1.0  0.33788642648720907  0.8642773319434053  0.7002437301716569  1.0000
  H   H12       1.0  0.8378815551606704  0.6357146633288908  0.299757468535617  1.0000
  H   H13       1.0  0.7211530395541386  0.03466258950552259  0.49370955460697274  1.0000
  H   H14       1.0  0.22116794845564414  0.4653430756704751  0.5062872270117538  1.0000
  H   H15       1.0  0.2788378519933303  0.9653411008807637  0.5062908726442927  1.0000
  H   H16       1.0  0.7788536689177545  0.5346567466098407  0.4937155314548392  1.0000
  H   H17       1.0  0.5941436802424888  0.8735150064332089  0.3960772030107904  1.0000
  H   H18       1.0  0.0941589164117929  0.6264961584686758  0.6039128132284475  1.0000
  H   H19       1.0  0.4058472113042058  0.12648738702746698  0.6039230975769527  1.0000
  H   H20       1.0  0.905853922178089  0.3735061826246167  0.39608116116986747  1.0000
  C   C1        1.0  0.335219874444796  0.04484049935268789  0.17788827580587  1.0000
  C   C2        1.0  0.8352097185771893  0.45516517056520905  0.8221091797763903  1.0000
  C   C3        1.0  0.6647900378566192  0.9551605972902947  0.8221118981097534  1.0000
  C   C4        1.0  0.16480897249883242  0.5448269376344399  0.1779009523697468  1.0000
  C   C5        1.0  0.5432596731977101  0.13677810773363314  0.3664644697150408  1.0000
  C   C6        1.0  0.043272230668975495  0.3632333579294452  0.6335377514132858  1.0000
  C   C7        1.0  0.45673268148401996  0.8632242857353417  0.6335358308720416  1.0000
  C   C8        1.0  0.9567332922246263  0.6367716444631456  0.3664646099747486  1.0000
  C   C9        1.0  0.5783248139936531  0.0018832916240044003  0.4509972305142469  1.0000
  C   C10       1.0  0.0783366154011276  0.49812595556950606  0.5490019943663071  1.0000
  C   C11       1.0  0.42166754068112766  0.9981243195427894  0.5490071916866484  1.0000
  C   C12       1.0  0.921679149446433  0.5018725247589372  0.4509952149998284  1.0000
  Br  Br1       1.0  0.7754707999858396  0.8033688014483217  0.08947557994392238  1.0000
  Br  Br2       1.0  0.2754639632598455  0.6966408750083843  0.9105554644193817  1.0000
  Br  Br3       1.0  0.22455813302950384  0.1966428131854698  0.9105427783299547  1.0000
  Br  Br4       1.0  0.7245444858664668  0.3033564433321203  0.0894578856052703  1.0000
  N   N1        1.0  0.1434892574203417  0.04732462183076078  0.156615118054539  1.0000
  N   N2        1.0  0.6434833679042526  0.45267883505906764  0.8433779921637025  1.0000
  N   N3        1.0  0.8565045604012766  0.952681654924504  0.8433846587825257  1.0000
  N   N4        1.0  0.35649142915926285  0.5472936690305515  0.156612165250813  1.0000
  N   N5        1.0  0.05411048684294428  0.11224315045779318  0.2630791124104519  1.0000
  N   N6        1.0  0.5541153202791946  0.3877631156035051  0.7369063249386656  1.0000
  N   N7        1.0  0.9458833309736432  0.8877631412951528  0.7369224719064675  1.0000
  N   N8        1.0  0.44587849757681397  0.612224869214053  0.2630754112903233  1.0000
  N   N9        1.0  0.1849643029490622  0.14989281732188434  0.3475553250739765  1.0000
  N   N10       1.0  0.6849768578736857  0.35011886184620516  0.6524348926610911  1.0000
  N   N11       1.0  0.8150251254583407  0.8501108880537912  0.6524469096578116  1.0000
  N   N12       1.0  0.3150125705805492  0.6498873024015024  0.34755132807901384  1.0000
  N   N13       1.0  0.362068128094414  0.107960992127623  0.29590661723422335  1.0000
  N   N14       1.0  0.8620760784620315  0.39204885831798447  0.7040893865779125  1.0000
  N   N15       1.0  0.6379242265703056  0.8920466490345405  0.7041014199263884  1.0000
  N   N16       1.0  0.1379235919583266  0.6079416528944036  0.2958844693161211  1.0000
