data_image0
_chemical_formula_structural       Ba2H48C32N8O22
_chemical_formula_sum              "Ba2 H48 C32 N8 O22"
_cell_length_a       10.3207689150308
_cell_length_b       10.42185748982367
_cell_length_c       10.753402166770437
_cell_angle_alpha    76.46667266561658
_cell_angle_beta     78.95072130529181
_cell_angle_gamma    84.13284684865091

_space_group_name_H-M_alt    "P 1"
_space_group_IT_number       1

loop_
  _space_group_symop_operation_xyz
  'x, y, z'

loop_
  _atom_site_type_symbol
  _atom_site_label
  _atom_site_symmetry_multiplicity
  _atom_site_fract_x
  _atom_site_fract_y
  _atom_site_fract_z
  _atom_site_occupancy
  Ba  Ba1       1.0  0.4650941593591328  0.27795997706853365  0.6090105633914149  1.0000
  Ba  Ba2       1.0  0.5349096233456622  0.7220395435082169  0.3909902655372831  1.0000
  H   H1        1.0  0.8613621540601673  0.3086056453211087  0.7044295180344444  1.0000
  H   H2        1.0  0.13864069818860264  0.6913928943541521  0.2955726396474247  1.0000
  H   H3        1.0  0.27475647465695374  0.058525856427657216  0.1953643718218671  1.0000
  H   H4        1.0  0.7252363350205044  0.9414756847031928  0.8046380271111526  1.0000
  H   H5        1.0  0.03972443429511693  0.6927510004719863  0.627677392574128  1.0000
  H   H6        1.0  0.9602795093209409  0.30724553851641895  0.3723203741972867  1.0000
  H   H7        1.0  0.3800559870445853  0.7598622215012368  0.9581939072562161  1.0000
  H   H8        1.0  0.6199407154306797  0.24014028876085555  0.041806616015115594  1.0000
  H   H9        1.0  0.7267731970811225  0.1764272057424563  0.45792795396560837  1.0000
  H   H10       1.0  0.2732306469273739  0.823571341629538  0.5420768077741299  1.0000
  H   H11       1.0  0.6345482661789462  0.0737689285912282  0.4343368670981887  1.0000
  H   H12       1.0  0.3654525613715266  0.9262306231226558  0.5656691526735216  1.0000
  H   H13       1.0  0.4866154467038299  0.25703609385631415  0.2908127563470868  1.0000
  H   H14       1.0  0.5133863084276841  0.7429644310123039  0.7091900770976449  1.0000
  H   H15       1.0  0.34956655013813526  0.34092388475879426  0.3276492422444406  1.0000
  H   H16       1.0  0.6504353103509004  0.6590746472197465  0.6723503113795599  1.0000
  H   H17       1.0  0.5688100622634806  0.41516310632016473  0.813200225342015  1.0000
  H   H18       1.0  0.4311866986405093  0.5848384229904156  0.18680237316655726  1.0000
  H   H19       1.0  0.5089286405397999  0.534048170581741  0.7182666549016046  1.0000
  H   H20       1.0  0.4910710285897225  0.46595433953025633  0.2817361078219135  1.0000
  H   H21       1.0  0.16157978363359862  0.07784610978297482  0.6227063609699852  1.0000
  H   H22       1.0  0.8384192213086694  0.922150444949111  0.37729138852871097  1.0000
  H   H23       1.0  0.9884348045169278  0.0911548253077115  0.6258215123495956  1.0000
  H   H24       1.0  0.01156311049554402  0.9088437339846182  0.3741815568464587  1.0000
  H   H25       1.0  0.9465925867945374  0.07275338580923568  0.8652889587400519  1.0000
  H   H26       1.0  0.05341119447276553  0.92724613089414  0.13471094140174233  1.0000
  H   H27       1.0  0.11735871441260311  0.06913285106293192  0.8652514342866693  1.0000
  H   H28       1.0  0.8826449557472176  0.9308686430370017  0.13474803052824302  1.0000
  H   H29       1.0  0.9797036825120243  0.8575538937480616  0.7869202421362754  1.0000
  H   H30       1.0  0.020302130641034904  0.14244463028359183  0.21308043985018083  1.0000
  H   H31       1.0  0.03501703193388293  0.840061992052007  0.936827031233413  1.0000
  H   H32       1.0  0.964988725665428  0.1599375206779143  0.06317343308960943  1.0000
  H   H33       1.0  0.15053862753936903  0.8532818468858213  0.7901410741765384  1.0000
  H   H34       1.0  0.8494670175149751  0.1467196393672836  0.2098580260326982  1.0000
  H   H35       1.0  0.3852298406050494  0.3653906058469047  0.9922452270101442  1.0000
  H   H36       1.0  0.6147639593946509  0.63461093910729  0.0077588471938411915  1.0000
  H   H37       1.0  0.2609946730035162  0.31030146546385845  0.12829558756753554  1.0000
  H   H38       1.0  0.7389970381192015  0.6897020569869668  0.8717065583414436  1.0000
  H   H39       1.0  0.21972717259760804  0.376452232554108  0.8448805230023876  1.0000
  H   H40       1.0  0.7802724366656905  0.623551254636027  0.15511923569699346  1.0000
  H   H41       1.0  0.09389969837433652  0.34514711510853147  0.9823631005627145  1.0000
  H   H42       1.0  0.9060949137864542  0.6548573687768098  0.017634565626707364  1.0000
  H   H43       1.0  0.14943205765236203  0.5546872941614182  0.042914108499950025  1.0000
  H   H44       1.0  0.8505645337154207  0.445317193497239  0.9570859794444995  1.0000
  H   H45       1.0  0.10131976542452754  0.587779389171281  0.8876962829808616  1.0000
  H   H46       1.0  0.8986798409637943  0.41222409027209755  0.11230161814471983  1.0000
  H   H47       1.0  0.2707850220190338  0.58204171144299  0.8999056555660656  1.0000
  H   H48       1.0  0.7292128331272211  0.41795782492748407  0.10009440960585182  1.0000
  C   C1        1.0  0.22346428734051932  0.567099353194351  0.583511744409037  1.0000
  C   C2        1.0  0.7765405297403307  0.4328991515204307  0.41648354715885444  1.0000
  C   C3        1.0  0.1311665888167752  0.45849484714374  0.6239045831532833  1.0000
  C   C4        1.0  0.8688383422465406  0.5415016879212474  0.37609300131529005  1.0000
  C   C5        1.0  0.9936447967717329  0.4654717000743814  0.6610936059776048  1.0000
  C   C6        1.0  0.006358105280817504  0.5345258354090844  0.33890505422010603  1.0000
  C   C7        1.0  0.8929587030435259  0.573095797873968  0.6786391138785958  1.0000
  C   C8        1.0  0.1070451222775972  0.4269026991440938  0.32135357363143396  1.0000
  C   C9        1.0  0.0682805570040799  0.2583919060223536  0.6574759497220126  1.0000
  C   C10       1.0  0.9317224590309297  0.7416036598113181  0.3425250033763802  1.0000
  C   C11       1.0  0.0666292778468573  0.11284834813449861  0.6733877092533402  1.0000
  C   C12       1.0  0.9333716507486612  0.8871491990691777  0.3266122443369425  1.0000
  C   C13       1.0  0.0439744017360155  0.0395828471048034  0.8170922201691295  1.0000
  C   C14       1.0  0.9560284490752623  0.9604156886970827  0.1829090087258435  1.0000
  C   C15       1.0  0.05269454223594752  0.889806702523977  0.8335993215872859  1.0000
  C   C16       1.0  0.9473102834698536  0.11019182543108741  0.16640154270201182  1.0000
  C   C17       1.0  0.3984246209578259  0.9405347922571252  0.8002016991605667  1.0000
  C   C18       1.0  0.6015732385009046  0.059464755733486585  0.19980115237204632  1.0000
  C   C19       1.0  0.36532573547238917  0.009320514897389399  0.9096188043036616  1.0000
  C   C20       1.0  0.6346710766728663  0.9906800140947707  0.0903812255076488  1.0000
  C   C21       1.0  0.3313571163163544  0.9565349583633137  0.04261378169722711  1.0000
  C   C22       1.0  0.6686377808006015  0.0434646013975311  0.9573896167439029  1.0000
  C   C23       1.0  0.31891698447989114  0.8224091459548576  0.12246266256288857  1.0000
  C   C24       1.0  0.6810797692366464  0.17759236398882902  0.8775352920111812  1.0000
  C   C25       1.0  0.3203846070127412  0.17690547151063643  0.002715529074023935  1.0000
  C   C26       1.0  0.6796091901119823  0.8230960656968025  0.9972866875561618  1.0000
  C   C27       1.0  0.2931625372997573  0.3132441936204486  0.024332616941698925  1.0000
  C   C28       1.0  0.706831204271225  0.6867583322852652  0.9756693820250458  1.0000
  C   C29       1.0  0.18973223280547566  0.389799319127782  0.9447875109067564  1.0000
  C   C30       1.0  0.8102634807850394  0.610203191184347  0.055212265880513235  1.0000
  C   C31       1.0  0.17670127757488532  0.5366556375111885  0.9443415121613793  1.0000
  C   C32       1.0  0.8232943790244036  0.46334785762584124  0.05565711817555302  1.0000
  N   N1        1.0  0.17552026383631872  0.32934514185966185  0.6232052829961316  1.0000
  N   N2        1.0  0.8244826382162245  0.6706523936238044  0.37679337720157924  1.0000
  N   N3        1.0  0.9573164855791418  0.3379115495169955  0.6808679966746991  1.0000
  N   N4        1.0  0.04268839424290154  0.6620859858664119  0.31913215649113613  1.0000
  N   N5        1.0  0.35848822584868156  0.14487476682639058  0.8869523141252242  1.0000
  N   N6        1.0  0.6415065587233002  0.8551267664576374  0.11304972020212023  1.0000
  N   N7        1.0  0.3032669709462112  0.06492974424587317  0.0981077228586074  1.0000
  N   N8        1.0  0.6967277566345375  0.9350727738630483  0.9018931650183998  1.0000
  O   O1        1.0  0.34434149800915753  0.5402456962227262  0.5455212641244811  1.0000
  O   O2        1.0  0.655664530171407  0.4597488536489109  0.45447564458123657  1.0000
  O   O3        1.0  0.17328919790971747  0.6851088080988318  0.5879760536443964  1.0000
  O   O4        1.0  0.8267177564144037  0.3148867110541574  0.4120167399474324  1.0000
  O   O5        1.0  0.9324471651677302  0.6934189037005183  0.6583587440711367  1.0000
  O   O6        1.0  0.06755683112708513  0.3065766388428486  0.34163738278991207  1.0000
  O   O7        1.0  0.774428711380182  0.5475520880759178  0.7129399546372137  1.0000
  O   O8        1.0  0.225575159432239  0.45244539313021903  0.2870464490279545  1.0000
  O   O9        1.0  0.4064972100718691  0.008215698959240602  0.686069554021742  1.0000
  O   O10       1.0  0.5935043726484608  0.9917877765106978  0.3139289112850675  1.0000
  O   O11       1.0  0.41616546791768627  0.8129522110925651  0.829059865863584  1.0000
  O   O12       1.0  0.5838302442353438  0.18705029534618936  0.17093898213678216  1.0000
  O   O13       1.0  0.3474697800790736  0.723729872022254  0.06271682202376641  1.0000
  O   O14       1.0  0.652524948939167  0.276272649960049  0.9372849946401441  1.0000
  O   O15       1.0  0.281666835242561  0.804251310397717  0.2425132534024286  1.0000
  O   O16       1.0  0.7183279536418967  0.1957502345064412  0.7574915672856191  1.0000
  O   O17       1.0  0.6599505793365098  0.11129463119650042  0.5018347795086837  1.0000
  O   O18       1.0  0.3400552395665101  0.8887039083286651  0.4981696176253791  1.0000
  O   O19       1.0  0.4357399538605408  0.30602187042610746  0.3551413502188721  1.0000
  O   O20       1.0  0.564260699841256  0.6939806280157157  0.644859372628012  1.0000
  O   O21       1.0  0.4938057757596539  0.44188665502493774  0.7672974356666343  1.0000
  O   O22       1.0  0.5061960306131326  0.5581128695252674  0.23270282908082848  1.0000
