data_image0
_chemical_formula_structural       Cu12H24C36I8N12O8
_chemical_formula_sum              "Cu12 H24 C36 I8 N12 O8"
_cell_length_a       9.79678387202655
_cell_length_b       10.837523735044089
_cell_length_c       13.02531872994122
_cell_angle_alpha    94.88238819830123
_cell_angle_beta     90.0001375168108
_cell_angle_gamma    90.00020988067362

_space_group_name_H-M_alt    "P 1"
_space_group_IT_number       1

loop_
  _space_group_symop_operation_xyz
  'x, y, z'

loop_
  _atom_site_type_symbol
  _atom_site_label
  _atom_site_symmetry_multiplicity
  _atom_site_fract_x
  _atom_site_fract_y
  _atom_site_fract_z
  _atom_site_occupancy
  Cu  Cu1       1.0  0.32215250223412545  0.5261847409914961  0.5357098959824355  1.0000
  Cu  Cu2       1.0  0.822158995334064  0.4738150937095755  0.9642851029311856  1.0000
  Cu  Cu3       1.0  0.6778414643428122  0.47381342497946827  0.46428317798822144  1.0000
  Cu  Cu4       1.0  0.17784619942582225  0.526183037996077  0.03571334269686589  1.0000
  Cu  Cu5       1.0  0.06223365347177182  0.6137718085247174  0.503815200694838  1.0000
  Cu  Cu6       1.0  0.5622388779072693  0.3862261465357405  0.9961822534001284  1.0000
  Cu  Cu7       1.0  0.937759292366451  0.3862244710242562  0.4961831056404193  1.0000
  Cu  Cu8       1.0  0.43776223389765795  0.6137775170769544  0.0038204469532487927  1.0000
  Cu  Cu9       1.0  0.10217427191184211  0.48235253934227273  0.6449305816946519  1.0000
  Cu  Cu10      1.0  0.6021816181751163  0.517652002530532  0.8550735826060104  1.0000
  Cu  Cu11      1.0  0.8978176531828057  0.517644676068052  0.3550662595236247  1.0000
  Cu  Cu12      1.0  0.39782459734987446  0.4823525773628176  0.14493072214858665  1.0000
  H   H1        1.0  0.12193777290625012  0.1742371800601674  0.3015096506125019  1.0000
  H   H2        1.0  0.6219284998464829  0.8257609684288596  0.19848152053976514  1.0000
  H   H3        1.0  0.8780715048302241  0.8257600010958513  0.6984925622695853  1.0000
  H   H4        1.0  0.378062404515184  0.17423994145312346  0.8015171339932435  1.0000
  H   H5        1.0  0.11590081846080838  0.9857075131161038  0.39836498546663524  1.0000
  H   H6        1.0  0.6158890421228237  0.014291534844943502  0.1016270100498176  1.0000
  H   H7        1.0  0.8841074385231097  0.014286904529860998  0.6016347163606071  1.0000
  H   H8        1.0  0.3841028829839388  0.9857103011062095  0.8983717141242451  1.0000
  H   H9        1.0  0.8804560722911887  0.7952134241628955  0.15580267230756556  1.0000
  H   H10       1.0  0.38045641340459474  0.20478284570047126  0.3441934359566545  1.0000
  H   H11       1.0  0.1195470809874877  0.20478655477582916  0.8441966799762495  1.0000
  H   H12       1.0  0.6195375531888987  0.7952180543911636  0.6558067533354615  1.0000
  H   H13       1.0  0.8878025781488503  0.9828793254538294  0.056659470459670964  1.0000
  H   H14       1.0  0.3877973806809934  0.017114202392001197  0.4433349095183487  1.0000
  H   H15       1.0  0.11220567884242172  0.017119732324665897  0.9433390448115658  1.0000
  H   H16       1.0  0.6121986274066915  0.9828875992809999  0.5566691863056192  1.0000
  H   H17       1.0  0.8009786692458646  0.20645218601649154  0.05838300401039478  1.0000
  H   H18       1.0  0.3009775691363004  0.7935447439132305  0.4416099378266906  1.0000
  H   H19       1.0  0.199027546250889  0.7935441033521754  0.9416137675828791  1.0000
  H   H20       1.0  0.6990184389352622  0.20645338777591593  0.5583885077917401  1.0000
  H   H21       1.0  0.2113221769821507  0.273437596748721  0.15525678906941207  1.0000
  H   H22       1.0  0.7113241957650516  0.7265645037504456  0.34474635863886494  1.0000
  H   H23       1.0  0.7886789348294911  0.7265669733396009  0.8447490504357305  1.0000
  H   H24       1.0  0.28867589531317617  0.2734446966727191  0.6552598290650948  1.0000
  C   C1        1.0  0.006771035752883802  0.0884369054181349  0.173256748894957  1.0000
  C   C2        1.0  0.5067706703488426  0.9115626471017252  0.3267396918474006  1.0000
  C   C3        1.0  0.9932362005097418  0.9115667631034865  0.8267451840868958  1.0000
  C   C4        1.0  0.49322839995799944  0.08843826279493065  0.6732589626941703  1.0000
  C   C5        1.0  0.0722773793991465  0.0899582339515206  0.2686462209265699  1.0000
  C   C6        1.0  0.5722705851478622  0.9100388100274726  0.23134477651939278  1.0000
  C   C7        1.0  0.9277288361043149  0.9100389618927804  0.7313536898184694  1.0000
  C   C8        1.0  0.4277213399499189  0.08995932655226822  0.7686529017168126  1.0000
  C   C9        1.0  0.0675746361779019  0.9852366947711598  0.32303665931403447  1.0000
  C   C10       1.0  0.5675671802909719  0.014767716357084699  0.1769587222856615  1.0000
  C   C11       1.0  0.9324326000745559  0.014763279276976998  0.676963460352006  1.0000
  C   C12       1.0  0.4324267862993808  0.9852322625651413  0.8230406299885259  1.0000
  C   C13       1.0  0.9975132205211994  0.8790951484779513  0.2831450905807529  1.0000
  C   C14       1.0  0.49751180965667885  0.12090340883797518  0.21684910013415495  1.0000
  C   C15       1.0  0.0024858497747217998  0.12090113597995605  0.7168524483829798  1.0000
  C   C16       1.0  0.5024831776787693  0.8790974961534134  0.783150321781086  1.0000
  C   C17       1.0  0.9328888003384536  0.8788982523956148  0.18696002411557794  1.0000
  C   C18       1.0  0.4328897325706009  0.1210991172514966  0.3130385658017545  1.0000
  C   C19       1.0  0.06711639443127382  0.12110170695508059  0.8130423976821672  1.0000
  C   C20       1.0  0.5671072962518977  0.8789027187088221  0.6869601583776512  1.0000
  C   C21       1.0  0.9372801576210534  0.9830771707939976  0.1316432812516624  1.0000
  C   C22       1.0  0.4372798285694728  0.016918396781342396  0.368349806941346  1.0000
  C   C23       1.0  0.06272605788554841  0.0169209462197131  0.8683574665112984  1.0000
  C   C24       1.0  0.5627161795098773  0.983083439177143  0.6316489172369939  1.0000
  C   C25       1.0  0.901640373733379  0.2476619995452082  0.06894225165000019  1.0000
  C   C26       1.0  0.40163907702790885  0.7523371246398228  0.4310541099265208  1.0000
  C   C27       1.0  0.0983668625151779  0.7523361223682626  0.9310577287360857  1.0000
  C   C28       1.0  0.598357951794263  0.24766284449204795  0.568946777106774  1.0000
  C   C29       1.0  0.11102800531112682  0.28361556497706886  0.12122397793667969  1.0000
  C   C30       1.0  0.6110280486403923  0.7163861947182325  0.3787758900800354  1.0000
  C   C31       1.0  0.8889751479805312  0.7163871627761011  0.8787801875347512  1.0000
  C   C32       1.0  0.3889730631672421  0.2836193259270559  0.6212261821753486  1.0000
  C   C33       1.0  0.9911875448359382  0.7668211889349833  0.3422522732065758  1.0000
  C   C34       1.0  0.49119047775917585  0.23317917820134682  0.1577451130484633  1.0000
  C   C35       1.0  0.008811525465063098  0.23317694275966966  0.6577461724150595  1.0000
  C   C36       1.0  0.5088075718107917  0.7668235740322872  0.8422552155278921  1.0000
  I   I1        1.0  0.8346015131891844  0.5776824961990671  0.6143276848135244  1.0000
  I   I2        1.0  0.3346048890019588  0.4223201418403518  0.8856706186168564  1.0000
  I   I3        1.0  0.1653924533902469  0.42231285728441026  0.3856705518828321  1.0000
  I   I4        1.0  0.6653982642806114  0.5776816892330459  0.11432887294691338  1.0000
  I   I5        1.0  0.22293476845281648  0.6876999385406536  0.6770528084388799  1.0000
  I   I6        1.0  0.7229360953983175  0.31230138196594465  0.822943656583277  1.0000
  I   I7        1.0  0.7770622603552937  0.3122944839830665  0.322946125998655  1.0000
  I   I8        1.0  0.27706399565481377  0.6877004491019534  0.17705583497728128  1.0000
  N   N1        1.0  0.008006269745088402  0.19812224367736056  0.12023659807824318  1.0000
  N   N2        1.0  0.5080076762543584  0.8018763970128333  0.3797582408586706  1.0000
  N   N3        1.0  0.9919979042841974  0.8018795727040882  0.8797651956204361  1.0000
  N   N4        1.0  0.49199139405756404  0.1981263601205683  0.6202413203408027  1.0000
  N   N5        1.0  0.07091801622743792  0.379052864566617  0.0722785445160739  1.0000
  N   N6        1.0  0.5709147715670397  0.6209478347220808  0.427719635046337  1.0000
  N   N7        1.0  0.9290851370548054  0.6209470996783323  0.9277231099015779  1.0000
  N   N8        1.0  0.4290832779993607  0.37905493220533504  0.5722783913961749  1.0000
  N   N9        1.0  0.9383638189982193  0.356223689120057  0.03927001908063229  1.0000
  N   N10       1.0  0.43836116342041725  0.6437764979879645  0.4607257217146028  1.0000
  N   N11       1.0  0.0616413757659942  0.6437753588570772  0.9607300309432957  1.0000
  N   N12       1.0  0.5616348446483314  0.35622257936022084  0.5392697240320103  1.0000
  O   O1        1.0  0.9099341220937803  0.6808203503178092  0.30639947404637263  1.0000
  O   O2        1.0  0.40993546703505507  0.31917787270904086  0.19359760265137277  1.0000
  O   O3        1.0  0.0900659689491761  0.3191777862765972  0.6935982041983876  1.0000
  O   O4        1.0  0.5900646240267235  0.6808257909018208  0.8064050977009316  1.0000
  O   O5        1.0  0.06351996280725561  0.76442376154538  0.42321961817594905  1.0000
  O   O6        1.0  0.5635171530682185  0.23557598999090595  0.07677770886554208  1.0000
  O   O7        1.0  0.9364780867529774  0.2355743603515847  0.576780362200509  1.0000
  O   O8        1.0  0.4364768135213808  0.764423057966056  0.9232223411466194  1.0000
