data_image0
_chemical_formula_structural       Ag4H28C18N6O12
_chemical_formula_sum              "Ag4 H28 C18 N6 O12"
_cell_length_a       7.400986469008623
_cell_length_b       8.73008447822545
_cell_length_c       12.66066382095426
_cell_angle_alpha    77.83054397217096
_cell_angle_beta     76.98656780393135
_cell_angle_gamma    58.24924475540272

_space_group_name_H-M_alt    "P 1"
_space_group_IT_number       1

loop_
  _space_group_symop_operation_xyz
  'x, y, z'

loop_
  _atom_site_type_symbol
  _atom_site_label
  _atom_site_symmetry_multiplicity
  _atom_site_fract_x
  _atom_site_fract_y
  _atom_site_fract_z
  _atom_site_occupancy
  Ag  Ag1       1.0  0.7911722044991693  0.14878374565793004  0.2669182307348451  1.0000
  Ag  Ag2       1.0  0.20882991609957474  0.8512134612154085  0.7330815515419218  1.0000
  Ag  Ag3       1.0  0.736362967837529  0.09336831504541011  0.7697525838713519  1.0000
  Ag  Ag4       1.0  0.2636362940113912  0.9066316851979083  0.23024709702749385  1.0000
  H   H1        1.0  0.807475659600797  0.6129872049916828  0.5584588404008315  1.0000
  H   H2        1.0  0.1925135671719787  0.38701603405561974  0.4415414342535228  1.0000
  H   H3        1.0  0.7598947038854006  0.7617846539822325  0.7189603566402526  1.0000
  H   H4        1.0  0.24009422710751954  0.23820822599870442  0.2810438200623651  1.0000
  H   H5        1.0  0.7346028132797643  0.8515620683639824  0.2842723625914374  1.0000
  H   H6        1.0  0.2653944570862522  0.1484251484225609  0.715734123136734  1.0000
  H   H7        1.0  0.007607558226595703  0.7253437089328758  0.30272669327143115  1.0000
  H   H8        1.0  0.9923890346261006  0.27464590697931607  0.6972723990828769  1.0000
  H   H9        1.0  0.8392778013989927  0.6324161991870556  0.3592320602280807  1.0000
  H   H10       1.0  0.16071958719479798  0.367578829282259  0.6407724924318503  1.0000
  H   H11       1.0  0.33188032881950863  0.2234024369462517  0.02029836030099829  1.0000
  H   H12       1.0  0.6681265709069637  0.7766074091166502  0.9796951338674303  1.0000
  H   H13       1.0  0.3654197672054025  0.40363371774425627  0.9480558148056275  1.0000
  H   H14       1.0  0.634580300631356  0.5963858519285666  0.05194095084516451  1.0000
  H   H15       1.0  0.022056962934719513  0.6235401507008903  0.05944061075400948  1.0000
  H   H16       1.0  0.9779373996039025  0.37646928062719104  0.9405574339543462  1.0000
  H   H17       1.0  0.6365060080376068  0.3366122672919545  0.4387319761691302  1.0000
  H   H18       1.0  0.3635017353944078  0.6633767715514198  0.5612691830691361  1.0000
  H   H19       1.0  0.6336025298689025  0.32874752485270164  0.5794502115645485  1.0000
  H   H20       1.0  0.3664032205462604  0.6712402722098928  0.4205497563806659  1.0000
  H   H21       1.0  0.7414058802847451  0.16711226963730044  0.9765170160801944  1.0000
  H   H22       1.0  0.2585920645266882  0.8328956313755924  0.023480870777092353  1.0000
  H   H23       1.0  0.7603663723742572  0.31057450662111563  0.8786439549966829  1.0000
  H   H24       1.0  0.23963244995084654  0.6894319744373973  0.12135246251418857  1.0000
  H   H25       1.0  0.43500741166645435  0.482965813310429  0.2749921204205421  1.0000
  H   H26       1.0  0.5649972714814242  0.5170365814076519  0.725009804037704  1.0000
  H   H27       1.0  0.6251435402851584  0.51510026019119  0.2828173503258781  1.0000
  H   H28       1.0  0.3748635267466511  0.4848979763829322  0.7171825504162044  1.0000
  C   C1        1.0  0.723011650271367  0.08930305778943652  0.5244913973770196  1.0000
  C   C2        1.0  0.2769934001822064  0.9106887066111398  0.47550807093459463  1.0000
  C   C3        1.0  0.7954301363392773  0.8411730097671254  0.4442696515131459  1.0000
  C   C4        1.0  0.20457269600174752  0.15882284496461813  0.5557302509659223  1.0000
  C   C5        1.0  0.7878832034652848  0.7474792436050706  0.5478719191410306  1.0000
  C   C6        1.0  0.21211968820004762  0.2525113468275109  0.4521279474262627  1.0000
  C   C7        1.0  0.7578027961338452  0.8309195944670053  0.6368416504056212  1.0000
  C   C8        1.0  0.24219367807024386  0.16908055004351755  0.3631575137722294  1.0000
  C   C9        1.0  0.8451262642294707  0.7577877688225455  0.3431452161314398  1.0000
  C   C10       1.0  0.15487158633640513  0.24219921061924773  0.656855706176195  1.0000
  C   C11       1.0  0.42355124404644334  0.34494306426779536  0.11206444270525398  1.0000
  C   C12       1.0  0.5764567358411202  0.6550615979411133  0.887932850396524  1.0000
  C   C13       1.0  0.2977143527437037  0.3599768182135534  0.027082497494042488  1.0000
  C   C14       1.0  0.7022753842370552  0.6400356311968877  0.9729187639605286  1.0000
  C   C15       1.0  0.056189653130360215  0.4889234513936033  0.04835435324536519  1.0000
  C   C16       1.0  0.9438137487429475  0.5110763494021029  0.9516465001221447  1.0000
  C   C17       1.0  0.9476650811345452  0.42308847484179074  0.14933948902506697  1.0000
  C   C18       1.0  0.05233159418301633  0.5769194474451068  0.8506569473101848  1.0000
  N   N1        1.0  0.7274735337486363  0.9990022344844931  0.6271761845319332  1.0000
  N   N2        1.0  0.2725205330101304  0.0009968377772154073  0.3728257622246787  1.0000
  N   N3        1.0  0.6823399108854958  0.2594513839752395  0.5120794044987846  1.0000
  N   N4        1.0  0.31766130863818626  0.7405420124597059  0.48792260598698795  1.0000
  N   N5        1.0  0.762257654241509  0.010604333298772403  0.4331161064501786  1.0000
  N   N6        1.0  0.2377476935258682  0.9893862484921744  0.5668874559355572  1.0000
  O   O1        1.0  0.8005663524185709  0.18049193758070464  0.8982519517563219  1.0000
  O   O2        1.0  0.1994323041351438  0.819514611290593  0.10174605530326628  1.0000
  O   O3        1.0  0.612987510074646  0.20900909083120214  0.11411176394132383  1.0000
  O   O4        1.0  0.38700376861845615  0.7910084659788197  0.8858878048496095  1.0000
  O   O5        1.0  0.49812555666055414  0.5041290349828813  0.3290416619034673  1.0000
  O   O6        1.0  0.5018779874227589  0.495865467607267  0.6709583607779025  1.0000
  O   O7        1.0  0.33436097068550913  0.4685934196867266  0.17613186833576583  1.0000
  O   O8        1.0  0.6656309250834908  0.5314202036917025  0.8238689948631261  1.0000
  O   O9        1.0  0.802566708456794  0.5410825663298696  0.2100850776614607  1.0000
  O   O10       1.0  0.1974329796012952  0.45891987957787  0.7899102499342803  1.0000
  O   O11       1.0  0.002270554871444121  0.2556319252853072  0.1608423684217115  1.0000
  O   O12       1.0  0.9977368448162593  0.7443729742683518  0.8391604881005961  1.0000
