data_image0
_chemical_formula_structural       Hg2H8C12S4N8
_chemical_formula_sum              "Hg2 H8 C12 S4 N8"
_cell_length_a       7.238840087590882
_cell_length_b       7.245605764938535
_cell_length_c       10.416719157034509
_cell_angle_alpha    99.39184130011786
_cell_angle_beta     106.03418769840862
_cell_angle_gamma    111.5577069669492

_space_group_name_H-M_alt    "P 1"
_space_group_IT_number       1

loop_
  _space_group_symop_operation_xyz
  'x, y, z'

loop_
  _atom_site_type_symbol
  _atom_site_label
  _atom_site_symmetry_multiplicity
  _atom_site_fract_x
  _atom_site_fract_y
  _atom_site_fract_z
  _atom_site_occupancy
  Hg  Hg1       1.0  0.6401064911572407  0.8902911523810033  0.7501016785654997  1.0000
  Hg  Hg2       1.0  0.3598899411676086  0.10971104094903687  0.24989635856642423  1.0000
  H   H1        1.0  0.42429416486477584  0.6718306143704565  0.9666310967757852  1.0000
  H   H2        1.0  0.2056991722276322  0.45842414187174535  0.5336074028180846  1.0000
  H   H3        1.0  0.5757014991511156  0.3281731094187421  0.03336504456791539  1.0000
  H   H4        1.0  0.7943083799755116  0.5415673431243418  0.4663925255183514  1.0000
  H   H5        1.0  0.11178887471143642  0.3628794902859127  0.9669503407544227  1.0000
  H   H6        1.0  0.8966974395534707  0.1450592452922734  0.5329032239410338  1.0000
  H   H7        1.0  0.8882118840659106  0.6371227389852266  0.03304660936237281  1.0000
  H   H8        1.0  0.10330569866886927  0.8549352877688251  0.46709620006591723  1.0000
  C   C1        1.0  0.3048319857956798  0.553330823206764  0.869973124408844  1.0000
  C   C2        1.0  0.18360139224424193  0.4352874451248212  0.630174828313919  1.0000
  C   C3        1.0  0.6951688579079446  0.44666831789296413  0.1300244560887407  1.0000
  C   C4        1.0  0.8164045540269457  0.5647102139527149  0.3698264438482397  1.0000
  C   C5        1.0  0.1320467968976402  0.38250055607390715  0.8692804678607118  1.0000
  C   C6        1.0  0.013621540475618619  0.2629521493587744  0.6306882283416967  1.0000
  C   C7        1.0  0.8679540520100558  0.6174985933563946  0.13071903456452816  1.0000
  C   C8        1.0  0.9863822759253227  0.737043933084003  0.36931053914503315  1.0000
  C   C9        1.0  0.09182141965517593  0.8875304330780481  0.8887764505355024  1.0000
  C   C10       1.0  0.4987452743936487  0.20306541476091408  0.6112056638946726  1.0000
  C   C11       1.0  0.9081651394335352  0.11246235911487189  0.1112138418989446  1.0000
  C   C12       1.0  0.5012584922779482  0.7969600689202421  0.3888002271383043  1.0000
  S   S1        1.0  0.8792837060905612  0.7083635462301955  0.757581521855684  1.0000
  S   S2        1.0  0.4505948738036878  0.12179178915644678  0.7424572011176876  1.0000
  S   S3        1.0  0.12071290909703691  0.2916324915834565  0.2424225808569602  1.0000
  S   S4        1.0  0.5494001406560258  0.8782104310692275  0.25755016734834163  1.0000
  N   N1        1.0  0.32864763783261  0.5788179679849604  0.7501094993568104  1.0000
  N   N2        1.0  0.6713539715779293  0.42117963849032236  0.24988901596517374  1.0000
  N   N3        1.0  0.9873031786000865  0.2370559349654826  0.749927282411157  1.0000
  N   N4        1.0  0.012697747427772266  0.7629401137975547  0.2500699675033927  1.0000
  N   N5        1.0  0.24912004481714686  0.011811138476034  0.9816436486980464  1.0000
  N   N6        1.0  0.5301661860913782  0.2673475300223487  0.5182941762494977  1.0000
  N   N7        1.0  0.7508891407087719  0.9882004730097121  0.01835980684822408  1.0000
  N   N8        1.0  0.4698324844483465  0.7326531892586201  0.48171564461310357  1.0000
