data_image0
_chemical_formula_structural       Al2H17C18O10F
_chemical_formula_sum              "Al2 H17 C18 O10 F1"
_cell_length_a       6.656211876356962
_cell_length_b       11.179175612862291
_cell_length_c       11.009688163233097
_cell_angle_alpha    88.70394071801643
_cell_angle_beta     72.51961484318274
_cell_angle_gamma    72.41320907964823

_space_group_name_H-M_alt    "P 1"
_space_group_IT_number       1

loop_
  _space_group_symop_operation_xyz
  'x, y, z'

loop_
  _atom_site_type_symbol
  _atom_site_label
  _atom_site_symmetry_multiplicity
  _atom_site_fract_x
  _atom_site_fract_y
  _atom_site_fract_z
  _atom_site_occupancy
  Al  Al1       1.0  0.0002865750152664363  0.5000871883724899  0.5035524691931671  1.0000
  Al  Al2       1.0  0.5030786626472263  0.4994579578375422  0.49872112171168964  1.0000
  H   H1        1.0  0.1399664857524882  0.6496359619586443  0.5783430694676002  1.0000
  H   H2        1.0  0.8689319750478078  0.4275497338878225  0.34856980282435057  1.0000
  H   H3        1.0  0.777698475846748  0.11266702191530703  0.4783718493442138  1.0000
  H   H4        1.0  0.09890518205412488  0.127805449960853  0.5454449755344444  1.0000
  H   H5        1.0  0.8865663171312905  0.8767861606792735  0.47166185691443746  1.0000
  H   H6        1.0  0.6006360419675474  0.29422460589395877  0.10002854241687939  1.0000
  H   H7        1.0  0.7726645948990906  0.38689551185428434  0.10191855613871331  1.0000
  H   H8        1.0  0.8841023799200869  0.3728695048094509  0.8782991077858926  1.0000
  H   H9        1.0  0.6950147107476069  0.2907474199443883  0.8782793899661104  1.0000
  H   H10       1.0  0.758535352195544  0.6080912957818754  0.900715862031547  1.0000
  H   H11       1.0  0.4900052012706692  0.6957917222982745  0.8984244244769645  1.0000
  H   H12       1.0  0.6218434265481818  0.6229133511558088  0.1242677136310846  1.0000
  H   H13       1.0  0.3498789620910329  0.6987361189861333  0.11954281794795212  1.0000
  H   H14       1.0  0.20535877972343994  0.40260167035907574  0.09763697018308194  1.0000
  H   H15       1.0  0.09641276938342012  0.5677532542959866  0.11534878319982061  1.0000
  H   H16       1.0  0.21587908734636563  0.5785136305136833  0.893878590588763  1.0000
  H   H17       1.0  0.30322188951402756  0.4136443518298307  0.8761544702979908  1.0000
  C   C1        1.0  0.6419273956252383  0.4949512142193199  0.7299112128798699  1.0000
  C   C2        1.0  0.6297364027899092  0.7287787292727544  0.5010595150913988  1.0000
  C   C3        1.0  0.36210402458124236  0.4975811775025392  0.2683124661997384  1.0000
  C   C4        1.0  0.36634927799489253  0.27417057910454895  0.5089094558042364  1.0000
  C   C5        1.0  0.5567327647916899  0.8693184462000971  0.5059637169184584  1.0000
  C   C6        1.0  0.4330886894927417  0.1340894440228126  0.5107315331945446  1.0000
  C   C7        1.0  0.3351867774327388  0.9432679164234302  0.5284416266937698  1.0000
  C   C8        1.0  0.6549873310198892  0.0635667529729673  0.4914849564866446  1.0000
  C   C9        1.0  0.2718681079259468  0.0733854477787759  0.5295153731382884  1.0000
  C   C10       1.0  0.7147023312731164  0.9331005530501316  0.4881540742592636  1.0000
  C   C11       1.0  0.6389976333849533  0.3804736765299878  0.06589311722300553  1.0000
  C   C12       1.0  0.7101458735696227  0.3758850644738629  0.9180389443785518  1.0000
  C   C13       1.0  0.5630377907493908  0.4930419010114805  0.8743892355235376  1.0000
  C   C14       1.0  0.5838546663925043  0.6111594358191044  0.933875006498177  1.0000
  C   C15       1.0  0.49613294601942914  0.6158044694319216  0.08151915036832955  1.0000
  C   C16       1.0  0.4326435111298893  0.4956105197880945  0.12331878393226958  1.0000
  C   C17       1.0  0.24686401083017268  0.4895171744903735  0.0701113768980832  1.0000
  C   C18       1.0  0.3205393976612497  0.49394096033549334  0.923272510841088  1.0000
  O   O1        1.0  0.8443192925443342  0.4872129776850685  0.6770003238442615  1.0000
  O   O2        1.0  0.49608933780364584  0.6736421869048215  0.48675070089678496  1.0000
  O   O3        1.0  0.5106371168370385  0.4896296043240084  0.32201698295335757  1.0000
  O   O4        1.0  0.17400032044305644  0.32837949002151134  0.5005610214830299  1.0000
  O   O5        1.0  0.16078912931759964  0.50622098554863  0.326056875405378  1.0000
  O   O6        1.0  0.5079464320936681  0.3275273008637924  0.5133557230236648  1.0000
  O   O7        1.0  0.49954921002605357  0.5074040242598912  0.671494456230562  1.0000
  O   O8        1.0  0.821878852446808  0.6754867601065726  0.511470739523297  1.0000
  O   O9        1.0  0.19509154014847496  0.5597616654079048  0.5552946745035215  1.0000
  O   O10       1.0  0.8106656744852855  0.4450551150729751  0.44052930093616294  1.0000
  F   F1        1.0  0.170473239112354  0.8891188993460732  0.5530315371228413  1.0000
