data_image0
_chemical_formula_structural       Al4H22C47O26
_chemical_formula_sum              "Al4 H22 C47 O26"
_cell_length_a       6.696332109343821
_cell_length_b       20.525249931773455
_cell_length_c       22.79893389991112
_cell_angle_alpha    93.02113902442966
_cell_angle_beta     89.43571941983645
_cell_angle_gamma    89.30588531364523

_space_group_name_H-M_alt    "P 1"
_space_group_IT_number       1

loop_
  _space_group_symop_operation_xyz
  'x, y, z'

loop_
  _atom_site_type_symbol
  _atom_site_label
  _atom_site_symmetry_multiplicity
  _atom_site_fract_x
  _atom_site_fract_y
  _atom_site_fract_z
  _atom_site_occupancy
  Al  Al1       1.0  0.8573106048602668  0.4882008821032287  0.49107009196563933  1.0000
  Al  Al2       1.0  0.3574587400283988  0.48824380925452726  0.4898443768755811  1.0000
  Al  Al3       1.0  0.3596910920522943  0.019608147160305102  0.014320613017872604  1.0000
  Al  Al4       1.0  0.8586129997437412  0.020272501428095804  0.0156544951623232  1.0000
  H   H1        1.0  0.9086422121359091  0.7458960089241415  0.3202578343923932  1.0000
  H   H2        1.0  0.3128361381634265  0.8211767074453961  0.7759960139827983  1.0000
  H   H3        1.0  0.9300416000730606  0.772801665026876  0.8120749443624862  1.0000
  H   H4        1.0  0.383060997346348  0.1439330036703836  0.8040879119218259  1.0000
  H   H5        1.0  0.07418710529292838  0.6970905912571299  0.7305999453081213  1.0000
  H   H6        1.0  0.5071685845403592  0.21122318249305744  0.6894207844420919  1.0000
  H   H7        1.0  0.8360306555630858  0.40030214502611033  0.7391831848994102  1.0000
  H   H8        1.0  0.7211425146385791  0.34444851086063727  0.6891356588205967  1.0000
  H   H9        1.0  0.64937273957743  0.347489416973943  0.7644253856992124  1.0000
  H   H10       1.0  0.6147337928737002  0.2616306102019196  0.8177101966741703  1.0000
  H   H11       1.0  0.7756265862192252  0.23074997578771675  0.8712085857706101  1.0000
  H   H12       1.0  0.7595736632394648  0.3159789858505349  0.8620644307985046  1.0000
  H   H13       1.0  0.31580294711073265  0.6404348080838814  0.29017901782221867  1.0000
  H   H14       1.0  0.20433421538202617  0.7279957686819075  0.18742844380053475  1.0000
  H   H15       1.0  0.008104585793105896  0.8491573652014991  0.20346727334860762  1.0000
  H   H16       1.0  0.889297170249641  0.8968981081844235  0.26055803611328093  1.0000
  H   H17       1.0  0.06567702231873078  0.8354356867603058  0.2779069947594124  1.0000
  H   H18       1.0  0.3027362934375403  0.6956972938901413  0.6615234587201968  1.0000
  H   H19       1.0  0.6089414308811101  0.4064768899536233  0.5062362860939871  1.0000
  H   H20       1.0  0.10383744348470711  0.5743612903754994  0.49225565969482693  1.0000
  H   H21       1.0  0.6028828491419205  0.100515250406211  0.04202951556640501  1.0000
  H   H22       1.0  0.11138110425282119  0.9403107975951244  0.03552858631238112  1.0000
  C   C1        1.0  0.6054707883754489  0.5661478953222313  0.4147646792987985  1.0000
  C   C2        1.0  0.6027809566152128  0.5689563000627373  0.5720491637141834  1.0000
  C   C3        1.0  0.11124702182299022  0.41194755095958874  0.5676210138758507  1.0000
  C   C4        1.0  0.10937209675045519  0.40903852743073804  0.4083087145415547  1.0000
  C   C5        1.0  0.11163053912694208  0.36241343188035563  0.35875292168838513  1.0000
  C   C6        1.0  0.11117650139178178  0.3215095720680382  0.31755118515079067  1.0000
  C   C7        1.0  0.1102908459794847  0.2765483876398207  0.2726981086272958  1.0000
  C   C8        1.0  0.1088369415265902  0.23493565857245363  0.23163020843133353  1.0000
  C   C9        1.0  0.1069914835317221  0.18986365860975246  0.1868748599590973  1.0000
  C   C10       1.0  0.1049001608414173  0.14875572751363114  0.14583240386803453  1.0000
  C   C11       1.0  0.25862265082371755  0.24968630601095043  0.714269170163014  1.0000
  C   C12       1.0  0.1019402094336783  0.2945373902757069  0.7056044965416108  1.0000
  C   C13       1.0  0.9361975519757876  0.30071477148106857  0.7455042210138957  1.0000
  C   C14       1.0  0.9285437251475556  0.26183024705940733  0.7940156788289485  1.0000
  C   C15       1.0  0.08660355372491318  0.2162209460479971  0.8021079998468323  1.0000
  C   C16       1.0  0.24947431928473654  0.21051364167828981  0.7624881314480092  1.0000
  C   C17       1.0  0.11073030812344338  0.33420005228065014  0.6569767002040052  1.0000
  C   C18       1.0  0.09001251257291899  0.1746796982303138  0.8494760062668903  1.0000
  C   C19       1.0  0.10456500037381028  0.1371499875622249  0.8891078439012503  1.0000
  C   C20       1.0  0.11135822821921688  0.3695730007763914  0.6156577661170247  1.0000
  C   C21       1.0  0.45486069253917083  0.7584018645398489  0.2155419786364874  1.0000
  C   C22       1.0  0.6138284848433884  0.8025910495876827  0.21206617927463614  1.0000
  C   C23       1.0  0.7799193293020252  0.7987247643472842  0.2506315561138663  1.0000
  C   C24       1.0  0.7827173121628873  0.7503071695448469  0.29078126412940014  1.0000
  C   C25       1.0  0.6228787008418805  0.7062823355075879  0.2951905915381873  1.0000
  C   C26       1.0  0.45809319906402374  0.7112003030519392  0.25779473275024156  1.0000
  C   C27       1.0  0.6073711296413435  0.8505894308313202  0.17010490971688347  1.0000
  C   C28       1.0  0.6208703145749297  0.6573230279654041  0.3362629183772157  1.0000
  C   C29       1.0  0.6097421579337093  0.6141669382663154  0.3709905528566538  1.0000
  C   C30       1.0  0.6073712540229507  0.8925684268662482  0.13422232837099562  1.0000
  C   C31       1.0  0.44565485842755953  0.7911060897442042  0.7669342819177346  1.0000
  C   C32       1.0  0.6227626828970899  0.8024606384665914  0.7986505516484499  1.0000
  C   C33       1.0  0.7955406569187248  0.7640118784317664  0.7864991878834999  1.0000
  C   C34       1.0  0.7915595717814198  0.7134901919214514  0.743135107910689  1.0000
  C   C35       1.0  0.6151724443775636  0.701717549906249  0.7105878879902435  1.0000
  C   C36       1.0  0.4447221390776548  0.7413840392825791  0.7234080025713042  1.0000
  C   C37       1.0  0.6243733557948516  0.8521206135250311  0.8441677264396574  1.0000
  C   C38       1.0  0.6090822914355342  0.6540049900371727  0.6641069964194841  1.0000
  C   C39       1.0  0.5989814315250753  0.6145300573249202  0.6222806527632798  1.0000
  C   C40       1.0  0.6221726598909924  0.8940801705814182  0.8839693275798197  1.0000
  C   C41       1.0  0.6176249159603059  0.9414960897170416  0.9328604897001969  1.0000
  C   C42       1.0  0.6077164359642212  0.9401840036931617  0.09027245112403652  1.0000
  C   C43       1.0  0.1039243900954219  0.1015865399578857  0.0968058026151937  1.0000
  C   C44       1.0  0.10959100958198316  0.09474056868551632  0.9374194990491561  1.0000
  C   C45       1.0  0.7765877372225419  0.3505520476387574  0.7342741429027129  1.0000
  C   C46       1.0  0.7609284743280468  0.2677808968228846  0.8385254627767795  1.0000
  C   C47       1.0  0.9448757830961015  0.847405944937286  0.24798636150213585  1.0000
  O   O1        1.0  0.4348776667107331  0.5543122987271616  0.5492344618772833  1.0000
  O   O2        1.0  0.7736414365549961  0.5504414261661451  0.43580482507107393  1.0000
  O   O3        1.0  0.937913277215017  0.42886420696037664  0.4265103086029569  1.0000
  O   O4        1.0  0.7754656985502137  0.5487403019784622  0.5550000840048881  1.0000
  O   O5        1.0  0.9411950304364892  0.4271085424823086  0.5469904466044825  1.0000
  O   O6        1.0  0.4347729516551126  0.5448941626347406  0.4290228635385063  1.0000
  O   O7        1.0  0.6087406170103549  0.44933163173010376  0.490226778610733  1.0000
  O   O8        1.0  0.2811537913388662  0.43052037271872484  0.5494361042091286  1.0000
  O   O9        1.0  0.2784962727090629  0.42485895427428483  0.42920765952415263  1.0000
  O   O10       1.0  0.10596767333590408  0.5271702722943983  0.49144825451032403  1.0000
  O   O11       1.0  0.7785951360515142  0.9583618369715908  0.07235764541439953  1.0000
  O   O12       1.0  0.4457804505230527  0.9584801100270681  0.9530079150384481  1.0000
  O   O13       1.0  0.2808667511048951  0.0760366788065312  0.9540225990817887  1.0000
  O   O14       1.0  0.4372754991039399  0.9591793944543171  0.07270771562536993  1.0000
  O   O15       1.0  0.2744298678363748  0.08459028717306441  0.0753664488657506  1.0000
  O   O16       1.0  0.785430785366209  0.961230736527824  0.9519953920588051  1.0000
  O   O17       1.0  0.6071881588223318  0.0597017195420548  0.0185235779833448  1.0000
  O   O18       1.0  0.9332630266627077  0.0822553451960459  0.07943635914530493  1.0000
  O   O19       1.0  0.9410537735346264  0.0807079819619361  0.959399868805427  1.0000
  O   O20       1.0  0.1102656916583342  0.9811800278771795  0.0159713557373138  1.0000
  O   O21       1.0  0.4045182886654786  0.16737454860844284  0.7681766553691176  1.0000
  O   O22       1.0  0.9478317748039585  0.6727507899058693  0.7302728680633451  1.0000
  O   O23       1.0  0.41535568089244623  0.24448111158795882  0.675783634059762  1.0000
  O   O24       1.0  0.2963028284599005  0.6713787369573795  0.25934835965775704  1.0000
  O   O25       1.0  0.29985105595071826  0.7616155809156594  0.17776711947917082  1.0000
  O   O26       1.0  0.27404397081486565  0.7307426850125083  0.6917684932825097  1.0000
