data_image0
_chemical_formula_structural       CuH14C20S4N10O14
_chemical_formula_sum              "Cu1 H14 C20 S4 N10 O14"
_cell_length_a       8.831399489538667
_cell_length_b       9.198320731193325
_cell_length_c       10.603397090912487
_cell_angle_alpha    67.41119092709485
_cell_angle_beta     86.29398465365011
_cell_angle_gamma    71.10402141728396

_space_group_name_H-M_alt    "P 1"
_space_group_IT_number       1

loop_
  _space_group_symop_operation_xyz
  'x, y, z'

loop_
  _atom_site_type_symbol
  _atom_site_label
  _atom_site_symmetry_multiplicity
  _atom_site_fract_x
  _atom_site_fract_y
  _atom_site_fract_z
  _atom_site_occupancy
  Cu  Cu1       1.0  1.2193357079952154e-06  0.9999989988945402  1.1994140863265972e-06  1.0000
  H   H1        1.0  0.0822363979428147  0.16509127304468763  0.1685362580702119  1.0000
  H   H2        1.0  0.9177642522277838  0.8349069279026864  0.8314640830973445  1.0000
  H   H3        1.0  0.26492695426436796  0.15408056736935555  0.23916949896942435  1.0000
  H   H4        1.0  0.7350729330954094  0.8459201302720775  0.760831932174355  1.0000
  H   H5        1.0  0.16701552632922304  0.004494896309687101  0.32900098783765935  1.0000
  H   H6        1.0  0.8329839970196389  0.9955033082137632  0.6710003633066889  1.0000
  H   H7        1.0  0.4731082234426438  0.6610682823327068  0.8694086044801493  1.0000
  H   H8        1.0  0.5268905623587514  0.33892868090080003  0.13059415313023237  1.0000
  H   H9        1.0  0.6486475920987687  0.4813474332104164  0.9145187547003245  1.0000
  H   H10       1.0  0.3513485429160781  0.5186507785602572  0.08548468489701117  1.0000
  H   H11       1.0  0.3529318869254324  0.2325571973153018  0.4511078362390747  1.0000
  H   H12       1.0  0.6470691115183698  0.7674434897880362  0.5488907019731925  1.0000
  H   H13       1.0  0.10950626385498911  0.5840266768085273  0.6329089043090832  1.0000
  H   H14       1.0  0.8904901800888183  0.41597400371305343  0.36708802494614895  1.0000
  C   C1        1.0  0.1952076983641859  0.08030258452959063  0.2274543550092574  1.0000
  C   C2        1.0  0.8047921811267429  0.9196981096308365  0.7725461346571619  1.0000
  C   C3        1.0  0.28666138142556014  0.9697439443958303  0.1580559252068453  1.0000
  C   C4        1.0  0.713339648493637  0.030256756631551713  0.8419463789148693  1.0000
  C   C5        1.0  0.47847340011758627  0.7714728465090276  0.08074339186951113  1.0000
  C   C6        1.0  0.521529932314955  0.22852411982522375  0.9192600332205458  1.0000
  C   C7        1.0  0.5480340678495637  0.553600830536439  0.9548420384127069  1.0000
  C   C8        1.0  0.4519635911301094  0.4463961362731511  0.045161729174459694  1.0000
  C   C9        1.0  0.11317742701506718  0.17694243978569096  0.7289593764886462  1.0000
  C   C10       1.0  0.8868235792975834  0.8230582507986598  0.27104010320098126  1.0000
  C   C11       1.0  0.21233502498549928  0.14887552957732456  0.6208095627396657  1.0000
  C   C12       1.0  0.7876648387677322  0.8511251576210769  0.379189043972019  1.0000
  C   C13       1.0  0.2723621031868291  0.263465062423144  0.5259674931705618  1.0000
  C   C14       1.0  0.7276385059827173  0.7365368695462141  0.4740306485524499  1.0000
  C   C15       1.0  0.23101579434928962  0.4222937622340908  0.5300255928108938  1.0000
  C   C16       1.0  0.7689829268445154  0.5777069215783756  0.4699721409228558  1.0000
  C   C17       1.0  0.13772958256939208  0.4610768345840129  0.6301272322997633  1.0000
  C   C18       1.0  0.8622664799690084  0.5389250942846006  0.3698702419435733  1.0000
  C   C19       1.0  0.0813640760254444  0.34211571717948175  0.7284026324058671  1.0000
  C   C20       1.0  0.9186346530372091  0.6578849701139902  0.2715960428052497  1.0000
  S   S1        1.0  0.4899323969762789  0.8661450111830579  0.1917079601102855  1.0000
  S   S2        1.0  0.5100690143483249  0.13385444149729153  0.8082937990233247  1.0000
  S   S3        1.0  0.6450947275218722  0.6276003034000086  0.052276474139595866  1.0000
  S   S4        1.0  0.35490558224435637  0.3723954148724076  0.9477266114606165  1.0000
  N   N1        1.0  0.2270801210126123  0.9309208595828196  0.06907823282679713  1.0000
  N   N2        1.0  0.7729224250025695  0.06907859300246601  0.9309234578073884  1.0000
  N   N3        1.0  0.3334126676669982  0.8194679784281221  0.02397954980893493  1.0000
  N   N4        1.0  0.6665887436576128  0.18053147425222701  0.9760222093246751  1.0000
  N   N5        1.0  0.2621613538874994  0.9801616975625368  0.6210749088860935  1.0000
  N   N6        1.0  0.7378411842588334  0.019837751541736302  0.3789258402707317  1.0000
  N   N7        1.0  0.2876434059939755  0.5483611228325742  0.4281928038163442  1.0000
  N   N8        1.0  0.7123549259255739  0.45164080584591215  0.5718045334281568  1.0000
  N   N9        1.0  0.9835162960796497  0.39667081553469785  0.8274633101811091  1.0000
  N   N10       1.0  0.016482425114155323  0.6033298682777611  0.17253442355264073  1.0000
  O   O1        1.0  0.0661262490102672  0.059549933159083024  0.8108756546436027  1.0000
  O   O2        1.0  0.933880082482041  0.9404482707939651  0.18912528550421107  1.0000
  O   O3        1.0  0.4092864809282233  0.9063617357345919  0.6313189962044845  1.0000
  O   O4        1.0  0.5907160493492541  0.09363770988866801  0.36868081147497367  1.0000
  O   O5        1.0  0.15665169154593872  0.9230077281121256  0.6123193413337658  1.0000
  O   O6        1.0  0.8433519812909651  0.07699172089708382  0.38768133932364174  1.0000
  O   O7        1.0  0.3704174657105811  0.5102147774731378  0.3388931829972321  1.0000
  O   O8        1.0  0.6295831513278073  0.4897871579772329  0.6611059002031398  1.0000
  O   O9        1.0  0.24897564075203596  0.6878726545604084  0.4346632522787316  1.0000
  O   O10       1.0  0.7510192870957865  0.3121292744032688  0.5653342904640366  1.0000
  O   O11       1.0  0.9214010186055505  0.5488049478071776  0.7975102414236375  1.0000
  O   O12       1.0  0.07859654429113049  0.4511957256573212  0.2024847363774427  1.0000
  O   O13       1.0  0.965498447193653  0.29081349356800257  0.9389393122533035  1.0000
  O   O14       1.0  0.03450216984474256  0.709188441882368  0.06105977094707532  1.0000
