data_image0
_chemical_formula_structural       Na4H36C8O20
_chemical_formula_sum              "Na4 H36 C8 O20"
_cell_length_a       7.94683288900557
_cell_length_b       7.946834092451937
_cell_length_c       10.188752844073482
_cell_angle_alpha    74.54839265989317
_cell_angle_beta     74.54832643088106
_cell_angle_gamma    81.64963194535946

_space_group_name_H-M_alt    "P 1"
_space_group_IT_number       1

loop_
  _space_group_symop_operation_xyz
  'x, y, z'

loop_
  _atom_site_type_symbol
  _atom_site_label
  _atom_site_symmetry_multiplicity
  _atom_site_fract_x
  _atom_site_fract_y
  _atom_site_fract_z
  _atom_site_occupancy
  Na  Na1       1.0  0.5130616081506786  0.6553090357707066  0.5810814186495038  1.0000
  Na  Na2       1.0  0.34469005436146466  0.48693828445156845  0.9189186774810099  1.0000
  Na  Na3       1.0  0.4869376688323257  0.34468937902489233  0.41891855811597617  1.0000
  Na  Na4       1.0  0.6553090154925911  0.5130627553594638  0.08108176997782827  1.0000
  H   H1        1.0  0.8624998702136679  0.9051396913117248  0.3684082195797416  1.0000
  H   H2        1.0  0.09486052819771372  0.137500723901077  0.13159176410204054  1.0000
  H   H3        1.0  0.1374993115456178  0.09486004433352953  0.6315934612484784  1.0000
  H   H4        1.0  0.9051398470605532  0.8625003175657328  0.8684084072280245  1.0000
  H   H5        1.0  0.010382672494095881  0.7129029448643538  0.3793455895920559  1.0000
  H   H6        1.0  0.2870980878894898  0.9896171185316123  0.12065466687923283  1.0000
  H   H7        1.0  0.9896178091088997  0.28709678687538803  0.6206548359633575  1.0000
  H   H8        1.0  0.7129038054624528  0.010381305136824902  0.8793457367727485  1.0000
  H   H9        1.0  0.07442128514443877  0.9051728355726214  0.40074069668160933  1.0000
  H   H10       1.0  0.09482653265806104  0.925579860499923  0.09925869719367596  1.0000
  H   H11       1.0  0.9255779973990669  0.09482558478426743  0.5992602592279113  1.0000
  H   H12       1.0  0.9051738314792032  0.07442116984430672  0.9007395158483151  1.0000
  H   H13       1.0  0.36418493574906563  0.9672027280230612  0.3934216938569151  1.0000
  H   H14       1.0  0.03279532916461388  0.6358154344274071  0.10657804592926819  1.0000
  H   H15       1.0  0.6358154339487072  0.0327983078824587  0.6065774983291092  1.0000
  H   H16       1.0  0.9672038470341702  0.3641842956565569  0.8934226557549114  1.0000
  H   H17       1.0  0.5364362294594613  0.8983446044114346  0.30195564969087474  1.0000
  H   H18       1.0  0.10165533079790379  0.46356527534641156  0.19804335318799102  1.0000
  H   H19       1.0  0.4635642465830331  0.10165512176701706  0.698043796720498  1.0000
  H   H20       1.0  0.8983450444603633  0.5364357661203984  0.801956818142081  1.0000
  H   H21       1.0  0.739772794547349  0.621324342048304  0.3103383595739759  1.0000
  H   H22       1.0  0.37867494496232  0.26022792436527453  0.18966172762584682  1.0000
  H   H23       1.0  0.26022768149514514  0.37867538413014773  0.689661086837397  1.0000
  H   H24       1.0  0.621325430295954  0.7397731171015354  0.8103384437042254  1.0000
  H   H25       1.0  0.8150947378391393  0.4573892456393765  0.4067340622118252  1.0000
  H   H26       1.0  0.5426102667249424  0.18490584110081443  0.09326590726536918  1.0000
  H   H27       1.0  0.18490574376385638  0.5426104861003581  0.5932663633435882  1.0000
  H   H28       1.0  0.45739011409383296  0.8150952059272855  0.9067352432087432  1.0000
  H   H29       1.0  0.6127871044990697  0.3002933184886629  0.7057283940406837  1.0000
  H   H30       1.0  0.6997070784417755  0.3872136168956644  0.794272042954866  1.0000
  H   H31       1.0  0.38721337154342444  0.6997064076897817  0.29427105237068935  1.0000
  H   H32       1.0  0.30029330237699253  0.6127874301324359  0.20572910751924672  1.0000
  H   H33       1.0  0.256861242483417  0.844113790595124  0.7844385553123345  1.0000
  H   H34       1.0  0.15588645120320166  0.7431395840108339  0.7155603041398209  1.0000
  H   H35       1.0  0.7431378218101371  0.15588724365462533  0.21556091300246288  1.0000
  H   H36       1.0  0.844114030399794  0.256860147728908  0.2844401214155923  1.0000
  C   C1        1.0  0.8876267837334735  0.7700651116448899  0.5778357829301656  1.0000
  C   C2        1.0  0.22993538511941838  0.11237447712932892  0.9221636187307141  1.0000
  C   C3        1.0  0.11237499771323196  0.22993461618933966  0.4221633873524341  1.0000
  C   C4        1.0  0.7700636791741358  0.8876265571204132  0.07783584958408349  1.0000
  C   C5        1.0  0.9615697556193293  0.8289190729025577  0.4217384873914938  1.0000
  C   C6        1.0  0.1710813891244598  0.038430037826884714  0.0782615411708747  1.0000
  C   C7        1.0  0.0384308323283946  0.17107934911010864  0.5782621923892607  1.0000
  C   C8        1.0  0.8289203923222529  0.9615696900073376  0.9217376291117247  1.0000
  O   O1        1.0  0.7270972261090803  0.8102468622297395  0.6298264986685427  1.0000
  O   O2        1.0  0.18975283077110558  0.2729037198373305  0.870174204442684  1.0000
  O   O3        1.0  0.2729034681833652  0.18975025005585885  0.3701744353375533  1.0000
  O   O4        1.0  0.8102476563923985  0.7270960174636941  0.12982720025676292  1.0000
  O   O5        1.0  0.9910816836590897  0.6791335108616822  0.6522844408098794  1.0000
  O   O6        1.0  0.3208668727515445  0.008918939332410503  0.8477150385213297  1.0000
  O   O7        1.0  0.0089174925396946  0.320866219222282  0.3477162608743002  1.0000
  O   O8        1.0  0.6791334969462284  0.9910820965731093  0.15228415366469503  1.0000
  O   O9        1.0  0.4347448883442553  0.8566603852666574  0.3811087338281354  1.0000
  O   O10       1.0  0.14333892038320778  0.5652554443873968  0.11889165615760795  1.0000
  O   O11       1.0  0.5652568986629589  0.1433393481288547  0.6188914155985117  1.0000
  O   O12       1.0  0.8566602558155764  0.43474428569656715  0.8811090455265715  1.0000
  O   O13       1.0  0.710652685292004  0.5415349205109693  0.4052919390246146  1.0000
  O   O14       1.0  0.45846341264681456  0.2893480458264079  0.09470930748960173  1.0000
  O   O15       1.0  0.2893479082162216  0.4584635070629873  0.5947097199001804  1.0000
  O   O16       1.0  0.5415356516467397  0.7106529884233339  0.9052901608251961  1.0000
  O   O17       1.0  0.6004592906905158  0.39954111195739744  0.749999784059753  1.0000
  O   O18       1.0  0.39953987994776685  0.6004586125652769  0.24999993848038563  1.0000
  O   O19       1.0  0.2615294314167682  0.7384702495296838  0.7500000777388109  1.0000
  O   O20       1.0  0.7384709438415057  0.26153079193712614  0.250000093591254  1.0000
