data_image0
_chemical_formula_structural       Hg4H56C40S8I8
_chemical_formula_sum              "Hg4 H56 C40 S8 I8"
_cell_length_a       4.541722592
_cell_length_b       18.17713455474474
_cell_length_c       18.2534
_cell_angle_alpha    95.89618541978125
_cell_angle_beta     90.0
_cell_angle_gamma    90.0

_space_group_name_H-M_alt    "P 1"
_space_group_IT_number       1

loop_
  _space_group_symop_operation_xyz
  'x, y, z'

loop_
  _atom_site_type_symbol
  _atom_site_label
  _atom_site_symmetry_multiplicity
  _atom_site_fract_x
  _atom_site_fract_y
  _atom_site_fract_z
  _atom_site_occupancy
  Hg  Hg1       1.0  0.7049990251804417  0.7500000840939336  0.25000288477905735  1.0000
  Hg  Hg2       1.0  0.2950026059187394  0.2500020559459628  0.7499978819839725  1.0000
  Hg  Hg3       1.0  0.3364516368066219  0.7499995310262975  0.7499995411429907  1.0000
  Hg  Hg4       1.0  0.6635499942925591  0.2499987375401673  0.2499997338932261  1.0000
  H   H1        1.0  0.5766380369891166  0.8759977399413259  0.3873647813481469  1.0000
  H   H2        1.0  0.5766402387968625  0.6240024282465413  0.11263386624913346  1.0000
  H   H3        1.0  0.4233613923023185  0.1239999755575099  0.6126322457382897  1.0000
  H   H4        1.0  0.4233569886868125  0.3759963933875596  0.8873682045800138  1.0000
  H   H5        1.0  0.8520775810518728  0.8208712767037483  0.42446548636695514  1.0000
  H   H6        1.0  0.852068773820875  0.6791311037546564  0.07553283969605219  1.0000
  H   H7        1.0  0.1479306554705602  0.1791286510656249  0.5755328627146311  1.0000
  H   H8        1.0  0.1479130410085574  0.3208710362852472  0.9244695705964004  1.0000
  H   H9        1.0  0.2294900181345128  0.877136506197381  0.5086389759676138  1.0000
  H   H10       1.0  0.22949882536551058  0.6228636619904862  0.991358575943387  1.0000
  H   H11       1.0  0.7705006039259246  0.122863421571985  0.49135827742769317  1.0000
  H   H12       1.0  0.7705028057336705  0.3771390311170464  0.008640603867441107  1.0000
  H   H13       1.0  0.6076703154132232  0.015458240338411101  0.4079697321286275  1.0000
  H   H14       1.0  0.6076703154132232  0.4845436592829913  0.0920301882755723  1.0000
  H   H15       1.0  0.3923269120704589  0.9845411343633259  0.5920291082188882  1.0000
  H   H16       1.0  0.39232250845496  0.5154579276892761  0.9079705219102365  1.0000
  H   H17       1.0  0.9695528317287411  0.9916569025276871  0.2954140699476753  1.0000
  H   H18       1.0  0.9695506299209952  0.5083460309983394  0.20458321700627377  1.0000
  H   H19       1.0  0.0304510011781858  0.0083457905798383  0.7045862055494323  1.0000
  H   H20       1.0  0.0304510011781858  0.49165610904155704  0.7954186454430427  1.0000
  H   H21       1.0  0.6341558608342268  0.9413592727925959  0.2720414788098324  1.0000
  H   H22       1.0  0.6341514572187208  0.5586420015305364  0.2279572819418831  1.0000
  H   H23       1.0  0.3658501738804603  0.0586412080443992  0.7279596660646845  1.0000
  H   H24       1.0  0.3658457702649542  0.4413595854417309  0.772046167459642  1.0000
  H   H25       1.0  0.9458900038428409  0.9297111153769535  0.21202031810018698  1.0000
  H   H26       1.0  0.945887802035095  0.5702901589461788  0.2879778948083853  1.0000
  H   H27       1.0  0.054109425448587  0.0702921307982081  0.7879794661309987  1.0000
  H   H28       1.0  0.0541138290640859  0.4297119810937247  0.7120250633272107  1.0000
  H   H29       1.0  0.4433780265547327  0.609425777714911  0.621915504615785  1.0000
  H   H30       1.0  0.44338463197797745  0.890573284337691  0.87808302982706  1.0000
  H   H31       1.0  0.5566169991212035  0.3905702785810305  0.3780824484252818  1.0000
  H   H32       1.0  0.5566236045444484  0.1094266434316751  0.12191586709766972  1.0000
  H   H33       1.0  0.1787163314266991  0.57087309223121  0.6788606067324778  1.0000
  H   H34       1.0  0.1787251386576969  0.9291265228890211  0.821139079973868  1.0000
  H   H35       1.0  0.821285299672482  0.4291268355381561  0.32114322078052737  1.0000
  H   H36       1.0  0.821283097864729  0.0708722987450798  0.1788597037964266  1.0000
  H   H37       1.0  0.7776586809201547  0.4899172644038501  0.6229128715912324  1.0000
  H   H38       1.0  0.7776630845356607  0.0100835290822872  0.8770885791879549  1.0000
  H   H39       1.0  0.22232973933252248  0.5100776857568263  0.3770898988836677  1.0000
  H   H40       1.0  0.22233854656352037  0.9899152925518139  0.12290910889605297  1.0000
  H   H41       1.0  0.4036001677488628  0.5892802891880251  0.48523975837883176  1.0000
  H   H42       1.0  0.4036089749798606  0.9107171136616828  0.014758058489213986  1.0000
  H   H43       1.0  0.5963882525038215  0.4107163201755455  0.5147631818277245  1.0000
  H   H44       1.0  0.5963992615425653  0.0892828141076834  0.9852402905923725  1.0000
  H   H45       1.0  0.0157495308335172  0.700033741870925  0.5127818381881326  1.0000
  H   H46       1.0  0.0157495308335172  0.7999658732493131  0.9872189442044929  1.0000
  H   H47       1.0  0.9842498984579108  0.299965632830812  0.4872170021593761  1.0000
  H   H48       1.0  0.9842653111121605  0.2000346075876891  0.012781652826887997  1.0000
  H   H49       1.0  0.3559002046596191  0.7294796157119663  0.5576942050264861  1.0000
  H   H50       1.0  0.3558980028518661  0.7705199994082648  0.9423049338367162  1.0000
  H   H51       1.0  0.6441014264395619  0.2705197589897637  0.4423046353210296  1.0000
  H   H52       1.0  0.6441102336705669  0.2294799283611013  0.05769505877429989  1.0000
  H   H53       1.0  0.030048070359995897  0.7846226709785356  0.5731744428346559  1.0000
  H   H54       1.0  0.0300458685522429  0.7153769441416955  0.9268246960285467  1.0000
  H   H55       1.0  0.9699557625469312  0.2153755975879292  0.42682592788784746  1.0000
  H   H56       1.0  0.9699711752011809  0.2846235366952996  0.073175901002827  1.0000
  C   C1        1.0  0.8113067069508944  0.8734038527432162  0.4013680088154458  1.0000
  C   C2        1.0  0.8113001015276424  0.6265985277151813  0.09862757803185929  1.0000
  C   C3        1.0  0.1886927223405337  0.1265960750261499  0.598627053207295  1.0000
  C   C4        1.0  0.1886905205327878  0.3734030592570861  0.9013725843108135  1.0000
  C   C5        1.0  0.9086508293723625  0.9386193757394139  0.4520322680561931  1.0000
  C   C6        1.0  0.9086442239491178  0.5613824516513475  0.047965453586456895  1.0000
  C   C7        1.0  0.0913485999190655  0.06138055202995219  0.5479649853391136  1.0000
  C   C8        1.0  0.0913441963035666  0.4386191353209128  0.952033065226793  1.0000
  C   C9        1.0  0.1272975150482267  0.9309875954735959  0.5048974551261693  1.0000
  C   C10       1.0  0.1272931114327278  0.5690147849848017  0.9951003230937019  1.0000
  C   C11       1.0  0.8727041160509543  0.0690145445663006  0.49510057242115824  1.0000
  C   C12       1.0  0.8726953088199565  0.430989014257996  0.004897874185274999  1.0000
  C   C13       1.0  0.7819279861468047  0.0083767623672841  0.44774845656510814  1.0000
  C   C14       1.0  0.7819345915700495  0.49162513725411827  0.05224762893710278  1.0000
  C   C15       1.0  0.2180538286826277  0.9916248246049834  0.5522478708755685  1.0000
  C   C16       1.0  0.2180692413368774  0.5083775558534143  0.9477493595011593  1.0000
  C   C17       1.0  0.8753484871583268  0.9396995168263872  0.26964744742264196  1.0000
  C   C18       1.0  0.8753484871583268  0.5603023105643743  0.23035082206315138  1.0000
  C   C19       1.0  0.1246553457486002  0.06030262321350931  0.7303527714972518  1.0000
  C   C20       1.0  0.1246531439408542  0.4396987233402569  0.7696509272317228  1.0000
  C   C21       1.0  0.2094667784588466  0.5953607147436699  0.6268541313848033  1.0000
  C   C22       1.0  0.2094755856898445  0.9046389003765613  0.8731439117921126  1.0000
  C   C23       1.0  0.7905238436015836  0.4046375538227949  0.3731467871808363  1.0000
  C   C24       1.0  0.7905326508325885  0.0953599212575398  0.1268543241350386  1.0000
  C   C25       1.0  0.1013624215646516  0.5460846009264699  0.5617675278453333  1.0000
  C   C26       1.0  0.1013690269878964  0.9539128019232308  0.9382335760815648  1.0000
  C   C27       1.0  0.8986326041112845  0.4539103492341994  0.4382352426295667  1.0000
  C   C28       1.0  0.8986392095345295  0.0460860197108701  0.0617663033750162  1.0000
  C   C29       1.0  0.8768897525831107  0.4944728824957068  0.56909147771362  1.0000
  C   C30       1.0  0.8768963580063556  0.0055256987198931  0.9309130338155498  1.0000
  C   C31       1.0  0.1230964658618205  0.5055242799354929  0.4309148061290031  1.0000
  C   C32       1.0  0.12310747490057139  0.9944714637113065  0.06908558022309559  1.0000
  C   C33       1.0  0.2235429354026053  0.5508431948395938  0.4919052325828659  1.0000
  C   C34       1.0  0.22354954082585013  0.9491525488072129  0.00809351023980299  1.0000
  C   C35       1.0  0.776447686657832  0.4491512022534465  0.5080985770010926  1.0000
  C   C36       1.0  0.7764498884655779  0.0508462728268881  0.9919052735304914  1.0000
  C   C37       1.0  0.11549362370215019  0.7280405337312672  0.5628254597729949  1.0000
  C   C38       1.0  0.11549362370215019  0.7719596344566  0.9371742835105648  1.0000
  C   C39       1.0  0.8845080073970308  0.2719582879028337  0.437173871840443  1.0000
  C   C40       1.0  0.8845168146280288  0.2280408463804022  0.06282576567766539  1.0000
  S   S1        1.0  0.0157847597575156  0.8629060760039238  0.3142931524285827  1.0000
  S   S2        1.0  0.0157781543342637  0.6370963044544737  0.18570407794814509  1.0000
  S   S3        1.0  0.9842256785726632  0.1370949579007075  0.6857042141211664  1.0000
  S   S4        1.0  0.9842168713416654  0.3629041763825285  0.8142959712400851  1.0000
  S   S5        1.0  0.0048439770493118  0.6826652059286218  0.6416300666765835  1.0000
  S   S6        1.0  0.0048461788570648  0.8173344091916093  0.858369072186619  1.0000
  S   S7        1.0  0.9951554522421163  0.3173341687731153  0.3583698693572117  1.0000
  S   S8        1.0  0.995162057665368  0.1826649655101207  0.1416297681608967  1.0000
  I   I1        1.0  0.4094305546700383  0.6914860816050918  0.3642516580800716  1.0000
  I   I2        1.0  0.4094129402080426  0.8085174049885779  0.1357560944707856  1.0000
  I   I3        1.0  0.5905732782368958  0.3085155053671755  0.6357495999488874  1.0000
  I   I4        1.0  0.5905864890833925  0.1914880534571211  0.8642466552849796  1.0000
  I   I5        1.0  0.6209626287980896  0.865268227863865  0.6884711562691521  1.0000
  I   I6        1.0  0.6209626287980896  0.6347319403240022  0.8115296827006944  1.0000
  I   I7        1.0  0.3790345986855925  0.134731699905501  0.3115277406555776  1.0000
  I   I8        1.0  0.3790368004933384  0.3652668813100988  0.1884718402853096  1.0000
