data_image0
_chemical_formula_structural       Cu4H16C16N16
_chemical_formula_sum              "Cu4 H16 C16 N16"
_cell_length_a       5.930065725620031
_cell_length_b       7.753067478662649
_cell_length_c       12.81826381124833
_cell_angle_alpha    90.00042301777022
_cell_angle_beta     89.99940135206744
_cell_angle_gamma    104.24035896279314

_space_group_name_H-M_alt    "P 1"
_space_group_IT_number       1

loop_
  _space_group_symop_operation_xyz
  'x, y, z'

loop_
  _atom_site_type_symbol
  _atom_site_label
  _atom_site_symmetry_multiplicity
  _atom_site_fract_x
  _atom_site_fract_y
  _atom_site_fract_z
  _atom_site_occupancy
  Cu  Cu1       1.0  0.9654269340830979  0.5006527273965986  0.3470788984944164  1.0000
  Cu  Cu2       1.0  0.5345816590832512  0.999343405178358  0.8470800622544842  1.0000
  Cu  Cu3       1.0  0.03457758367390796  0.49934366122491275  0.6529241635246092  1.0000
  Cu  Cu4       1.0  0.46541859005361624  0.0006609263534826994  0.15292377992921755  1.0000
  H   H1        1.0  0.5605899636370137  0.7126544814021614  0.35963968191722967  1.0000
  H   H2        1.0  0.9394166209493945  0.7873470433391245  0.8596420259498597  1.0000
  H   H3        1.0  0.43942801110999596  0.28735261411778606  0.6403657205090809  1.0000
  H   H4        1.0  0.06056172332150567  0.21264652996766384  0.14036025598123555  1.0000
  H   H5        1.0  0.7092044274862344  0.7862783219373384  0.6805808206880996  1.0000
  H   H6        1.0  0.7908011516633946  0.7137325130955786  0.18057594394358734  1.0000
  H   H7        1.0  0.2908029948194368  0.2137273813422453  0.3194292625784527  1.0000
  H   H8        1.0  0.20919450324363698  0.2862624935458625  0.8194302386384036  1.0000
  H   H9        1.0  0.40807658513998024  0.9335082812305443  0.6096299211646039  1.0000
  H   H10       1.0  0.09191880415905725  0.5664915708090774  0.10962831392563997  1.0000
  H   H11       1.0  0.5919401150166335  0.0665001346741718  0.3903723607201144  1.0000
  H   H12       1.0  0.9080582952885834  0.43349801050658937  0.8903724077249604  1.0000
  H   H13       1.0  0.27523409534451543  0.8500372128173976  0.48846851156884696  1.0000
  H   H14       1.0  0.22476401320658096  0.6499587838706232  0.9884640968226319  1.0000
  H   H15       1.0  0.7247889481586113  0.1499699134890093  0.5115337702993584  1.0000
  H   H16       1.0  0.7752084324948852  0.3500320973008542  0.011534284430361197  1.0000
  C   C1        1.0  0.6388017069327958  0.7029325102888322  0.435264399235109  1.0000
  C   C2        1.0  0.8612166829313778  0.7970643262976083  0.9352546390630392  1.0000
  C   C3        1.0  0.3612154082786603  0.29707723624417076  0.56472852100962  1.0000
  C   C4        1.0  0.13876249131449467  0.20293190830769697  0.06474062164089389  1.0000
  C   C5        1.0  0.7148108412755504  0.7403703833749873  0.6008928412942537  1.0000
  C   C6        1.0  0.7851873543078722  0.7596265430211203  0.10090224765814067  1.0000
  C   C7        1.0  0.2851873332247548  0.2596272948168731  0.3991024193727525  1.0000
  C   C8        1.0  0.21481040520943395  0.24036980452008555  0.8990961335540175  1.0000
  C   C9        1.0  0.4406166565618078  0.9124514589391308  0.5269438773548883  1.0000
  C   C10       1.0  0.05938105151808053  0.5875491309929614  0.026940947475090096  1.0000
  C   C11       1.0  0.5594021481242493  0.08755829789051718  0.4730576243916714  1.0000
  C   C12       1.0  0.940597352367945  0.41243381753686487  0.9730574337465112  1.0000
  C   C13       1.0  0.7834861862227099  0.33856431863021197  0.25482771898005296  1.0000
  C   C14       1.0  0.7165069565355677  0.16142217879513507  0.7548382160564485  1.0000
  C   C15       1.0  0.21652627506294653  0.6614467278145284  0.7451784636041481  1.0000
  C   C16       1.0  0.2834921370974539  0.8385622236123069  0.24516718635634754  1.0000
  N   N1        1.0  0.7857304736252428  0.6058191888968094  0.4595346955842741  1.0000
  N   N2        1.0  0.7142746110489496  0.8941910256742176  0.9595345995928993  1.0000
  N   N3        1.0  0.21428925039112554  0.39417729208689417  0.540459784897294  1.0000
  N   N4        1.0  0.28571040224102956  0.10581852581540119  0.04046066113009059  1.0000
  N   N5        1.0  0.8333432522818072  0.6288386697547496  0.5651971644763875  1.0000
  N   N6        1.0  0.6666548758231837  0.8711659641507056  0.06519745922896188  1.0000
  N   N7        1.0  0.16664647432457252  0.37115895711609426  0.4348004366189925  1.0000
  N   N8        1.0  0.3333538212435342  0.1288384186909681  0.9348009219789545  1.0000
  N   N9        1.0  0.5905730192662872  0.78952143448074  0.5217850037668653  1.0000
  N   N10       1.0  0.9094366607793058  0.7104842804653514  0.0217850689157046  1.0000
  N   N11       1.0  0.40944202113796985  0.210481658765417  0.4782141575613962  1.0000
  N   N12       1.0  0.09055179121870789  0.2895146667958528  0.9782109719117924  1.0000
  N   N13       1.0  0.6727240750484498  0.22122328200715194  0.20348296996224483  1.0000
  N   N14       1.0  0.8272793788658744  0.2787921218565971  0.7034826291460944  1.0000
  N   N15       1.0  0.32725930823835353  0.778775634453609  0.7965122907390876  1.0000
  N   N16       1.0  0.1727268285184208  0.7212042770140243  0.2965157520482505  1.0000
