data_image0
_chemical_formula_structural       Zn2H32C36Br4N12
_chemical_formula_sum              "Zn2 H32 C36 Br4 N12"
_cell_length_a       6.100594404225568
_cell_length_b       12.29783396780227
_cell_length_c       13.332303341474615
_cell_angle_alpha    93.87656780837449
_cell_angle_beta     103.21707899198907
_cell_angle_gamma    89.98484325702663

_space_group_name_H-M_alt    "P 1"
_space_group_IT_number       1

loop_
  _space_group_symop_operation_xyz
  'x, y, z'

loop_
  _atom_site_type_symbol
  _atom_site_label
  _atom_site_symmetry_multiplicity
  _atom_site_fract_x
  _atom_site_fract_y
  _atom_site_fract_z
  _atom_site_occupancy
  Zn  Zn1       1.0  0.5704182134603001  0.7499984525045703  4.020557992127574e-05  1.0000
  Zn  Zn2       1.0  0.42956943001536974  0.24999950417301875  0.9999625733635252  1.0000
  H   H1        1.0  0.5298950295679957  0.27743151601563903  0.44545337240920435  1.0000
  H   H2        1.0  0.08394347839378472  0.22262530046186407  0.5542749273118586  1.0000
  H   H3        1.0  0.47009614725124726  0.7225753819764192  0.5545571241988936  1.0000
  H   H4        1.0  0.9160562591962034  0.7773767557377763  0.44572118222809803  1.0000
  H   H5        1.0  0.21437440008623546  0.527847972596028  0.9085100118288448  1.0000
  H   H6        1.0  0.30588268683457187  0.9720594496329935  0.09135839361282899  1.0000
  H   H7        1.0  0.7856234872485783  0.472153245640655  0.09149259283921644  1.0000
  H   H8        1.0  0.6941136773777996  0.02794017568149339  0.9086334403882572  1.0000
  H   H9        1.0  0.6316765957688233  0.5532923614595616  0.655819473514789  1.0000
  H   H10       1.0  0.9759743794004336  0.9466499409524617  0.34411909711187144  1.0000
  H   H11       1.0  0.3683348259764542  0.4467080518685763  0.3441800490622312  1.0000
  H   H12       1.0  0.02403024900297621  0.053349654778280395  0.6558811340506522  1.0000
  H   H13       1.0  0.4570107226667374  0.668134999705174  0.7752323652202263  1.0000
  H   H14       1.0  0.6818772384417429  0.8317956591564551  0.22475189399580126  1.0000
  H   H15       1.0  0.5429852655886336  0.33185807856568056  0.22476650209557641  1.0000
  H   H16       1.0  0.3181258388266812  0.16820558055960086  0.775244525282886  1.0000
  H   H17       1.0  0.0133949506694222  0.6391475681240948  0.0184242160857977  1.0000
  H   H18       1.0  0.995098527620179  0.860662032307566  0.9815387571288877  1.0000
  H   H19       1.0  0.9865908151442042  0.36084468346039233  0.9815779869169317  1.0000
  H   H20       1.0  0.004900997427753899  0.13933512537823126  0.018459260291230392  1.0000
  H   H21       1.0  0.7176341118798532  0.3053970494838367  0.6563027863860639  1.0000
  H   H22       1.0  0.06111096353267699  0.194379672781622  0.3434127422642631  1.0000
  H   H23       1.0  0.2823821112574123  0.6946000778028604  0.3437037946536775  1.0000
  H   H24       1.0  0.9388853235400345  0.8056199394563208  0.6565828329655685  1.0000
  H   H25       1.0  0.2043950062180926  0.5068192623115947  0.6917704265154895  1.0000
  H   H26       1.0  0.5124441878663858  0.9929152793647232  0.3081840596767974  1.0000
  H   H27       1.0  0.7956114998473678  0.49318603851224924  0.3082303805877585  1.0000
  H   H28       1.0  0.4875555528697573  0.007085966954214502  0.6918104972288075  1.0000
  H   H29       1.0  0.13034739444714918  0.389113653597903  0.7470332612760229  1.0000
  H   H30       1.0  0.38365087984707463  0.1106884225410383  0.25289007064154123  1.0000
  H   H31       1.0  0.8696708203371557  0.6108916293464688  0.2529725676414855  1.0000
  H   H32       1.0  0.6163439760651171  0.889317716504209  0.7471042742987845  1.0000
  C   C1        1.0  0.6648551865345594  0.3322215882597774  0.4866781984182324  1.0000
  C   C2        1.0  0.17780264507107543  0.16778790479830258  0.5131142504552313  1.0000
  C   C3        1.0  0.3351442642170213  0.6677787984876037  0.5133290225222706  1.0000
  C   C4        1.0  0.8222004353435038  0.832212525037043  0.4868806161891042  1.0000
  C   C5        1.0  0.9248959021534872  0.45783854957392117  0.5091197702537612  1.0000
  C   C6        1.0  0.4156841655735732  0.0421411787522956  0.4908132243023429  1.0000
  C   C7        1.0  0.07510352088838351  0.542161022062146  0.4908873945438969  1.0000
  C   C8        1.0  0.5843156305819973  0.9578616977892763  0.5091814448889591  1.0000
  C   C9        1.0  0.04609738982276921  0.5568533100568516  0.8753460772580152  1.0000
  C   C10       1.0  0.17080328508494347  0.9430248367377273  0.12457044103724256  1.0000
  C   C11       1.0  0.9538937504539717  0.44314709842835487  0.12465499125830347  1.0000
  C   C12       1.0  0.8291863934782525  0.05697804130533509  0.8754238787550858  1.0000
  C   C13       1.0  0.7252911696637481  0.5714957505129661  0.7350740594047023  1.0000
  C   C14       1.0  0.9902668007195103  0.9284355097807407  0.26483652226488624  1.0000
  C   C15       1.0  0.27470995879243526  0.42850220329086147  0.264929434819301  1.0000
  C   C16       1.0  0.009741263076094204  0.0715624752775597  0.7351579765275174  1.0000
  C   C17       1.0  0.6242173563627844  0.6345783646234152  0.8017117762710695  1.0000
  C   C18       1.0  0.8226689416257001  0.8652727479044132  0.19829796317360854  1.0000
  C   C19       1.0  0.3757804078514084  0.3654187806719804  0.19828979943701333  1.0000
  C   C20       1.0  0.1773306602590523  0.134728474876745  0.8017033279437482  1.0000
  C   C21       1.0  0.940515974327745  0.5307530501224774  0.7718836648151636  1.0000
  C   C22       1.0  0.168616925037874  0.9691795336054696  0.2280188013323538  1.0000
  C   C23       1.0  0.05948522497579489  0.4692465365193001  0.2281191934487835  1.0000
  C   C24       1.0  0.8313894242077849  0.030818446908348607  0.7719770110107687  1.0000
  C   C25       1.0  0.933409999467038  0.6192101560674956  0.9374639209714457  1.0000
  C   C26       1.0  0.9960931793480157  0.8805992145483043  0.06250211590776897  1.0000
  C   C27       1.0  0.0665775608795016  0.38078535527613866  0.06253868954345877  1.0000
  C   C28       1.0  0.003901399467068205  0.11939877338375028  0.9374916676040781  1.0000
  C   C29       1.0  0.7550998628355642  0.34444618049617054  0.5914210771593885  1.0000
  C   C30       1.0  0.1634181995108861  0.15547963177564839  0.408385711779779  1.0000
  C   C31       1.0  0.2449045867249708  0.6555517640894666  0.4085850276834363  1.0000
  C   C32       1.0  0.8365832186270196  0.84452323361856  0.5916121333353102  1.0000
  C   C33       1.0  0.06150353621200109  0.4605357273972358  0.7057607284984115  1.0000
  C   C34       1.0  0.355693439731425  0.0393155408209864  0.29415115230035827  1.0000
  C   C35       1.0  0.938504487289272  0.5394646820725555  0.29423992468854  1.0000
  C   C36       1.0  0.644311361222556  0.9606873258162665  0.7058463104505532  1.0000
  Br  Br1       1.0  0.44058045124115347  0.6470677242063516  0.12178640227386947  1.0000
  Br  Br2       1.0  0.3188055177728443  0.8530926550278648  0.8784603259943534  1.0000
  Br  Br3       1.0  0.5593857138677549  0.35294003580334277  0.8782109309247585  1.0000
  Br  Br4       1.0  0.6812178406612757  0.14691264154994596  0.12154156227101955  1.0000
  N   N1        1.0  0.7705697479297412  0.40203090931799307  0.4361147318064552  1.0000
  N   N2        1.0  0.3341681329585739  0.09804206895715589  0.5637326971606668  1.0000
  N   N3        1.0  0.22942811453867756  0.5979727359454897  0.5638932790104008  1.0000
  N   N4        1.0  0.6658350582948529  0.9019616213234656  0.43626239405506323  1.0000
  N   N5        1.0  0.9214997136444225  0.4238393680764788  0.605470262903381  1.0000
  N   N6        1.0  0.31591342952155793  0.07605859419788169  0.3944140040082899  1.0000
  N   N7        1.0  0.0785081064504141  0.5761577652561839  0.3945346551866748  1.0000
  N   N8        1.0  0.6840896723104208  0.9239442705101908  0.6055840240475872  1.0000
  N   N9        1.0  0.7256002358783531  0.6579646594655486  0.9018976632460888  1.0000
  N   N10       1.0  0.8238701196542806  0.8418616677153209  0.09809276223623437  1.0000
  N   N11       1.0  0.27439072585835333  0.34203004585572927  0.09810226402454697  1.0000
  N   N12       1.0  0.17612612113462933  0.1581379366767024  0.9019050577308502  1.0000
