data_image0
_chemical_formula_structural       Zn2As2H32C36N6O10
_chemical_formula_sum              "Zn2 As2 H32 C36 N6 O10"
_cell_length_a       8.367488870415057
_cell_length_b       9.582308401008127
_cell_length_c       11.384660447280078
_cell_angle_alpha    90.00009693172964
_cell_angle_beta     110.65601857774801
_cell_angle_gamma    89.99986285261852

_space_group_name_H-M_alt    "P 1"
_space_group_IT_number       1

loop_
  _space_group_symop_operation_xyz
  'x, y, z'

loop_
  _atom_site_type_symbol
  _atom_site_label
  _atom_site_symmetry_multiplicity
  _atom_site_fract_x
  _atom_site_fract_y
  _atom_site_fract_z
  _atom_site_occupancy
  Zn  Zn1       1.0  0.012084847941473206  0.6018513706268039  0.5808408618487845  1.0000
  Zn  Zn2       1.0  0.987916874733131  0.10185586773300058  0.41915878012873975  1.0000
  As  As1       1.0  0.13699919513495473  0.783321941087671  0.3924426942852363  1.0000
  As  As2       1.0  0.8629982336536842  0.28331976509608137  0.6075569211074239  1.0000
  H   H1        1.0  0.3037636024394956  0.9678618274231068  0.3649605257456514  1.0000
  H   H2        1.0  0.6962358849923973  0.4678600473383411  0.6350416782181297  1.0000
  H   H3        1.0  0.28478576917139986  0.5345487700872268  0.4134592240897206  1.0000
  H   H4        1.0  0.7152121607352631  0.034544767069121504  0.5865436779010339  1.0000
  H   H5        1.0  0.8711320763773786  0.8337430363921925  0.1498753401750577  1.0000
  H   H6        1.0  0.12886265187428592  0.3337418027393184  0.8501244912330179  1.0000
  H   H7        1.0  0.7545132001536888  0.7026492350351887  0.9458180468049803  1.0000
  H   H8        1.0  0.24548314643509173  0.20265034613074565  0.0541811554065035  1.0000
  H   H9        1.0  0.8841997623533686  0.47512666144365306  0.9251525857941516  1.0000
  H   H10       1.0  0.11580353842984441  0.9751272022859467  0.0748506685765591  1.0000
  H   H11       1.0  0.11818268526710801  0.3753938675314643  0.10109085590708838  1.0000
  H   H12       1.0  0.8818195793407997  0.8753913587877096  0.8989119699231125  1.0000
  H   H13       1.0  0.4709567896018855  0.3580076001191301  0.40172646433583026  1.0000
  H   H14       1.0  0.5290429879310707  0.8580020808882269  0.5982747793574816  1.0000
  H   H15       1.0  0.38306084981233823  0.35562605314247975  0.23690809679102642  1.0000
  H   H16       1.0  0.6169402601829715  0.8556217272750642  0.7630917496500585  1.0000
  H   H17       1.0  0.04369106037155032  0.72115166505192  0.8442701830609279  1.0000
  H   H18       1.0  0.9563130028281466  0.22115674374412464  0.15572763612877355  1.0000
  H   H19       1.0  0.23807767266238503  0.711968140492189  0.06536766857229279  1.0000
  H   H20       1.0  0.7619199532573123  0.21197726091930494  0.9346310175758603  1.0000
  H   H21       1.0  0.5921002333573712  0.4830165127114371  0.9383786203497166  1.0000
  H   H22       1.0  0.40789806488723473  0.9830216478352156  0.061618888847533526  1.0000
  H   H23       1.0  0.3865825978790626  0.5127233339622067  0.7201271557029543  1.0000
  H   H24       1.0  0.6134219934091976  0.012725187544234  0.279869623794987  1.0000
  H   H25       1.0  0.4674589202551048  0.7789477412768093  0.21553605507038756  1.0000
  H   H26       1.0  0.5325448790283858  0.27895703049260595  0.7844661694827761  1.0000
  H   H27       1.0  0.678739826630043  0.3952058801454258  0.13305256296647633  1.0000
  H   H28       1.0  0.3212586587407389  0.8952117587512944  0.8669457472408054  1.0000
  H   H29       1.0  0.6927947648831819  0.7739478816970051  0.42548954667771  1.0000
  H   H30       1.0  0.3072091459766781  0.27395199396360687  0.5745091868087471  1.0000
  H   H31       1.0  0.8940491391540776  0.4046534950576657  0.34905934781933473  1.0000
  H   H32       1.0  0.10595322892510951  0.9046593820603731  0.6509373992754561  1.0000
  C   C1        1.0  0.060853974618901005  0.6786811078428415  0.2377748960318158  1.0000
  C   C2        1.0  0.939143657055162  0.17867908536259594  0.7622263785695367  1.0000
  C   C3        1.0  0.9263942925948715  0.7341531859453241  0.1374256912449639  1.0000
  C   C4        1.0  0.07360453186799285  0.23415000298590632  0.8625742327160849  1.0000
  C   C5        1.0  0.8612873993619702  0.6616455584889637  0.024093183997649772  1.0000
  C   C6        1.0  0.1387115504031939  0.16164559974618703  0.9759084250631744  1.0000
  C   C7        1.0  0.9322383272346004  0.5322559852723929  0.01371526648171802  1.0000
  C   C8        1.0  0.06775965795319652  0.03225514875313001  0.9862858901449058  1.0000
  C   C9        1.0  0.06554107170556021  0.4757580587424215  0.11329832170696359  1.0000
  C   C10       1.0  0.9344584464116608  0.9757564615539209  0.8867021451008058  1.0000
  C   C11       1.0  0.13498022816785493  0.5469152789801938  0.22913692749466458  1.0000
  C   C12       1.0  0.8650189985936908  0.0469134253253642  0.7708645891268161  1.0000
  C   C13       1.0  0.3493286156828148  0.36287494763108447  0.32169773647526506  1.0000
  C   C14       1.0  0.6506685961635699  0.86287455765585  0.6783028147732894  1.0000
  C   C15       1.0  0.2497205725951163  0.23113749111999482  0.33088410117292  1.0000
  C   C16       1.0  0.7502807633250941  0.7311368791191484  0.6691182602459733  1.0000
  C   C17       1.0  0.16723486745012653  0.6703683929553395  0.8688466874976086  1.0000
  C   C18       1.0  0.8327654377113447  0.17037471870882834  0.1311517897417716  1.0000
  C   C19       1.0  0.27770520521753655  0.6652308110410843  0.9928631433180043  1.0000
  C   C20       1.0  0.7222938105033307  0.16524128910229766  0.007135853358505529  1.0000
  C   C21       1.0  0.4339555122887902  0.5951599266997719  0.02261244176263944  1.0000
  C   C22       1.0  0.5660436477347872  0.09516640232091331  0.9773873702149628  1.0000
  C   C23       1.0  0.47125359883638407  0.5359715009656226  0.9221966686349743  1.0000
  C   C24       1.0  0.5287470059250482  0.035978341664666395  0.0778025720796407  1.0000
  C   C25       1.0  0.35649684824521444  0.5509146595856934  0.8000652733105864  1.0000
  C   C26       1.0  0.6435050471553795  0.0509194226234584  0.19993258410906384  1.0000
  C   C27       1.0  0.5555536074983182  0.5885790550650686  0.1530805790928653  1.0000
  C   C28       1.0  0.44444556841099836  0.08858760566660348  0.846919227583342  1.0000
  C   C29       1.0  0.5586572522086187  0.6933252975666876  0.23972703633673126  1.0000
  C   C30       1.0  0.4413416956873208  0.1933326377085152  0.7602719829743309  1.0000
  C   C31       1.0  0.6762171394743534  0.48122801389246933  0.1946691848185935  1.0000
  C   C32       1.0  0.3237836921406085  0.9812348077508593  0.8053298910658455  1.0000
  C   C33       1.0  0.6835851265930232  0.6907497088067559  0.35853907010988456  1.0000
  C   C34       1.0  0.3164151293654882  0.1907528924976987  0.6414594235495201  1.0000
  C   C35       1.0  0.796416377782336  0.48520722013763173  0.3156656405212033  1.0000
  C   C36       1.0  0.2035844939737999  0.9852150614595206  0.6843316950515969  1.0000
  N   N1        1.0  0.2690925817226031  0.4945896432599994  0.3267580720178458  1.0000
  N   N2        1.0  0.7309042623748425  0.9945890791201678  0.6732443288717178  1.0000
  N   N3        1.0  0.20494685271755494  0.615471257261163  0.7733020496285191  1.0000
  N   N4        1.0  0.7950561886657256  0.11547367676060824  0.22669533622882204  1.0000
  N   N5        1.0  0.8019657250713836  0.5893168646160589  0.3966086514256446  1.0000
  N   N6        1.0  0.19803610248968792  0.0893212578299796  0.6033883651755829  1.0000
  O   O1        1.0  0.19466796193244562  0.6678884413941831  0.5147076274206979  1.0000
  O   O2        1.0  0.8053284437089377  0.16788613889378473  0.485292418541576  1.0000
  O   O3        1.0  0.9805557368831617  0.8967707752778794  0.3903988864917525  1.0000
  O   O4        1.0  0.019445199149814105  0.3967682409284023  0.609603608377661  1.0000
  O   O5        1.0  0.3285724498114818  0.8705491733740233  0.4046983932417021  1.0000
  O   O6        1.0  0.671427297436523  0.37054840816211504  0.5953028605583056  1.0000
  O   O7        1.0  0.1242399092397122  0.24964572356777376  0.3686856688403779  1.0000
  O   O8        1.0  0.8757601299040092  0.7496468666197201  0.6313154875480862  1.0000
  O   O9        1.0  0.30180855334382534  0.11617137620614673  0.30389355879204777  1.0000
  O   O10       1.0  0.6981994200902124  0.6161688374772609  0.6961113226776803  1.0000
