data_image0
_chemical_formula_structural       H36Pb2C44S4N4O16
_chemical_formula_sum              "H36 Pb2 C44 S4 N4 O16"
_cell_length_a       7.297414784721654
_cell_length_b       12.535562726538878
_cell_length_c       13.249
_cell_angle_alpha    96.87673709591368
_cell_angle_beta     97.12859361066026
_cell_angle_gamma    95.46670233622145

_space_group_name_H-M_alt    "P 1"
_space_group_IT_number       1

loop_
  _space_group_symop_operation_xyz
  'x, y, z'

loop_
  _atom_site_type_symbol
  _atom_site_label
  _atom_site_symmetry_multiplicity
  _atom_site_fract_x
  _atom_site_fract_y
  _atom_site_fract_z
  _atom_site_occupancy
  H   H1        1.0  0.4976028258024528  0.2885874948274321  0.7186354655910347  1.0000
  H   H2        1.0  0.5024204281504014  0.7114282076953274  0.2813690348858557  1.0000
  H   H3        1.0  0.5479070767042488  0.2548503458385341  0.6069589372508587  1.0000
  H   H4        1.0  0.4521087888891486  0.7451556537365676  0.3930424494640333  1.0000
  H   H5        1.0  0.9094829339891817  0.2639452421051232  0.6109885602694121  1.0000
  H   H6        1.0  0.0905229365533557  0.7360518631013022  0.38900811656602485  1.0000
  H   H7        1.0  0.07449582055350852  0.2471995716142814  0.6957982904882626  1.0000
  H   H8        1.0  0.9255138823483904  0.7527959164342022  0.30420223896143733  1.0000
  H   H9        1.0  0.7126667925201744  0.102171230205343  0.37177841511483917  1.0000
  H   H10       1.0  0.2873502815653454  0.8978266835800497  0.6282153452273462  1.0000
  H   H11       1.0  0.6925316250893376  0.9965663046321751  0.19692373124900797  1.0000
  H   H12       1.0  0.3074602798633351  0.0034299919952758  0.8030726541946932  1.0000
  H   H13       1.0  0.6668791306349107  0.0893706165143513  0.043904806171099195  1.0000
  H   H14       1.0  0.3331109272279066  0.9106232543761905  0.9560866495754039  1.0000
  H   H15       1.0  0.6324674370121244  0.4569732569736473  0.9819365910284572  1.0000
  H   H16       1.0  0.3675490328273342  0.5430286997066105  0.018072681496235487  1.0000
  H   H17       1.0  0.6356633915668652  0.5618233093101423  0.1550052601777452  1.0000
  H   H18       1.0  0.36434952227249795  0.43816732726451596  0.845009279842877  1.0000
  H   H19       1.0  0.6605450986508858  0.4695523200265725  0.3086108307690552  1.0000
  H   H20       1.0  0.3394768781064812  0.5304423594429437  0.6914062962652849  1.0000
  H   H21       1.0  0.14992825196114987  0.5318994187488073  0.31279164998376524  1.0000
  H   H22       1.0  0.8500886839447336  0.4681049636683525  0.6872028337209455  1.0000
  H   H23       1.0  0.11755356882908073  0.5237877545110408  0.12357411902832639  1.0000
  H   H24       1.0  0.8824587579400645  0.47621420216921007  0.8764205296075926  1.0000
  H   H25       1.0  0.11988156228539992  0.3430048595803968  0.015281095061681104  1.0000
  H   H26       1.0  0.8801192502298038  0.6569946713629449  0.9847124917584793  1.0000
  H   H27       1.0  0.1545853166562665  0.1480354466023428  0.007924446135781709  1.0000
  H   H28       1.0  0.8454084525621186  0.8519705529727659  0.9920716563957155  1.0000
  H   H29       1.0  0.18900330685200126  0.9857256863670544  0.09918362246769158  1.0000
  H   H30       1.0  0.8109637568546263  0.0142778874711453  0.900809625133462  1.0000
  H   H31       1.0  0.22179496733751597  0.90615989845589  0.2583535943758548  1.0000
  H   H32       1.0  0.7781794675527325  0.09384610111921891  0.7416442057269704  1.0000
  H   H33       1.0  0.24937458208091107  0.9301342649480944  0.4525968981207882  1.0000
  H   H34       1.0  0.7505944668952154  0.0698652659952401  0.5473990462671523  1.0000
  H   H35       1.0  0.24261489370450565  0.1161450919833626  0.545466379457018  1.0000
  H   H36       1.0  0.7573400343262834  0.8838528218020301  0.45452992609349246  1.0000
  Pb  Pb1       1.0  0.23545721773631106  0.3751014018369929  0.5140620025347502  1.0000
  Pb  Pb2       1.0  0.7645431115366251  0.6248884261586909  0.4859568691324084  1.0000
  C   C1        1.0  0.6925903600577075  0.2533787321111873  0.314045073711263  1.0000
  C   C2        1.0  0.3074333084340495  0.7466175645162636  0.6859587662259512  1.0000
  C   C3        1.0  0.7011580631993439  0.143044897192901  0.30366205768028454  1.0000
  C   C4        1.0  0.2988622218236402  0.8569481651186734  0.6963336368497008  1.0000
  C   C5        1.0  0.6926053303368747  0.0840542097795662  0.20553569953638365  1.0000
  C   C6        1.0  0.3073949989360686  0.9159356182161176  0.7944620384603097  1.0000
  C   C7        1.0  0.6767622294561733  0.1360652435146292  0.11941505996757938  1.0000
  C   C8        1.0  0.3232345781683535  0.8639278187969381  0.8805918610112045  1.0000
  C   C9        1.0  0.667964843506937  0.2494013321525017  0.1267063842006877  1.0000
  C   C10       1.0  0.3320431848364153  0.7505998159487817  0.8732924076754569  1.0000
  C   C11       1.0  0.6506124180659185  0.3060851437613721  0.0388631007200502  1.0000
  C   C12       1.0  0.3494011343711848  0.6939160043399114  0.9611360687345041  1.0000
  C   C13       1.0  0.6442003028043218  0.416403615679215  0.0501736591513691  1.0000
  C   C14       1.0  0.3558140435860012  0.5836088525276608  0.9498442067842986  1.0000
  C   C15       1.0  0.648910388317866  0.4755131642012955  0.14799724413536808  1.0000
  C   C16       1.0  0.3511007299591499  0.5244968782686712  0.8520050308732647  1.0000
  C   C17       1.0  0.6627582015466019  0.423690529366489  0.2339756745557864  1.0000
  C   C18       1.0  0.337259166074027  0.576301724366111  0.7660182194174607  1.0000
  C   C19       1.0  0.6751459487170521  0.3108775913228996  0.2267580607678497  1.0000
  C   C20       1.0  0.32487433630592494  0.6891154709886678  0.7732512196931578  1.0000
  C   C21       1.0  0.15341340565909434  0.455080373602371  0.26510171817607636  1.0000
  C   C22       1.0  0.8465941737936692  0.5449256259727377  0.7348923092056907  1.0000
  C   C23       1.0  0.1332505775929604  0.4498626135020629  0.15762185952095817  1.0000
  C   C24       1.0  0.8667546887035161  0.5501385345992205  0.8423752340180853  1.0000
  C   C25       1.0  0.13685762178702995  0.35154668783077625  0.09894657555980758  1.0000
  C   C26       1.0  0.8631362856109919  0.6484528431125653  0.9010503131570644  1.0000
  C   C27       1.0  0.15964776135925265  0.2584598423653901  0.1477828326041219  1.0000
  C   C28       1.0  0.8403487699060079  0.7415461572097187  0.8522134587165906  1.0000
  C   C29       1.0  0.16527819468307572  0.1543730885775787  0.09128059882034728  1.0000
  C   C30       1.0  0.8347057348399219  0.845624825207814  0.9087146699210604  1.0000
  C   C31       1.0  0.1843655322547804  0.0657843679282593  0.1406843076369171  1.0000
  C   C32       1.0  0.8156047423893116  0.9342143544361079  0.8593078550562652  1.0000
  C   C33       1.0  0.1985476690107717  0.0750587687264215  0.2501675408397332  1.0000
  C   C34       1.0  0.8014342752427269  0.9249431879538292  0.7498288049846166  1.0000
  C   C35       1.0  0.21790080295031095  0.9847028339686474  0.3033253621577714  1.0000
  C   C36       1.0  0.7820641201313452  0.0153039741854286  0.6966665959848511  1.0000
  C   C37       1.0  0.23233090688339794  0.9979416974619681  0.40931587412495657  1.0000
  C   C38       1.0  0.7676330668895589  0.0020529820075481  0.5906769094394874  1.0000
  C   C39       1.0  0.22753380919326102  0.10151628123878  0.46179711952585467  1.0000
  C   C40       1.0  0.7724332373375236  0.898480015388678  0.5381983215889221  1.0000
  C   C41       1.0  0.1953305774516139  0.17742405788482782  0.309162165611184  1.0000
  C   C42       1.0  0.8046558034073145  0.8225722387426303  0.6908330874801576  1.0000
  C   C43       1.0  0.17666383747737774  0.2712135584760631  0.2568651737931518  1.0000
  C   C44       1.0  0.8233311574089657  0.7287916325200712  0.7431279018175373  1.0000
  S   S1        1.0  0.7104966566324864  0.3228558802003221  0.44044676511929737  1.0000
  S   S2        1.0  0.2895061239763805  0.6771323306374201  0.5595554858709946  1.0000
  S   S3        1.0  0.6371396235857247  0.23639453082387973  0.9105400957939762  1.0000
  S   S4        1.0  0.36287011366785293  0.7636155116460799  0.08946887778555628  1.0000
  N   N1        1.0  0.17460237312285906  0.3689052611816876  0.3132046391221905  1.0000
  N   N2        1.0  0.825405361685384  0.6311015469723884  0.6868023216362856  1.0000
  N   N3        1.0  0.20962780461835  0.18819594693741243  0.41348816801887267  1.0000
  N   N4        1.0  0.7903573849242919  0.8118157126904961  0.5865147822533955  1.0000
  O   O1        1.0  0.5516687349941805  0.3869826612378874  0.4452341170738521  1.0000
  O   O2        1.0  0.44833081750137893  0.6130031238629456  0.5547653741464699  1.0000
  O   O3        1.0  0.7109370221561947  0.2397566021855866  0.5110017193846872  1.0000
  O   O4        1.0  0.2890709890113143  0.7602372687049552  0.4890037946487382  1.0000
  O   O5        1.0  0.8841580482336014  0.39735996375258514  0.45934408306323593  1.0000
  O   O6        1.0  0.11584506026205332  0.6026371414538403  0.5406659909140074  1.0000
  O   O7        1.0  0.48349061231291307  0.1499800790277632  0.8992091060583076  1.0000
  O   O8        1.0  0.5165042443938007  0.8500315806001454  0.10078846678462841  1.0000
  O   O9        1.0  0.6004556063792565  0.3197881315840831  0.8422449385343357  1.0000
  O   O10       1.0  0.3995703924446374  0.6802202937279347  0.15775892514960074  1.0000
  O   O11       1.0  0.8206680776881755  0.198601549716102  0.9046442542945596  1.0000
  O   O12       1.0  0.1793385696317387  0.8013995983851815  0.09535670750881312  1.0000
  O   O13       1.0  0.44335494803498693  0.2697775222234498  0.6446186706202041  1.0000
  O   O14       1.0  0.5566678226755999  0.7302284773516591  0.35538922625926966  1.0000
  O   O15       1.0  0.029387891263674207  0.2971212372880956  0.65015257092557  1.0000
  O   O16       1.0  0.9706210520366841  0.7028774850762716  0.34984676346019933  1.0000
