data_image0
_chemical_formula_structural       Li4H20C20N8O20
_chemical_formula_sum              "Li4 H20 C20 N8 O20"
_cell_length_a       3.5012792002822586
_cell_length_b       10.304144522371399
_cell_length_c       17.936795730296105
_cell_angle_alpha    90.00032120369185
_cell_angle_beta     89.99943527516187
_cell_angle_gamma    89.37705052438525

_space_group_name_H-M_alt    "P 1"
_space_group_IT_number       1

loop_
  _space_group_symop_operation_xyz
  'x, y, z'

loop_
  _atom_site_type_symbol
  _atom_site_label
  _atom_site_symmetry_multiplicity
  _atom_site_fract_x
  _atom_site_fract_y
  _atom_site_fract_z
  _atom_site_occupancy
  Li  Li1       1.0  0.468072123333208  0.13254154746075392  0.5333798840148276  1.0000
  Li  Li2       1.0  0.031935694038871504  0.3674580644227703  0.033382794943122504  1.0000
  Li  Li3       1.0  0.5319383766759388  0.8674522152900082  0.46661828007405154  1.0000
  Li  Li4       1.0  0.9680720090714986  0.6325463858191184  0.9666203867846974  1.0000
  H   H1        1.0  0.0668056501157963  0.4637138168999044  0.2381597419956165  1.0000
  H   H2        1.0  0.43318582245503734  0.03628488944676891  0.7381643832112061  1.0000
  H   H3        1.0  0.9331877501914436  0.536286813417135  0.7618378646075714  1.0000
  H   H4        1.0  0.5668218698382432  0.9637176198719927  0.2618387985134092  1.0000
  H   H5        1.0  0.626754192724164  0.5495689721278083  0.44448439119580746  1.0000
  H   H6        1.0  0.8732316665371445  0.9504353491356313  0.9444871718073957  1.0000
  H   H7        1.0  0.37323921300607316  0.4504326286480946  0.5555126578958038  1.0000
  H   H8        1.0  0.12678175988680354  0.049571017255424  0.055517124944557815  1.0000
  H   H9        1.0  0.9812634593772174  0.2337494297813123  0.2581146838430115  1.0000
  H   H10       1.0  0.5187458669032737  0.2662507042205888  0.7581152924709544  1.0000
  H   H11       1.0  0.0187356533976057  0.7662511757671665  0.7418851528074697  1.0000
  H   H12       1.0  0.48124469323684593  0.7337528498950762  0.24188733175835614  1.0000
  H   H13       1.0  0.009362604373777101  0.0878999227547794  0.6236014849459226  1.0000
  H   H14       1.0  0.49063482332230285  0.41210058671440214  0.12360312181906614  1.0000
  H   H15       1.0  0.9906507735755883  0.9120977094444667  0.37639500660711894  1.0000
  H   H16       1.0  0.5093671402922199  0.5878990359855367  0.8763972723402773  1.0000
  H   H17       1.0  0.9998033910948719  0.2404485676140879  0.6161345878606995  1.0000
  H   H18       1.0  0.5002047159130357  0.25954828911693534  0.1161377587436263  1.0000
  H   H19       1.0  0.00019568930094489994  0.7595462151515305  0.3838624612142709  1.0000
  H   H20       1.0  0.4997943914098855  0.7404513459780729  0.8838637504447817  1.0000
  C   C1        1.0  0.8464327319213824  0.5236158736080582  0.33867371508937083  1.0000
  C   C2        1.0  0.6535414858912887  0.9763894392989628  0.8386775531348079  1.0000
  C   C3        1.0  0.15354922177316874  0.4763809244079411  0.6613211039523605  1.0000
  C   C4        1.0  0.34646621721908133  0.023615010942926104  0.16132562859301203  1.0000
  C   C5        1.0  0.6341703546398207  0.34979439009266855  0.42397035601488403  1.0000
  C   C6        1.0  0.8658075233161997  0.15020744754696116  0.923974386422586  1.0000
  C   C7        1.0  0.3658144660478016  0.6502043364729673  0.5760278081064102  1.0000
  C   C8        1.0  0.1342087486256034  0.8497969655178109  0.0760271227575586  1.0000
  C   C9        1.0  0.74086008084754  0.2557445499574271  0.3673317784434502  1.0000
  C   C10       1.0  0.7591378655390955  0.2442556949445205  0.8673335337673579  1.0000
  C   C11       1.0  0.2591361702849468  0.744255097513765  0.632666943181782  1.0000
  C   C12       1.0  0.24087269387732144  0.7557487428995984  0.1326679754182152  1.0000
  C   C13       1.0  0.892418405843479  0.3012974369256298  0.3017213301710981  1.0000
  C   C14       1.0  0.6075800802126635  0.19870121517787703  0.8017221052069559  1.0000
  C   C15       1.0  0.10758068531161773  0.6986992867739019  0.6982779489597988  1.0000
  C   C16       1.0  0.3924247450586408  0.8012993655966482  0.19827884646445432  1.0000
  C   C17       1.0  0.7006251277096781  0.1121650581212847  0.37676302905288145  1.0000
  C   C18       1.0  0.7993808498661893  0.38782650669566004  0.8767646265050503  1.0000
  C   C19       1.0  0.2993796976338885  0.8878355226397544  0.6232351350526386  1.0000
  C   C20       1.0  0.2006239537853958  0.6121701922299251  0.1232357676467686  1.0000
  N   N1        1.0  0.9408049956091064  0.4289071534740001  0.2875974570145843  1.0000
  N   N2        1.0  0.5591799250408656  0.07108851256936079  0.7876006882076539  1.0000
  N   N3        1.0  0.05918266514448331  0.5710886493118821  0.7123995920728419  1.0000
  N   N4        1.0  0.44082775104124045  0.9289110853620242  0.21240193599898302  1.0000
  N   N5        1.0  0.6973805593643335  0.4792962794822344  0.4047151207295415  1.0000
  N   N6        1.0  0.8025897534320308  0.020706379509469706  0.9047188413965729  1.0000
  N   N7        1.0  0.30259855424979787  0.5207034423162112  0.5952813708592473  1.0000
  N   N8        1.0  0.19742366221817778  0.9792980459503725  0.09528378281264342  1.0000
  O   O1        1.0  0.8967723831695268  0.6403457482342603  0.32521382027331924  1.0000
  O   O2        1.0  0.603199632880461  0.8596516831589013  0.8252179241147672  1.0000
  O   O3        1.0  0.1032124267443635  0.3596510374001554  0.6747826713052376  1.0000
  O   O4        1.0  0.39679376183036646  0.1403479767316327  0.17478693015814173  1.0000
  O   O5        1.0  0.4915870409627915  0.327366094931854  0.4867012785539515  1.0000
  O   O6        1.0  0.0083972703330488  0.17263693196600371  0.9867043842062556  1.0000
  O   O7        1.0  0.5084035084180485  0.6726355182499049  0.5132991156194466  1.0000
  O   O8        1.0  0.9916189854120321  0.8273645697086921  0.0132960099427351  1.0000
  O   O9        1.0  0.5463954554018144  0.06850646488408779  0.4350131939958715  1.0000
  O   O10       1.0  0.9536074861439658  0.43148275207597214  0.935016875451211  1.0000
  O   O11       1.0  0.45360080659111196  0.9314951235021383  0.5649838550930255  1.0000
  O   O12       1.0  0.0463858708226681  0.5685101145620591  0.06498351870505562  1.0000
  O   O13       1.0  0.834060712136285  0.0400234086438118  0.324284625895622  1.0000
  O   O14       1.0  0.6659679960853283  0.45997047314055106  0.8242844836291141  1.0000
  O   O15       1.0  0.1659498364196921  0.9599790882852799  0.6757185558262861  1.0000
  O   O16       1.0  0.33404825957304507  0.5400310285503308  0.17571925559894913  1.0000
  O   O17       1.0  0.9580375197458013  0.15974355515110258  0.5872391430500772  1.0000
  O   O18       1.0  0.5419520914178263  0.340253108765836  0.08724138748537771  1.0000
  O   O19       1.0  0.04196441148971531  0.8402502447659824  0.4127584635337627  1.0000
  O   O20       1.0  0.45803845796301346  0.6597485044159228  0.9127590066880131  1.0000
