data_image0
_chemical_formula_structural       Cd2H36C40N4O10
_chemical_formula_sum              "Cd2 H36 C40 N4 O10"
_cell_length_a       8.249222133984112
_cell_length_b       11.455188464414647
_cell_length_c       11.447689633162643
_cell_angle_alpha    110.8207006001836
_cell_angle_beta     96.6789161853651
_cell_angle_gamma    108.77647626985102

_space_group_name_H-M_alt    "P 1"
_space_group_IT_number       1

loop_
  _space_group_symop_operation_xyz
  'x, y, z'

loop_
  _atom_site_type_symbol
  _atom_site_label
  _atom_site_symmetry_multiplicity
  _atom_site_fract_x
  _atom_site_fract_y
  _atom_site_fract_z
  _atom_site_occupancy
  Cd  Cd1       1.0  0.09640097310909819  0.1852393508763726  0.747183203274808  1.0000
  Cd  Cd2       1.0  0.9035915891959049  0.8147561979952158  0.2528162491017625  1.0000
  H   H1        1.0  0.8277094035501024  0.0961942384942489  0.5031191702087767  1.0000
  H   H2        1.0  0.17228580313459935  0.903806380176967  0.49688212736092663  1.0000
  H   H3        1.0  0.8164191760685283  0.2003348223107082  0.6445769128449753  1.0000
  H   H4        1.0  0.18356926764672463  0.7996598637117743  0.3554245368831559  1.0000
  H   H5        1.0  0.4319720620155534  0.9058553262293998  0.6588172232442915  1.0000
  H   H6        1.0  0.5680344231896726  0.09414581131311191  0.3411764549097498  1.0000
  H   H7        1.0  0.5142982930573652  0.9922272164718824  0.8302169750541849  1.0000
  H   H8        1.0  0.4857072468137531  0.007779141981067999  0.1697809146831659  1.0000
  H   H9        1.0  0.4241920771252198  0.8609687976661676  0.9477746531517965  1.0000
  H   H10       1.0  0.5758106210562772  0.13903444400872195  0.05222025041518922  1.0000
  H   H11       1.0  0.9339064353822764  0.5090690783754113  0.7961173488363754  1.0000
  H   H12       1.0  0.06610588461366257  0.49094562506585504  0.20388902988643307  1.0000
  H   H13       1.0  0.8651768524594203  0.5553134055341999  0.6044786502100266  1.0000
  H   H14       1.0  0.13482600169682957  0.4446901701901566  0.3955233676268647  1.0000
  H   H15       1.0  0.07838897608985453  0.7510332444630948  0.5808457414585747  1.0000
  H   H16       1.0  0.9216151331281992  0.24897040615954316  0.41915815543280377  1.0000
  H   H17       1.0  0.37686143752623014  0.6995310587080183  0.038150143562127405  1.0000
  H   H18       1.0  0.6231386070293182  0.3004788526272506  0.9618580324901626  1.0000
  H   H19       1.0  0.18601965841033768  0.5440523730761272  0.9699755880423594  1.0000
  H   H20       1.0  0.8139935679260191  0.4559570259423396  0.030024800529659498  1.0000
  H   H21       1.0  0.12100258854045617  0.36972250398851264  0.5979184521405614  1.0000
  H   H22       1.0  0.8789867156167545  0.6302761629753847  0.4020825946875846  1.0000
  H   H23       1.0  0.3235241995610351  0.5812814116865682  0.5895230099740942  1.0000
  H   H24       1.0  0.6764744430845367  0.41871409411457705  0.41047694483752634  1.0000
  H   H25       1.0  0.7182578699799647  0.6141732114201447  0.8969674536886101  1.0000
  H   H26       1.0  0.2817348896349614  0.38582038442987004  0.1030331396652002  1.0000
  H   H27       1.0  0.501102756317735  0.39797092006763535  0.8871439324112556  1.0000
  H   H28       1.0  0.4988807427962101  0.6020260039698685  0.11286131009402567  1.0000
  H   H29       1.0  0.5878785494180151  0.6712051592515068  0.5326146629313014  1.0000
  H   H30       1.0  0.4121381025089477  0.3287850885543193  0.46738426568261804  1.0000
  H   H31       1.0  0.7936412394234367  0.8882928492758352  0.5390079267581455  1.0000
  H   H32       1.0  0.20637337042385442  0.11170050800821943  0.4609926967943636  1.0000
  H   H33       1.0  0.9480602531269399  0.0632949452319664  0.939833640270919  1.0000
  H   H34       1.0  0.05192567812323277  0.9367019615773629  0.060171803208383765  1.0000
  H   H35       1.0  0.7517266704878695  0.8516470204064036  0.9510478351682109  1.0000
  H   H36       1.0  0.24826000878648105  0.14834661851405434  0.0489522557505424  1.0000
  C   C1        1.0  0.31218417964976913  0.042915360327718595  0.7499744794058499  1.0000
  C   C2        1.0  0.6878202634757784  0.9570888866930148  0.25002089368677366  1.0000
  C   C3        1.0  0.3940825822551801  0.9412440087911663  0.7499604125568594  1.0000
  C   C4        1.0  0.6059232742484042  0.05875827659390609  0.2500362020000111  1.0000
  C   C5        1.0  0.26362883664494774  0.8220534967368426  0.7644803476396548  1.0000
  C   C6        1.0  0.7363814871697726  0.1779550308184241  0.23552213877093203  1.0000
  C   C7        1.0  0.29914618864578557  0.7961428478407983  0.8733333108637922  1.0000
  C   C8        1.0  0.7008593707221777  0.20386355236833248  0.12666546815729865  1.0000
  C   C9        1.0  0.1826933276245271  0.6837466435387968  0.8858947378516149  1.0000
  C   C10       1.0  0.8173145445571207  0.31626185948846336  0.11410665830121758  1.0000
  C   C11       1.0  0.02494767958029341  0.5978714436713022  0.7886610323096975  1.0000
  C   C12       1.0  0.9750631146198288  0.4021379725753391  0.21133915528830016  1.0000
  C   C13       1.0  0.9875345775370405  0.6233989930364316  0.6803755242742184  1.0000
  C   C14       1.0  0.012472646446127578  0.37661061607720825  0.3196279189977033  1.0000
  C   C15       1.0  0.10602554728372124  0.7336660755233524  0.667294065883162  1.0000
  C   C16       1.0  0.893984973840922  0.2663404990103401  0.3327095615046573  1.0000
  C   C17       1.0  0.2322961771171847  0.6546553968089698  0.9998917957666503  1.0000
  C   C18       1.0  0.7677080273632769  0.3453530903043713  0.00010840964141323112  1.0000
  C   C19       1.0  0.15391125919381926  0.7067096760080462  0.11300967266729604  1.0000
  C   C20       1.0  0.8460843983794462  0.29329178959835644  0.886988436806078  1.0000
  C   C21       1.0  0.2559222806400853  0.42598534672276134  0.6597480795971292  1.0000
  C   C22       1.0  0.7440687489643381  0.5740142838307847  0.34025254747291456  1.0000
  C   C23       1.0  0.3697796917237851  0.5425869969922986  0.6551326934052425  1.0000
  C   C24       1.0  0.6302175960342778  0.45741059571305703  0.3448686877933511  1.0000
  C   C25       1.0  0.5384936294198894  0.6146744153004705  0.7417208574097457  1.0000
  C   C26       1.0  0.4615046231691267  0.38531799825062774  0.2582772014892711  1.0000
  C   C27       1.0  0.5874557388521495  0.5634211731719603  0.8285963170859105  1.0000
  C   C28       1.0  0.4125326509358658  0.43656638928877817  0.1714028508328624  1.0000
  C   C29       1.0  0.467263076924702  0.4435140156161879  0.8240756275900621  1.0000
  C   C30       1.0  0.5327224057783794  0.5564796736745379  0.17592525212541685  1.0000
  C   C31       1.0  0.6573231990215473  0.7419564984735416  0.7416474144663922  1.0000
  C   C32       1.0  0.3426744856978416  0.2580348176052639  0.25834849682651406  1.0000
  C   C33       1.0  0.6664167884174006  0.7553500824701374  0.6253002591599495  1.0000
  C   C34       1.0  0.333589837829031  0.2446443490724591  0.37470003002211877  1.0000
  C   C35       1.0  0.7817104925573375  0.8760443619691433  0.6282831710031971  1.0000
  C   C36       1.0  0.21829721093781979  0.12395213924948928  0.3717187455398586  1.0000
  C   C37       1.0  0.8696942544705661  0.972265501486234  0.8518255996731054  1.0000
  C   C38       1.0  0.1303035816602858  0.027733146935226206  0.14817703984785166  1.0000
  C   C39       1.0  0.7611733867802287  0.854167882849936  0.8575882277512434  1.0000
  C   C40       1.0  0.23881864664883065  0.1458266520617286  0.14241085558670358  1.0000
  N   N1        1.0  0.3040371861257752  0.37633585435652606  0.7421359775008155  1.0000
  N   N2        1.0  0.6959501952742996  0.6236638020392888  0.2578643481081996  1.0000
  N   N3        1.0  0.8822850070624638  0.9829924417793308  0.7397034452290043  1.0000
  N   N4        1.0  0.1177206543530147  0.0170071689175302  0.260300166252641  1.0000
  O   O1        1.0  0.3121807778933743  0.1285828677997785  0.8572587356614108  1.0000
  O   O2        1.0  0.6878172338287455  0.8714184135537124  0.1427360176510318  1.0000
  O   O3        1.0  0.23612832083082222  0.0346533282072627  0.6410851795375123  1.0000
  O   O4        1.0  0.7638792221262846  0.9653498372550897  0.3589092366937833  1.0000
  O   O5        1.0  0.995693082579862  0.7018241071997979  0.0844417203506751  1.0000
  O   O6        1.0  0.0043000499362407  0.29817016856067374  0.9155521277718534  1.0000
  O   O7        1.0  0.24931936220859544  0.7469773209211896  0.225394246315915  1.0000
  O   O8        1.0  0.7506685136370237  0.2530162676290004  0.7746050558061126  1.0000
  O   O9        1.0  0.8943014894892231  0.18080200996814003  0.5842906765120403  1.0000
  O   O10       1.0  0.10569044411413828  0.8191946867460089  0.41571171226736664  1.0000
