data_image0
_chemical_formula_structural       Zn8H72C116O26
_chemical_formula_sum              "Zn8 H72 C116 O26"
_cell_length_a       21.637147745009933
_cell_length_b       21.637134593023827
_cell_length_c       34.592612064042534
_cell_angle_alpha    90.00015667768994
_cell_angle_beta     89.9999134549486
_cell_angle_gamma    90.00006778430776

_space_group_name_H-M_alt    "P 1"
_space_group_IT_number       1

loop_
  _space_group_symop_operation_xyz
  'x, y, z'

loop_
  _atom_site_type_symbol
  _atom_site_label
  _atom_site_symmetry_multiplicity
  _atom_site_fract_x
  _atom_site_fract_y
  _atom_site_fract_z
  _atom_site_occupancy
  Zn  Zn1       1.0  0.5522288032166216  0.552171942328016  0.0329731461401366  1.0000
  Zn  Zn2       1.0  0.4477693581141935  0.5521720829575044  0.9670289972613803  1.0000
  Zn  Zn3       1.0  0.44777181276146644  0.44782904390693556  0.0329728174892807  1.0000
  Zn  Zn4       1.0  0.5522271494618637  0.44782699727277026  0.9670282810167167  1.0000
  Zn  Zn5       1.0  0.4478285965281117  0.44777222603174494  0.46702792641314517  1.0000
  Zn  Zn6       1.0  0.44782904071433194  0.5522265900582966  0.5329733101225003  1.0000
  Zn  Zn7       1.0  0.5521723558593905  0.5522278934768536  0.4670282552133926  1.0000
  Zn  Zn8       1.0  0.5521712899649174  0.4477701217194224  0.5329725938374922  1.0000
  H   H1        1.0  0.2569213103375744  0.4305997799865366  0.0443446851308735  1.0000
  H   H2        1.0  0.1417231318931016  0.4302064066914896  0.0444181652000708  1.0000
  H   H3        1.0  0.25691890358620384  0.569400658919406  0.9556558642133411  1.0000
  H   H4        1.0  0.141721650120175  0.5697920472547794  0.9555822037053828  1.0000
  H   H5        1.0  0.05714763660725449  0.5000669215409274  0.9377529437286326  1.0000
  H   H6        1.0  0.0571482334006035  0.4999318945148372  0.06224634862231679  1.0000
  H   H7        1.0  0.7430788159598619  0.5693998696862009  0.04434515220524559  1.0000
  H   H8        1.0  0.8582765320580279  0.5697923189666341  0.04441852430121429  1.0000
  H   H9        1.0  0.7430776315037234  0.43059790919475205  0.9556555168032261  1.0000
  H   H10       1.0  0.8582762716505242  0.4302055962021852  0.9555829033021509  1.0000
  H   H11       1.0  0.9428504630840848  0.5000673716078905  0.0622462201675731  1.0000
  H   H12       1.0  0.9428498661304514  0.4999320301172503  0.937753104122784  1.0000
  H   H13       1.0  0.4202010252056781  0.44099243182662207  0.1520378433041287  1.0000
  H   H14       1.0  0.5797979162163714  0.5590049178009833  0.1520378685119752  1.0000
  H   H15       1.0  0.5590056719186122  0.5797982923094835  0.3479632568280664  1.0000
  H   H16       1.0  0.4409932576763467  0.4202017664595701  0.3479643329266366  1.0000
  H   H17       1.0  0.3684168442537228  0.46592380607383893  0.2396551522630546  1.0000
  H   H18       1.0  0.38372846491516555  0.3971105798759638  0.2137044586703567  1.0000
  H   H19       1.0  0.6315814230319248  0.5340748526871762  0.23965479710743415  1.0000
  H   H20       1.0  0.6162703273200664  0.602887502746306  0.2137039460378247  1.0000
  H   H21       1.0  0.5340750733765417  0.631581744187308  0.2603463384307645  1.0000
  H   H22       1.0  0.6028881693712761  0.6162706647628441  0.2862969207390265  1.0000
  H   H23       1.0  0.46592406818800913  0.36841746761457017  0.26034614653297433  1.0000
  H   H24       1.0  0.3971109094112677  0.38372819884122567  0.2862971088860107  1.0000
  H   H25       1.0  0.5797970045936935  0.44099220574307907  0.8479638217218478  1.0000
  H   H26       1.0  0.42020071536629894  0.5590049650746777  0.8479642865231867  1.0000
  H   H27       1.0  0.4409929842643407  0.5797975037143955  0.6520380663723415  1.0000
  H   H28       1.0  0.5590056718615273  0.4202006553090668  0.652037874857733  1.0000
  H   H29       1.0  0.6315812150415568  0.4659241807924771  0.7603462661329631  1.0000
  H   H30       1.0  0.6162699751386782  0.3971115126187286  0.7862968425633241  1.0000
  H   H31       1.0  0.3684171790584188  0.5340753782365795  0.7603464482445759  1.0000
  H   H32       1.0  0.38372789401171303  0.6028886225490667  0.7862974164765149  1.0000
  H   H33       1.0  0.46592364406956926  0.6315822942203725  0.7396553620172596  1.0000
  H   H34       1.0  0.3971105299612034  0.6162710194154712  0.7137044645608484  1.0000
  H   H35       1.0  0.5340748000879502  0.3684176361058178  0.7396551058464453  1.0000
  H   H36       1.0  0.6028884391459712  0.38372787260293945  0.7137041695610833  1.0000
  H   H37       1.0  0.42896976363176975  0.2569151440016668  0.04334308625684  1.0000
  H   H38       1.0  0.42874138426280695  0.1417312232697157  0.043492442184756896  1.0000
  H   H39       1.0  0.5710289727293089  0.25691353623609814  0.9566582653543491  1.0000
  H   H40       1.0  0.5712576779977212  0.14172961511751936  0.9565084242330001  1.0000
  H   H41       1.0  0.5995422646512978  0.0571686227460049  0.9999644386445183  1.0000
  H   H42       1.0  0.4004557732322738  0.05716908224732719  3.59947186226e-05  1.0000
  H   H43       1.0  0.42896987077524773  0.7430845741145546  0.9566584571443997  1.0000
  H   H44       1.0  0.4287416280375779  0.8582684945751279  0.9565085232736692  1.0000
  H   H45       1.0  0.5710285164167247  0.7430849634392943  0.0433434331503477  1.0000
  H   H46       1.0  0.5712582819293814  0.8582698091646177  0.0434926958981592  1.0000
  H   H47       1.0  0.400456011916738  0.9428296777953237  0.9999641301777088  1.0000
  H   H48       1.0  0.5995421494190937  0.9428299106598814  3.60766531387e-05  1.0000
  H   H49       1.0  0.5694021102068375  0.7430803218488433  0.4556537264582232  1.0000
  H   H50       1.0  0.5697931726708492  0.8582785700670925  0.4555815545765114  1.0000
  H   H51       1.0  0.4306022851687032  0.7430762749830464  0.5443435385576195  1.0000
  H   H52       1.0  0.4302067373060652  0.8582735987216523  0.544418219211785  1.0000
  H   H53       1.0  0.4999317599229158  0.942850497368397  0.562246342517696  1.0000
  H   H54       1.0  0.5000668636066905  0.9428506862416911  0.43775299711114707  1.0000
  H   H55       1.0  0.4305988696965315  0.2569220585534354  0.45565626883009  1.0000
  H   H56       1.0  0.4302059587365363  0.14172427218255726  0.455582744863591  1.0000
  H   H57       1.0  0.569399866671148  0.256919562401599  0.5443459500293102  1.0000
  H   H58       1.0  0.5697917170108013  0.14172223898390968  0.5444184106216952  1.0000
  H   H59       1.0  0.49993277309946643  0.05714884252883219  0.4377536885638094  1.0000
  H   H60       1.0  0.5000666512647669  0.057148191644976996  0.562246455684992  1.0000
  H   H61       1.0  0.7430852506971063  0.5710276078770988  0.456658336923482  1.0000
  H   H62       1.0  0.8582691019249038  0.5712573733810871  0.4565088289272907  1.0000
  H   H63       1.0  0.7430836753044545  0.4289701710137661  0.5433434883953723  1.0000
  H   H64       1.0  0.8582689124032327  0.4287410039486589  0.5434931768415652  1.0000
  H   H65       1.0  0.9428300013665235  0.4004562521099971  0.5000364349934259  1.0000
  H   H66       1.0  0.9428296570503105  0.5995426874271245  0.4999649128691813  1.0000
  H   H67       1.0  0.2569147816146113  0.5710284349813008  0.5433432604235975  1.0000
  H   H68       1.0  0.1417304684900884  0.5712580648730069  0.54349305789016  1.0000
  H   H69       1.0  0.25691480243995807  0.4289692309091891  0.4566578670814039  1.0000
  H   H70       1.0  0.1417309515741252  0.428741313423721  0.4565090454826333  1.0000
  H   H71       1.0  0.0571685603237455  0.599542163689044  0.5000361548697541  1.0000
  H   H72       1.0  0.05716890481332369  0.40045619022609463  0.4999645828565207  1.0000
  C   C1        1.0  0.5000020643488909  0.6671764386178153  2.6448319375e-06  1.0000
  C   C2        1.0  0.33277336201422975  0.5000030948059973  1.4250555012e-06  1.0000
  C   C3        1.0  0.5000018385241916  0.5000015754881204  0.10494022717337262  1.0000
  C   C4        1.0  0.5000048164549185  0.3328205905209599  0.9999970971014064  1.0000
  C   C5        1.0  0.6672240985578881  0.5000019061353242  1.110293936999999e-07  1.0000
  C   C6        1.0  0.5000004205968978  0.4999959158194968  0.8950609601578776  1.0000
  C   C7        1.0  0.3328217470161619  0.5000041927915928  0.5000044305308577  1.0000
  C   C8        1.0  0.5000023839000178  0.6672246777409399  0.500000446946899  1.0000
  C   C9        1.0  0.500000563248136  0.5000008260582335  0.3950608454554184  1.0000
  C   C10       1.0  0.6671772769264875  0.5000006932193982  0.5000016711523401  1.0000
  C   C11       1.0  0.5000040347349355  0.33277466224340196  0.5000010294630286  1.0000
  C   C12       1.0  0.4999970741940912  0.5000012869313436  0.6049406309610106  1.0000
  C   C13       1.0  0.26384098619354296  0.500000743189787  2.035716399e-06  1.0000
  C   C14       1.0  0.2311383784087866  0.46111624028328896  0.0251654835278785  1.0000
  C   C15       1.0  0.16688453055377292  0.4613454379854928  0.0252479015555522  1.0000
  C   C16       1.0  0.2311377378288384  0.538886941132098  0.9748353792125712  1.0000
  C   C17       1.0  0.1668834277303048  0.5386535078999374  0.9747538890159646  1.0000
  C   C18       1.0  0.13366550252374051  0.5000000890717755  0.9999994357220247  1.0000
  C   C19       1.0  0.0654772173852081  0.4999991244002969  0.9999997569541677  1.0000
  C   C20       1.0  0.03214985411041481  0.5003562843222866  0.9651431973045207  1.0000
  C   C21       1.0  0.0321491303226225  0.49964296432540306  0.034855251385422996  1.0000
  C   C22       1.0  0.7361580377533272  0.5000018319690156  0.9999994406997671  1.0000
  C   C23       1.0  0.7688585591147187  0.5388865603324432  0.0251647180166401  1.0000
  C   C24       1.0  0.833116104113344  0.5386550521535014  0.025247653211238202  1.0000
  C   C25       1.0  0.7688596751987404  0.46111402205665525  0.9748347703642182  1.0000
  C   C26       1.0  0.833115834166044  0.46134468192018824  0.9747526418059992  1.0000
  C   C27       1.0  0.8663330592558153  0.4999997130718796  1.7138532400000025e-08  1.0000
  C   C28       1.0  0.9345219834333278  0.49999963846614304  0.9999999253183559  1.0000
  C   C29       1.0  0.9678482459235552  0.5003566436699102  0.03485567800521489  1.0000
  C   C30       1.0  0.967847582361628  0.49964324979993074  0.9651447790266589  1.0000
  C   C31       1.0  0.40535747066473954  0.43309321529688566  0.2315686981703067  1.0000
  C   C32       1.0  0.5946422026881493  0.566904945782646  0.23156843374994912  1.0000
  C   C33       1.0  0.5669046923237175  0.5946420471962526  0.2684324111485026  1.0000
  C   C34       1.0  0.4330944296783911  0.40535720011824583  0.2684323131062811  1.0000
  C   C35       1.0  0.4548493028389728  0.4666895136450861  0.16833843923853206  1.0000
  C   C36       1.0  0.45410562569755797  0.46673674271091403  0.208562635403517  1.0000
  C   C37       1.0  0.5451514478220362  0.533309294075856  0.1683375861337524  1.0000
  C   C38       1.0  0.5458922546393907  0.5332599308248972  0.2085626487537056  1.0000
  C   C39       1.0  0.5333095855677925  0.5451513246115242  0.3316638053694517  1.0000
  C   C40       1.0  0.5332606448432671  0.545892554373893  0.2914381648541067  1.0000
  C   C41       1.0  0.466688921294299  0.45484958690639843  0.3316631817513311  1.0000
  C   C42       1.0  0.4667374971643241  0.45410586964129607  0.29143869624212476  1.0000
  C   C43       1.0  0.49999808904910026  0.49999704843110476  0.1480338217585313  1.0000
  C   C44       1.0  0.49999983997654607  0.4999990745489453  0.2288403822709171  1.0000
  C   C45       1.0  0.49999830453377564  0.4999988827540134  0.3519672508675811  1.0000
  C   C46       1.0  0.4999993266157503  0.4999991674811071  0.2711612685139854  1.0000
  C   C47       1.0  0.5946419362948349  0.43309358182673907  0.7684323752480394  1.0000
  C   C48       1.0  0.40535643824179607  0.5669050883787677  0.7684328674988166  1.0000
  C   C49       1.0  0.43309351925242373  0.5946429850461286  0.7315695154849635  1.0000
  C   C50       1.0  0.566905406635314  0.40535690976835054  0.7315690021665375  1.0000
  C   C51       1.0  0.545149219528362  0.46668778847742226  0.8316635586173148  1.0000
  C   C52       1.0  0.5458915102238677  0.4667376147740825  0.7914384952984079  1.0000
  C   C53       1.0  0.4548490020351607  0.5333093107516759  0.8316633688344339  1.0000
  C   C54       1.0  0.4541054221496949  0.5332606943015108  0.7914394624486434  1.0000
  C   C55       1.0  0.4666890296261172  0.545151562337665  0.6683377479203756  1.0000
  C   C56       1.0  0.46673843339613796  0.5458929688206097  0.708563100618612  1.0000
  C   C57       1.0  0.5333091248993327  0.454848979113315  0.6683379287096187  1.0000
  C   C58       1.0  0.5332605481496699  0.4541068249551825  0.7085629911120251  1.0000
  C   C59       1.0  0.499997699715827  0.49999813203256566  0.8519682328109965  1.0000
  C   C60       1.0  0.4999991839668994  0.499998878927066  0.7711616722994492  1.0000
  C   C61       1.0  0.49999887073848726  0.4999995328874078  0.6480339364668525  1.0000
  C   C62       1.0  0.4999992351607361  0.5000001724992131  0.7288404969787124  1.0000
  C   C63       1.0  0.4999985906102181  0.263877657876705  1.7233435869e-06  1.0000
  C   C64       1.0  0.4596919353944031  0.23116679408497015  0.0242765509462615  1.0000
  C   C65       1.0  0.4595167358803779  0.16691105797126937  0.024099290859688  1.0000
  C   C66       1.0  0.5403095435150362  0.2311656958777348  0.9757238895872646  1.0000
  C   C67       1.0  0.5404818939998108  0.1669094985832658  0.9759027747462171  1.0000
  C   C68       1.0  0.5000010013042058  0.13367037580902516  0.9999992401973756  1.0000
  C   C69       1.0  0.4999993975888515  0.0654784668198758  6.872069989e-07  1.0000
  C   C70       1.0  0.5557462742199917  0.03214032859663969  0.9997834744939527  1.0000
  C   C71       1.0  0.444251734052223  0.0321394542018822  0.00021749441258119996  1.0000
  C   C72       1.0  0.4999993321263218  0.7361222592137011  3.908948898000001e-07  1.0000
  C   C73       1.0  0.459690640369672  0.7688334225429898  0.9757240962450453  1.0000
  C   C74       1.0  0.4595173651162483  0.8330886962840581  0.9759022237327456  1.0000
  C   C75       1.0  0.540310088126077  0.768834616128416  0.024277548810673  1.0000
  C   C76       1.0  0.5404820528929405  0.8330885027845268  0.0240986634873863  1.0000
  C   C77       1.0  0.49999958601939926  0.8663283870569669  0.9999998639163579  1.0000
  C   C78       1.0  0.4999985251481931  0.9345205259318092  5.597934916e-07  1.0000
  C   C79       1.0  0.44425200278611493  0.9678584333183409  0.9997831673375258  1.0000
  C   C80       1.0  0.5557466503275279  0.9678586151660792  0.00021766026558369997  1.0000
  C   C81       1.0  0.5000033490126938  0.7361575576274574  0.4999999274714853  1.0000
  C   C82       1.0  0.5388883761501404  0.7688614860957513  0.47483415885060504  1.0000
  C   C83       1.0  0.5386545571873499  0.8331172213981047  0.4747521152074868  1.0000
  C   C84       1.0  0.46111697406117  0.7688592397709328  0.5251648845361886  1.0000
  C   C85       1.0  0.46134624736001933  0.8331135892025613  0.5252470375832345  1.0000
  C   C86       1.0  0.49999972867141196  0.8663328351253909  0.49999888197630327  1.0000
  C   C87       1.0  0.49999838250121087  0.934521623881082  0.5000000963429302  1.0000
  C   C88       1.0  0.4996415662601165  0.9678486639488993  0.5348558333146798  1.0000
  C   C89       1.0  0.5003557003391421  0.9678485112900788  0.4651435488768385  1.0000
  C   C90       1.0  0.4999993722794399  0.26384132018184653  0.4999995253863291  1.0000
  C   C91       1.0  0.4611148681914656  0.23113866769978844  0.4748354722305308  1.0000
  C   C92       1.0  0.46134545217771716  0.1668852428763543  0.47475302988835466  1.0000
  C   C93       1.0  0.5388861485162622  0.23113882422426002  0.5251658354935956  1.0000
  C   C94       1.0  0.5386541020106249  0.1668830886438002  0.5252467230401265  1.0000
  C   C95       1.0  0.49999975744420055  0.13366604268136234  0.5000002818039633  1.0000
  C   C96       1.0  0.49999879277299897  0.0654777160946125  0.4999999346760191  1.0000
  C   C97       1.0  0.4996429457659559  0.03215067560459771  0.46514390896126656  1.0000
  C   C98       1.0  0.500355062520306  0.0321499047690139  0.5348556145676397  1.0000
  C   C99       1.0  0.7361221312840485  0.5000011961719011  0.5000022168002474  1.0000
  C   C100      1.0  0.7688344443696948  0.5403091797195076  0.4757247975345464  1.0000
  C   C101      1.0  0.8330896786519374  0.540481606934037  0.47590255100789136  1.0000
  C   C102      1.0  0.7688334136139616  0.4596914026474154  0.5242781598188558  1.0000
  C   C103      1.0  0.8330877237860718  0.45951720277438574  0.5240994785086741  1.0000
  C   C104      1.0  0.8663282949259854  0.4999998866835114  0.5000004209265683  1.0000
  C   C105      1.0  0.9345198152394545  0.49999992702262835  0.5000012560083817  1.0000
  C   C106      1.0  0.9678587418529149  0.44425088327507456  0.5002180021276956  1.0000
  C   C107      1.0  0.9678588083311012  0.5557462371997203  0.499783611207846  1.0000
  C   C108      1.0  0.263878279166029  0.49999999248314  0.4999995486931539  1.0000
  C   C109      1.0  0.2311664759365115  0.5403103547942435  0.52427703658973  1.0000
  C   C110      1.0  0.16691124185836512  0.5404817808723192  0.524098705250978  1.0000
  C   C111      1.0  0.23116648697893535  0.4596914401508272  0.47572440428086793  1.0000
  C   C112      1.0  0.1669112522648675  0.4595167028756889  0.47590250713629695  1.0000
  C   C113      1.0  0.13367119118787232  0.49999899112641805  0.5000001882490323  1.0000
  C   C114      1.0  0.06547874653613661  0.4999984886215215  0.5000007985625956  1.0000
  C   C115      1.0  0.032139819397883705  0.5557470711528508  0.5002176710424991  1.0000
  C   C116      1.0  0.0321402161379893  0.444251253153169  0.4997836684462484  1.0000
  O   O1        1.0  0.4999998314933265  0.4999993814333549  0.9999998411361516  1.0000
  O   O2        1.0  0.5370517279307094  0.6404146503997196  0.0234104929019239  1.0000
  O   O3        1.0  0.3595220315843548  0.5365595401791693  0.9762905407124478  1.0000
  O   O4        1.0  0.46236517579313124  0.46316669442830255  0.088155415730192  1.0000
  O   O5        1.0  0.4629433026183777  0.6404120779686336  0.9765912225842398  1.0000
  O   O6        1.0  0.5376283741571795  0.5368271394596036  0.0881560211060801  1.0000
  O   O7        1.0  0.35952314060697427  0.46344749047280226  0.0237116463482465  1.0000
  O   O8        1.0  0.4629438273341435  0.359588604676631  0.0234099996984014  1.0000
  O   O9        1.0  0.6404744535870749  0.4634437402433846  0.9762906350654533  1.0000
  O   O10       1.0  0.5370541061559919  0.3595828847454356  0.976592104881469  1.0000
  O   O11       1.0  0.640476111276989  0.536557614599083  0.0237098416309678  1.0000
  O   O12       1.0  0.4623674581790809  0.5368293658531583  0.9118472524882435  1.0000
  O   O13       1.0  0.5376296450639444  0.4631666990173215  0.9118454198145898  1.0000
  O   O14       1.0  0.5000004363083549  0.4999987456534001  0.5000005936659521  1.0000
  O   O15       1.0  0.3595872960268309  0.46294333492456013  0.4765924509293598  1.0000
  O   O16       1.0  0.46345223541872826  0.6404757873543971  0.523705503013808  1.0000
  O   O17       1.0  0.5368307430706167  0.5376301741317561  0.4118462361133552  1.0000
  O   O18       1.0  0.3595831237206184  0.5370516794204149  0.5234085797457837  1.0000
  O   O19       1.0  0.46316710763800717  0.4623678543541986  0.4118464958567145  1.0000
  O   O20       1.0  0.5365631306137573  0.6404766508114007  0.4762866729605975  1.0000
  O   O21       1.0  0.6404177927367342  0.5370559022504793  0.476590647123217  1.0000
  O   O22       1.0  0.5365596718804113  0.3595236567493671  0.5237098546283079  1.0000
  O   O23       1.0  0.6404130705869306  0.4629491498652527  0.5234083842374632  1.0000
  O   O24       1.0  0.46344426972756736  0.35952674454696165  0.4762890699759125  1.0000
  O   O25       1.0  0.46316786322615394  0.5376323663894738  0.5881555934515532  1.0000
  O   O26       1.0  0.5368295609467425  0.46236828508222055  0.588154338327442  1.0000
