data_image0
_chemical_formula_structural       Zn2H22C28N2O10
_chemical_formula_sum              "Zn2 H22 C28 N2 O10"
_cell_length_a       8.051599724058633
_cell_length_b       9.663678599995906
_cell_length_c       10.572420057837073
_cell_angle_alpha    107.62313092537677
_cell_angle_beta     100.47264177277415
_cell_angle_gamma    112.59293201480078

_space_group_name_H-M_alt    "P 1"
_space_group_IT_number       1

loop_
  _space_group_symop_operation_xyz
  'x, y, z'

loop_
  _atom_site_type_symbol
  _atom_site_label
  _atom_site_symmetry_multiplicity
  _atom_site_fract_x
  _atom_site_fract_y
  _atom_site_fract_z
  _atom_site_occupancy
  Zn  Zn1       1.0  0.711709682035476  0.658473377136062  0.5217800227401456  1.0000
  Zn  Zn2       1.0  0.2882954145006025  0.34152596965905974  0.47821782965019116  1.0000
  H   H1        1.0  0.8307428249100965  0.6268372905166262  0.3158732628054254  1.0000
  H   H2        1.0  0.1692624492987136  0.3731694106766598  0.6841247593460695  1.0000
  H   H3        1.0  0.01343795285371401  0.6512422417868821  0.4335639549649954  1.0000
  H   H4        1.0  0.9865705178608053  0.34876570886076047  0.5664348748719733  1.0000
  H   H5        1.0  0.7138077662811851  0.08300588426535432  0.47409965681298877  1.0000
  H   H6        1.0  0.2861999681965273  0.9169983786649712  0.5258999375979273  1.0000
  H   H7        1.0  0.30841090838189444  0.6923079148824274  0.07932350774103014  1.0000
  H   H8        1.0  0.6915915722617358  0.30769137901352656  0.9206796274665836  1.0000
  H   H9        1.0  0.39300677763117164  0.18908642485988034  0.18043634533326272  1.0000
  H   H10       1.0  0.6069893231464077  0.8109103755404521  0.8195642320037778  1.0000
  H   H11       1.0  0.0006228369808737838  0.6349567936648343  0.9754624119157003  1.0000
  H   H12       1.0  0.9993687593447759  0.36503873083155725  0.024539999144501185  1.0000
  H   H13       1.0  0.29128755403572626  0.10111956768810873  0.9504095296173817  1.0000
  H   H14       1.0  0.7087059439947581  0.8988771852261553  0.04959538803733926  1.0000
  H   H15       1.0  0.03460262356316702  0.9819503374599565  0.6049997278750184  1.0000
  H   H16       1.0  0.9653998307897425  0.018048945609798712  0.3950052923317956  1.0000
  H   H17       1.0  0.14147495578648522  0.1531215831494138  0.7716862748304152  1.0000
  H   H18       1.0  0.8585255705708691  0.8468764606762564  0.22831812378108662  1.0000
  H   H19       1.0  0.8875779278117688  0.03201588781688261  0.6942043403158636  1.0000
  H   H20       1.0  0.11242268844232944  0.9679846201054121  0.30579791571695136  1.0000
  H   H21       1.0  0.7546159638079998  0.5442135721101735  0.7479620938540137  1.0000
  H   H22       1.0  0.24537759994928626  0.4557832078696011  0.2520381113026886  1.0000
  C   C1        1.0  0.5644248420798519  0.7554058514290036  0.3191108132015118  1.0000
  C   C2        1.0  0.4355828813732713  0.24459597988330734  0.6808852687904762  1.0000
  C   C3        1.0  0.5145362929092059  0.8757604292914539  0.28020622928504935  1.0000
  C   C4        1.0  0.4854688540875428  0.12424136536099441  0.7197923080254044  1.0000
  C   C5        1.0  0.6088997509024806  0.04209935972046002  0.372337379038875  1.0000
  C   C6        1.0  0.3911060687250371  0.9579036693788869  0.6276606512771253  1.0000
  C   C7        1.0  0.6627620653460794  0.3316478463652431  0.4351939179682347  1.0000
  C   C8        1.0  0.3372399377264018  0.6683527204852456  0.5648000416583232  1.0000
  C   C9        1.0  0.5670658403890911  0.1546499072357791  0.3344537037854139  1.0000
  C   C10       1.0  0.4329367695873642  0.8453518669961042  0.6655444613447017  1.0000
  C   C11       1.0  0.37621571121516  0.8219870903144657  0.15079455932250613  1.0000
  C   C12       1.0  0.6237855140636767  0.17801219878430896  0.8492074472953347  1.0000
  C   C13       1.0  0.4277410231526916  0.09994186864888384  0.20533816530330282  1.0000
  C   C14       1.0  0.5722557765463776  0.9000561770245529  0.7946600200400769  1.0000
  C   C15       1.0  0.3287042721863145  0.9328561070729294  0.11288224875447384  1.0000
  C   C16       1.0  0.6712905842510749  0.0671431201482449  0.887120712411722  1.0000
  C   C17       1.0  0.17449127163129668  0.8750387699076685  0.9805059890080088  1.0000
  C   C18       1.0  0.8255015800591464  0.12495675938590274  0.019497550641958104  1.0000
  C   C19       1.0  0.01698128316289882  0.7171141185115318  0.9219545437527331  1.0000
  C   C20       1.0  0.9830103131627508  0.28288140598485984  0.07804786730746124  1.0000
  C   C21       1.0  0.17503606236726918  0.9764981696356828  0.9097256934969805  1.0000
  C   C22       1.0  0.8249581082939911  0.02349981772548661  0.09027871716327954  1.0000
  C   C23       1.0  0.0241580885067378  0.028308987365363702  0.7102171646803868  1.0000
  C   C24       1.0  0.9758412198011328  0.9716914941073471  0.28978773276107017  1.0000
  C   C25       1.0  0.029678216697675532  0.9194476272031268  0.783573641089511  1.0000
  C   C26       1.0  0.9703165892790437  0.08054915216072801  0.21642863515656793  1.0000
  C   C27       1.0  0.8782201581986085  0.6655564595365179  0.7951413946178861  1.0000
  C   C28       1.0  0.1217734187040378  0.3344403258563561  0.20485786803921263  1.0000
  N   N1        1.0  0.8863595785858251  0.7623909916972383  0.7248950150344556  1.0000
  N   N2        1.0  0.11363843704194919  0.2376070425340799  0.2751071263975007  1.0000
  O   O1        1.0  0.6318551408944373  0.7994318806126588  0.45390173492987174  1.0000
  O   O2        1.0  0.36815572860371765  0.20056875229669668  0.5460944698274802  1.0000
  O   O3        1.0  0.5418342888272322  0.6276457993977332  0.22485257530192382  1.0000
  O   O4        1.0  0.45817412040202027  0.3723572717745752  0.7751420571959997  1.0000
  O   O5        1.0  0.8208328671195133  0.396268062773544  0.5305693598142227  1.0000
  O   O6        1.0  0.17917053167518301  0.6037374208280613  0.46942427074354504  1.0000
  O   O7        1.0  0.5699000399959075  0.4129083949730018  0.4174416851969769  1.0000
  O   O8        1.0  0.43010003508101846  0.5870909326334086  0.5825516528342618  1.0000
  O   O9        1.0  0.9134686606848349  0.6883450200218206  0.414522727529537  1.0000
  O   O10       1.0  0.08653724671866314  0.3116628993790585  0.5854776151263084  1.0000
