data_image0
_chemical_formula_structural       Cd4H32C56S8N8O36
_chemical_formula_sum              "Cd4 H32 C56 S8 N8 O36"
_cell_length_a       7.494309699047215
_cell_length_b       10.727497113249443
_cell_length_c       21.862884518696102
_cell_angle_alpha    94.61041385093002
_cell_angle_beta     89.99960080473011
_cell_angle_gamma    90.00010446208226

_space_group_name_H-M_alt    "P 1"
_space_group_IT_number       1

loop_
  _space_group_symop_operation_xyz
  'x, y, z'

loop_
  _atom_site_type_symbol
  _atom_site_label
  _atom_site_symmetry_multiplicity
  _atom_site_fract_x
  _atom_site_fract_y
  _atom_site_fract_z
  _atom_site_occupancy
  Cd  Cd1       1.0  0.7067819663894142  0.053546243098594515  0.23129517455426904  1.0000
  Cd  Cd2       1.0  0.20677938936906767  0.9464518552614719  0.2687033661224304  1.0000
  Cd  Cd3       1.0  0.293221241105968  0.9464496587277939  0.7687047780597279  1.0000
  Cd  Cd4       1.0  0.7932211494342808  0.05354871583173092  0.7312972443304344  1.0000
  H   H1        1.0  0.08366018791711839  0.6317947547510273  0.7999572195089113  1.0000
  H   H2        1.0  0.5836655493149081  0.3682034589241709  0.7000434686553942  1.0000
  H   H3        1.0  0.916344353922554  0.3682048811577374  0.20004335079644867  1.0000
  H   H4        1.0  0.4163389925286012  0.6317952484614937  0.2999566043853931  1.0000
  H   H5        1.0  0.0858109956205269  0.6690054689162964  0.6886534322048801  1.0000
  H   H6        1.0  0.5858220095650423  0.3309927466862207  0.8113472508798903  1.0000
  H   H7        1.0  0.9141975492625319  0.33099604402984545  0.3113467612595499  1.0000
  H   H8        1.0  0.4141838666257911  0.6690078310724916  0.18865290244490032  1.0000
  H   H9        1.0  0.16077314147168656  0.2716338528461435  0.6439129652113634  1.0000
  H   H10       1.0  0.6607696012429329  0.7283634813221127  0.8560884151867043  1.0000
  H   H11       1.0  0.8392340690640551  0.7283657897269435  0.3560871479690632  1.0000
  H   H12       1.0  0.33923093756970246  0.2716371030973407  0.14391128102260348  1.0000
  H   H13       1.0  0.17511140639950185  0.1866956147768235  0.43039959395031235  1.0000
  H   H14       1.0  0.6751085584552357  0.813299616366365  0.0696011866049844  1.0000
  H   H15       1.0  0.8248891324000097  0.8133058848394796  0.5696015137671251  1.0000
  H   H16       1.0  0.3248866429582051  0.1866981425026424  0.9303997605475939  1.0000
  H   H17       1.0  0.8389991561573494  0.34696642654308363  0.5772191224190022  1.0000
  H   H18       1.0  0.3390020340252704  0.6530329574869498  0.9227805465304041  1.0000
  H   H19       1.0  0.16099604527244787  0.6530341578739751  0.42278057379659356  1.0000
  H   H20       1.0  0.6609918330674843  0.3469723095237783  0.07721889327893187  1.0000
  H   H21       1.0  0.5848786262882583  0.21986254530036584  0.5340012883804091  1.0000
  H   H22       1.0  0.08488362624770221  0.780140392038078  0.9659963977720023  1.0000
  H   H23       1.0  0.4151179095050139  0.7801371305835686  0.4659965392037009  1.0000
  H   H24       1.0  0.9151129095388909  0.2198676805325235  0.034003162462553894  1.0000
  H   H25       1.0  0.9399105177011718  0.11443989567244024  0.13954872352856276  1.0000
  H   H26       1.0  0.4399045879506929  0.8855602750256254  0.36044980470578736  1.0000
  H   H27       1.0  0.060090021106816514  0.8855606820838918  0.8604514298025233  1.0000
  H   H28       1.0  0.5600932821620432  0.11444123125261287  0.6395508458930121  1.0000
  H   H29       1.0  0.006361664369166  0.1732466185878039  0.2026893396241291  1.0000
  H   H30       1.0  0.5063595712610578  0.8267531707858565  0.2973097540460329  1.0000
  H   H31       1.0  0.9936375400876685  0.8267530173185734  0.7973112306875263  1.0000
  H   H32       1.0  0.49363829883997573  0.1732455166074445  0.7026916903679703  1.0000
  C   C1        1.0  0.16923431527276733  0.19924904901347423  0.7576140724078609  1.0000
  C   C2        1.0  0.6692372714727527  0.8007501631021725  0.7423873683117177  1.0000
  C   C3        1.0  0.8307662235382552  0.8007496650335283  0.2423855435158656  1.0000
  C   C4        1.0  0.33076059865229723  0.1992494927929869  0.25761183063616494  1.0000
  C   C5        1.0  0.14323493548960192  0.3306372630763974  0.7402591266709845  1.0000
  C   C6        1.0  0.6432318615397891  0.6693628676186663  0.7597419583984787  1.0000
  C   C7        1.0  0.8567722750507797  0.6693623861598114  0.25974052938766323  1.0000
  C   C8        1.0  0.3567700116223945  0.33063678827827664  0.24025724054468603  1.0000
  C   C9        1.0  0.11969410708312009  0.43379799502145755  0.7831823031461409  1.0000
  C   C10       1.0  0.6196929702413881  0.5662011794212134  0.7168187973013074  1.0000
  C   C11       1.0  0.8803131034526146  0.5662016475516226  0.21681781003428566  1.0000
  C   C12       1.0  0.38030756856963416  0.4337975346257822  0.2831808186224194  1.0000
  C   C13       1.0  0.0958310100674851  0.5543297566179675  0.7649034773545079  1.0000
  C   C14       1.0  0.5958345272653885  0.4456684612851235  0.7350976392278239  1.0000
  C   C15       1.0  0.9041762004674467  0.4456689507688908  0.23509659568313165  1.0000
  C   C16       1.0  0.4041700145742837  0.5543311746236413  0.26490293107753615  1.0000
  C   C17       1.0  0.0978451905563134  0.5742581536410185  0.7030661297630443  1.0000
  C   C18       1.0  0.5978514051710562  0.42573820235647025  0.7969344446581346  1.0000
  C   C19       1.0  0.9021620199747814  0.42574148226894  0.296934440539168  1.0000
  C   C20       1.0  0.4021504679856776  0.574260511691122  0.20306517126401497  1.0000
  C   C21       1.0  0.12143272960820178  0.47176817525545545  0.6593859186775929  1.0000
  C   C22       1.0  0.6214356556734301  0.5282291303725016  0.8406150973788012  1.0000
  C   C23       1.0  0.8785744809228929  0.5282314606545029  0.34061465162461957  1.0000
  C   C24       1.0  0.37856488314384507  0.47177146071007325  0.15938414170872048  1.0000
  C   C25       1.0  0.14234825266043322  0.3506240726844895  0.6780094210405492  1.0000
  C   C26       1.0  0.6423465332645933  0.6493751220314509  0.8219916259758475  1.0000
  C   C27       1.0  0.8576602922272727  0.6493774469247741  0.3219903153021021  1.0000
  C   C28       1.0  0.35765267120233085  0.3506254623874058  0.17800807023503035  1.0000
  C   C29       1.0  0.9269650337430306  0.06487231442240929  0.3630712983618095  1.0000
  C   C30       1.0  0.4269637651115445  0.9351231554352495  0.13692797392970135  1.0000
  C   C31       1.0  0.07303417071764072  0.9351263929608675  0.6369287746852733  1.0000
  C   C32       1.0  0.5730341050011846  0.0648783508429815  0.8630726766691053  1.0000
  C   C33       1.0  0.9028274796757643  0.12555187163807352  0.42749831495299856  1.0000
  C   C34       1.0  0.4028260257197331  0.8744454469909045  0.072501094554795  1.0000
  C   C35       1.0  0.0971743934817795  0.874447777595748  0.5725013411119446  1.0000
  C   C36       1.0  0.5971718443875531  0.1255551174379761  0.9274999730230032  1.0000
  C   C37       1.0  0.046868545149934  0.1918015512328708  0.4536745594846464  1.0000
  C   C38       1.0  0.5468661559274536  0.8081954421796882  0.04632614670567389  1.0000
  C   C39       1.0  0.9531333279944859  0.8081990131978073  0.5463265080884268  1.0000
  C   C40       1.0  0.45313171418205667  0.1918023233536417  0.9536743433219781  1.0000
  C   C41       1.0  0.025143620055807496  0.27131085269808614  0.5074984286494058  1.0000
  C   C42       1.0  0.5251439862186373  0.7286854448982042  0.9925018601297706  1.0000
  C   C43       1.0  0.9748555844002241  0.7286878480220622  0.49250210151946294  1.0000
  C   C44       1.0  0.4748512151988393  0.2713169899019334  0.007499287736749201  1.0000
  C   C45       1.0  0.8581686997094452  0.28369220319650884  0.5362729152563972  1.0000
  C   C46       1.0  0.3581709114276705  0.7163071979883355  0.963726708480777  1.0000
  C   C47       1.0  0.1418291704125778  0.7163093164079798  0.463726821098838  1.0000
  C   C48       1.0  0.6418242900045429  0.2836961919874099  0.0362731081631864  1.0000
  C   C49       1.0  0.7148481209158959  0.21477218986809984  0.5117117885753257  1.0000
  C   C50       1.0  0.2148500133870499  0.785229895278711  0.9882878365026851  1.0000
  C   C51       1.0  0.2851510835518383  0.7852293297369781  0.48828794777834605  1.0000
  C   C52       1.0  0.7851465223878408  0.21477535840696058  0.011712517547067602  1.0000
  C   C53       1.0  0.73776861674245  0.13573583838725511  0.4582467010841284  1.0000
  C   C54       1.0  0.2377690942238075  0.8642632095645623  0.04175272089064919  1.0000
  C   C55       1.0  0.2622305877283111  0.8642638175085012  0.5417524978621769  1.0000
  C   C56       1.0  0.7622261071898322  0.13574015375867532  0.9582489242404362  1.0000
  S   S1        1.0  0.12495089363658708  0.5086195801820709  0.5823622281354517  1.0000
  S   S2        1.0  0.6249561652672  0.4913767934091666  0.9176387394774961  1.0000
  S   S3        1.0  0.8750496451705984  0.49138006238802484  0.41763788505284777  1.0000
  S   S4        1.0  0.375041704850176  0.508624719532193  0.08236145399952477  1.0000
  S   S5        1.0  0.21882108222131794  0.354313522826402  0.5328153937931929  1.0000
  S   S6        1.0  0.7188230807744277  0.6456838766185343  0.9671849354437395  1.0000
  S   S7        1.0  0.7811767878944522  0.645686119742507  0.4671847193982541  1.0000
  S   S8        1.0  0.28117078631591147  0.3543185848335071  0.0328143839372288  1.0000
  N   N1        1.0  0.1333277693330928  0.41914109870641886  0.8485945931729048  1.0000
  N   N2        1.0  0.6333226595439996  0.5808580812723179  0.6514069322448532  1.0000
  N   N3        1.0  0.8666767725049668  0.5808566668298951  0.15140589684687455  1.0000
  N   N4        1.0  0.36668054795764254  0.4191396975896424  0.3485926435329389  1.0000
  N   N5        1.0  0.5889211410104735  0.05969491864781421  0.4364244230195664  1.0000
  N   N6        1.0  0.08892270760061648  0.9403058731342779  0.06357497318725079  1.0000
  N   N7        1.0  0.4110807321462601  0.940303795399778  0.5635751929025898  1.0000
  N   N8        1.0  0.9110778312051552  0.05969750351760442  0.9364257576939817  1.0000
  O   O1        1.0  0.04194811333244531  0.1389353060088823  0.7790849127790407  1.0000
  O   O2        1.0  0.5419489926770211  0.8610684481372954  0.7209184002376927  1.0000
  O   O3        1.0  0.9580510911306419  0.8610662069330743  0.2209152806964027  1.0000
  O   O4        1.0  0.4580488774641864  0.1389284288516777  0.2790788497947004  1.0000
  O   O5        1.0  0.32260139286451317  0.15061728325839852  0.7464294479801691  1.0000
  O   O6        1.0  0.8226055827813215  0.8493764683171394  0.7535704759082689  1.0000
  O   O7        1.0  0.6773951429091837  0.8493758263325758  0.25356946996976143  1.0000
  O   O8        1.0  0.1773909529810567  0.15062503129737345  0.2464306318138937  1.0000
  O   O9        1.0  0.20613605876830832  0.3222610466474762  0.8642366640643286  1.0000
  O   O10       1.0  0.7061288488128383  0.6777410107093332  0.6357643529379045  1.0000
  O   O11       1.0  0.7938698174225252  0.6777395311112429  0.13576348926046217  1.0000
  O   O12       1.0  0.2938783617204805  0.3222558263050672  0.3642356398141614  1.0000
  O   O13       1.0  0.0757051232342718  0.5043424237105966  0.8852310238824825  1.0000
  O   O14       1.0  0.5757018696644565  0.4956585750740744  0.614770717726614  1.0000
  O   O15       1.0  0.9242927468806883  0.4956562836720834  0.11476904916617767  1.0000
  O   O16       1.0  0.42429600044585675  0.5043401256454842  0.3852298124438248  1.0000
  O   O17       1.0  0.8374055619588745  0.11552404987841669  0.32241030183006086  1.0000
  O   O18       1.0  0.33740467175744027  0.8844760157624592  0.17758938240863387  1.0000
  O   O19       1.0  0.162593642494123  0.884476514551068  0.6775907657461671  1.0000
  O   O20       1.0  0.6625918640095776  0.115525490515175  0.822411268191743  1.0000
  O   O21       1.0  0.04216432302050071  0.9784646112541321  0.35555761970302047  1.0000
  O   O22       1.0  0.5421699125533692  0.0215314827446349  0.14444031469972873  1.0000
  O   O23       1.0  0.9578308784107109  0.02153223908114651  0.6444414588196421  1.0000
  O   O24       1.0  0.45782662321285267  0.9784690883467777  0.8555602957578612  1.0000
  O   O25       1.0  0.6225721910048563  0.9628697926317642  0.40206730234578447  1.0000
  O   O26       1.0  0.122576055244572  0.0371310292661775  0.09793201448943727  1.0000
  O   O27       1.0  0.3774296821417877  0.037127972903356  0.5979331876771424  1.0000
  O   O28       1.0  0.8774244835658392  0.9628723540488339  0.9020682592700096  1.0000
  O   O29       1.0  0.43561002389529335  0.0893714454513201  0.45327594902626317  1.0000
  O   O30       1.0  0.9356105610282839  0.9106315136334902  0.0467236240154705  1.0000
  O   O31       1.0  0.5643905149118922  0.9106281971187754  0.5467241641620361  1.0000
  O   O32       1.0  0.0643859747411568  0.08937279820283094  0.953277147013267  1.0000
  O   O33       1.0  0.8964238818302448  0.165051219976597  0.17651673084093736  1.0000
  O   O34       1.0  0.3964199047505659  0.8349479699561614  0.3234823169370599  1.0000
  O   O35       1.0  0.10357665697775081  0.8349493577797351  0.8234834224901487  1.0000
  O   O36       1.0  0.6035792997016217  0.16505165928709434  0.6765187104963741  1.0000
