data_image0
_chemical_formula_structural       Zn8H72C88N40
_chemical_formula_sum              "Zn8 H72 C88 N40"
_cell_length_a       14.495789746778668
_cell_length_b       17.048577686163537
_cell_length_c       16.76118732478697
_cell_angle_alpha    89.95752901641052
_cell_angle_beta     90.11164450736283
_cell_angle_gamma    108.69554180683029

_space_group_name_H-M_alt    "P 1"
_space_group_IT_number       1

loop_
  _space_group_symop_operation_xyz
  'x, y, z'

loop_
  _atom_site_type_symbol
  _atom_site_label
  _atom_site_symmetry_multiplicity
  _atom_site_fract_x
  _atom_site_fract_y
  _atom_site_fract_z
  _atom_site_occupancy
  Zn  Zn1       1.0  0.53575226538112  0.5106906535221752  0.10303941389478413  1.0000
  Zn  Zn2       1.0  0.5013136979972473  0.4619837796050561  0.8448015649917481  1.0000
  Zn  Zn3       1.0  0.9933294783683095  0.9514097887367968  0.6599784141373563  1.0000
  Zn  Zn4       1.0  0.0421908342652628  0.0145770708302138  0.40112155468759175  1.0000
  Zn  Zn5       1.0  0.7036984497784289  0.5378700424893736  0.9630493137913734  1.0000
  Zn  Zn6       1.0  0.3185162971741916  0.4828006053244777  0.9986691281269416  1.0000
  Zn  Zn7       1.0  0.1977107659497932  0.026771949694783404  0.545467167810422  1.0000
  Zn  Zn8       1.0  0.8223058331738641  0.9773139842364031  0.5012505824506165  1.0000
  H   H1        1.0  0.6087655123816447  0.672486883371633  0.19011740534869404  1.0000
  H   H2        1.0  0.22687209031094108  0.3216917117147772  0.9291261044021585  1.0000
  H   H3        1.0  0.4956090756467901  0.34059241839960214  0.17647285365753623  1.0000
  H   H4        1.0  0.5086112000533519  0.6323841937401937  0.7871076643154283  1.0000
  H   H5        1.0  0.012507101093191907  0.1118533737306961  0.7461287630228172  1.0000
  H   H6        1.0  0.011817458744154415  0.8472660605802744  0.3256566695326272  1.0000
  H   H7        1.0  0.7186845408010853  0.8156537274623119  0.5715246734836584  1.0000
  H   H8        1.0  0.10198582086142952  0.1924431611726973  0.33436674437847813  1.0000
  H   H9        1.0  0.35691308859563964  0.4801696181770367  0.6969409500783289  1.0000
  H   H10       1.0  0.6303812275033138  0.4075388061586835  0.23044535151591114  1.0000
  H   H11       1.0  0.5064118303467993  0.273851988178329  0.8068665415158025  1.0000
  H   H12       1.0  0.4657161152411786  0.617022313960717  0.25387214525920854  1.0000
  H   H13       1.0  0.9759552661471884  0.12037429920339088  0.24950138509669992  1.0000
  H   H14       1.0  0.9879286177167826  0.75754966448158  0.6841529519277857  1.0000
  H   H15       1.0  0.14705622212422761  0.930145651434991  0.2655888331610329  1.0000
  H   H16       1.0  0.8451215010228948  0.9761328857556533  0.8030286556051254  1.0000
  H   H17       1.0  0.2993630401923752  0.6582612159693895  0.053049040145616316  1.0000
  H   H18       1.0  0.7576095062585324  0.3728970881191955  0.9602609340477317  1.0000
  H   H19       1.0  0.866290243587862  0.4620033321603926  0.06041340584552301  1.0000
  H   H20       1.0  0.2883667634230491  0.6142568042210146  0.8948508880148084  1.0000
  H   H21       1.0  0.8032451248897059  0.1191603197931101  0.6010678369420719  1.0000
  H   H22       1.0  0.3613289298459392  0.9454728783703813  0.44966391032814107  1.0000
  H   H23       1.0  0.2425513978271852  0.860765688456425  0.5367553886941466  1.0000
  H   H24       1.0  0.784431686815381  0.1426842275073597  0.43951351641511854  1.0000
  H   H25       1.0  0.7984572793903836  0.3154571954495324  0.7557255378566554  1.0000
  H   H26       1.0  0.19074071349956506  0.6712447966109281  0.24337261897580484  1.0000
  H   H27       1.0  0.14599538817775942  0.5236381471154631  0.6330338153412001  1.0000
  H   H28       1.0  0.9685673760883019  0.41649806715513904  0.24027119244217945  1.0000
  H   H29       1.0  0.4746888090833109  0.9228348715878381  0.2605688494781475  1.0000
  H   H30       1.0  0.6506620446053046  0.03552261620514939  0.8631097197652339  1.0000
  H   H31       1.0  0.6856021486956934  0.1635429385468186  0.25157604031230824  1.0000
  H   H32       1.0  0.2799856730049298  0.8065946828176748  0.7362865838878322  1.0000
  H   H33       1.0  0.3877991235375332  0.8450458529894644  0.11714154973363833  1.0000
  H   H34       1.0  0.7563952788382763  0.17693292595600948  0.953404367339289  1.0000
  H   H35       1.0  0.773652316607716  0.2456907474832164  0.10938399842376614  1.0000
  H   H36       1.0  0.18116087170714934  0.6635237568517172  0.8287385623246523  1.0000
  H   H37       1.0  0.6933048313856459  0.17326442716355928  0.6652956185927085  1.0000
  H   H38       1.0  0.27746102608951867  0.7501624545614831  0.38753801520815057  1.0000
  H   H39       1.0  0.24491880848371025  0.6656435350458378  0.5409641049338064  1.0000
  H   H40       1.0  0.8800271545730283  0.3354634157541271  0.38193205537258734  1.0000
  H   H41       1.0  0.20077061653428527  0.8286796015761057  0.18001626147452754  1.0000
  H   H42       1.0  0.9015867201112043  0.21953822113763982  0.8338767881285636  1.0000
  H   H43       1.0  0.9601074121671188  0.2616283049843275  0.17423562228510292  1.0000
  H   H44       1.0  0.037325881882402705  0.6122110344548162  0.7084541012701352  1.0000
  H   H45       1.0  0.5490115382891503  0.1295418976767166  0.7851799215758463  1.0000
  H   H46       1.0  0.4644104680289445  0.7660426606707206  0.3241908736349189  1.0000
  H   H47       1.0  0.39007448224893426  0.7155245223572989  0.6610759615373996  1.0000
  H   H48       1.0  0.6937788483624913  0.3195875187887367  0.3174773399354009  1.0000
  H   H49       1.0  0.5459162643729911  0.7907936380232529  0.7540044989852535  1.0000
  H   H50       1.0  0.3973376085873852  0.28374866614526434  0.3251187101588684  1.0000
  H   H51       1.0  0.2552733618590254  0.291957811095827  0.7903007731829564  1.0000
  H   H52       1.0  0.73379114423755  0.7060319432154785  0.28799623890325426  1.0000
  H   H53       1.0  0.20567374050002474  0.2424664112005246  0.23223108136350132  1.0000
  H   H54       1.0  0.7540428418030061  0.7972895814817136  0.7105716911117386  1.0000
  H   H55       1.0  0.885808508766239  0.81422165988144  0.17232575625824612  1.0000
  H   H56       1.0  0.04154193008446331  0.2730453166078349  0.7526860002964499  1.0000
  H   H57       1.0  0.8826832029241273  0.6719377855688292  0.8187494813274869  1.0000
  H   H58       1.0  0.8635022251367204  0.7610221641675637  0.7948230378220629  1.0000
  H   H59       1.0  0.1600218634733537  0.35671544394521254  0.05939323713077022  1.0000
  H   H60       1.0  0.13997294148782657  0.2830161819411217  0.13481237368181107  1.0000
  H   H61       1.0  0.9685927726169294  0.3997252603098431  0.7855014474917329  1.0000
  H   H62       1.0  0.9904058835174395  0.48435959079639446  0.8426962241559793  1.0000
  H   H63       1.0  0.859699404729909  0.7247380085839835  0.9530120080099638  1.0000
  H   H64       1.0  0.9174721131904846  0.7636236352965611  0.03934139068608292  1.0000
  H   H65       1.0  0.38986851581089604  0.12972487239121483  0.46440279980777893  1.0000
  H   H66       1.0  0.42748490412420637  0.2313607095716748  0.4539809430689915  1.0000
  H   H67       1.0  0.5124082393589688  0.006725587192661913  0.6543032909628795  1.0000
  H   H68       1.0  0.48459170238564997  0.9243993207606991  0.7157286200386181  1.0000
  H   H69       1.0  0.6606145264976888  0.7881997038442917  0.35484006873072366  1.0000
  H   H70       1.0  0.6698380137756245  0.8447092144587743  0.44033368608330653  1.0000
  H   H71       1.0  0.35303605226570767  0.19221194315353782  0.6026278532254211  1.0000
  H   H72       1.0  0.34272160430116827  0.2660152713448057  0.6644598102340568  1.0000
  C   C1        1.0  0.6561746836910131  0.6716109877866288  0.14039719105148415  1.0000
  C   C2        1.0  0.18367200174452583  0.3611870141630007  0.9134505241439187  1.0000
  C   C3        1.0  0.4315317821065817  0.3489506045938313  0.14906293073714497  1.0000
  C   C4        1.0  0.5822551419111831  0.6362884887888213  0.8043399747795591  1.0000
  C   C5        1.0  0.08255544699753159  0.11860738707588331  0.7188243740697972  1.0000
  C   C6        1.0  0.9464749543128618  0.8506310119667262  0.35495598595934313  1.0000
  C   C7        1.0  0.6815906477195383  0.8601978605426835  0.5855141096375506  1.0000
  C   C8        1.0  0.153738384682633  0.18136053439259572  0.37608214312572136  1.0000
  C   C9        1.0  0.2593125393324485  0.8143688922572282  0.21216108611245946  1.0000
  C   C10       1.0  0.8229736503123489  0.20044392876159378  0.8229006798198314  1.0000
  C   C11       1.0  0.9004412135772455  0.274233759092006  0.20614375229518345  1.0000
  C   C12       1.0  0.1160422839475074  0.636372076148909  0.6982666478861576  1.0000
  C   C13       1.0  0.6277154734001865  0.15020526031550216  0.7957164856164597  1.0000
  C   C14       1.0  0.40548397842464107  0.7798918464932071  0.29212163827150317  1.0000
  C   C15       1.0  0.3113329575121996  0.6936120288102148  0.671555000598815  1.0000
  C   C16       1.0  0.7528690849183874  0.3061423370967518  0.28552245119919223  1.0000
  C   C17       1.0  0.6145218269816513  0.8083002010558077  0.7205943483801323  1.0000
  C   C18       1.0  0.31917849196008763  0.25848992471154725  0.3127143212798202  1.0000
  C   C19       1.0  0.18280395445810171  0.26304131810074693  0.7643348290089379  1.0000
  C   C20       1.0  0.7999629065053638  0.7560636545525341  0.27103043419518974  1.0000
  C   C21       1.0  0.2846881213001353  0.2694865105038885  0.23973740944111202  1.0000
  C   C22       1.0  0.683443790636737  0.7730601966305742  0.7407552185703068  1.0000
  C   C23       1.0  0.8201433245003569  0.765360965690256  0.19201696061774245  1.0000
  C   C24       1.0  0.11190163256244286  0.2962793410594671  0.783500088334691  1.0000
  C   C25       1.0  0.3479299128399802  0.5069307528618124  0.754037973981916  1.0000
  C   C26       1.0  0.6795325441967178  0.4279076663567594  0.1802543367577415  1.0000
  C   C27       1.0  0.5639201192824215  0.3100216215904936  0.8463305727610122  1.0000
  C   C28       1.0  0.42833085369503715  0.6162068695632072  0.19744554994255745  1.0000
  C   C29       1.0  0.9328978130134898  0.11546318208903729  0.3034071428286041  1.0000
  C   C30       1.0  0.0466970945792866  0.7952008195152162  0.6468243818945468  1.0000
  C   C31       1.0  0.19176491633707818  0.9415387152094252  0.31912708708255627  1.0000
  C   C32       1.0  0.8425475683678555  0.004568205386611606  0.745386807561637  1.0000
  C   C33       1.0  0.7408280337064709  0.6681826734226135  0.8218267514354168  1.0000
  C   C34       1.0  0.2832707338750352  0.3445107101508072  0.11111869021970482  1.0000
  C   C35       1.0  0.08392303212156088  0.42147734439828355  0.8613645071916239  1.0000
  C   C36       1.0  0.776479576088242  0.6940510394476078  0.053749187947524014  1.0000
  C   C37       1.0  0.2815628128511277  0.1778736241706937  0.44562068800139804  1.0000
  C   C38       1.0  0.5927681763869471  0.9317892422268556  0.6353675852357128  1.0000
  C   C39       1.0  0.7969361014204563  0.8335688922736396  0.3975985947470024  1.0000
  C   C40       1.0  0.23514359883359498  0.15924092996413458  0.6764588932641616  1.0000
  C   C41       1.0  0.3440118701309983  0.6377685334439532  0.09512651313147562  1.0000
  C   C42       1.0  0.6922909652930825  0.3612573765452112  0.9242335738940358  1.0000
  C   C43       1.0  0.8002518689320508  0.45566651934864666  0.09411685024370094  1.0000
  C   C44       1.0  0.31542191310617795  0.5762392051461233  0.8553548367661536  1.0000
  C   C45       1.0  0.8229808366871862  0.07784929459181458  0.6420352254261134  1.0000
  C   C46       1.0  0.30122465801953513  0.9493771693611562  0.4126062097269668  1.0000
  C   C47       1.0  0.17651202815854816  0.8483043946749972  0.57170537621478  1.0000
  C   C48       1.0  0.8359266299281103  0.12749170476092794  0.40033716146658094  1.0000
  C   C49       1.0  0.7559892151167914  0.7148168593639  0.13196324537776863  1.0000
  C   C50       1.0  0.12368526951217967  0.3559824959735138  0.8470202843649945  1.0000
  C   C51       1.0  0.33356207442272273  0.31531810160558377  0.17137920753152974  1.0000
  C   C52       1.0  0.6694494485371435  0.7000332604625398  0.7895135761634794  1.0000
  C   C53       1.0  0.16755872196053187  0.18662818927894878  0.7207518609908093  1.0000
  C   C54       1.0  0.8491028195954582  0.8086788456636711  0.33645975435050707  1.0000
  C   C55       1.0  0.6264103710140887  0.8632806007124287  0.6529314975035592  1.0000
  C   C56       1.0  0.2561052662140213  0.2119138300527084  0.3753383617393667  1.0000
  C   C57       1.0  0.30373771994256066  0.566722290370386  0.7722791279353062  1.0000
  C   C58       1.0  0.7664722024696997  0.41134399020884166  0.16467060575011772  1.0000
  C   C59       1.0  0.6460719795347174  0.29282164372057917  0.8751986194919682  1.0000
  C   C60       1.0  0.37822657770192336  0.6693146038590142  0.17066845804492203  1.0000
  C   C61       1.0  0.8738798849278877  0.16242072701906102  0.32672525746530573  1.0000
  C   C62       1.0  0.128866036203668  0.7782384951980247  0.6180222003797768  1.0000
  C   C63       1.0  0.2726043049027069  0.9161889441465192  0.33646287013349513  1.0000
  C   C64       1.0  0.8072901395090283  0.0693876243524443  0.7248342538716345  1.0000
  C   C65       1.0  0.36265890043302557  0.8240120071091254  0.17745482077197752  1.0000
  C   C66       1.0  0.7425933688487234  0.176311910591231  0.8890648481155383  1.0000
  C   C67       1.0  0.7974798768828676  0.2645774754813033  0.17050685653880043  1.0000
  C   C68       1.0  0.19583878412913688  0.6648511194050074  0.764645522144747  1.0000
  C   C69       1.0  0.7077498596705354  0.17476586709335615  0.7294969900147168  1.0000
  C   C70       1.0  0.3022221278633667  0.7701178221540632  0.32687932836316247  1.0000
  C   C71       1.0  0.2311122446407197  0.6655232065203548  0.6052227654448289  1.0000
  C   C72       1.0  0.8559007604573948  0.3157983084520879  0.32104664719925324  1.0000
  C   C73       1.0  0.7670540745287298  0.25226159251174357  0.7787854854426756  1.0000
  C   C74       1.0  0.25305706599089456  0.728039770136789  0.24802087689156593  1.0000
  C   C75       1.0  0.17631784414985666  0.586834272566321  0.6559183884641019  1.0000
  C   C76       1.0  0.9054794156927811  0.36010598043225167  0.24288534891375957  1.0000
  C   C77       1.0  0.4115008932963561  0.866573350461003  0.2566642427450391  1.0000
  C   C78       1.0  0.6840638784386285  0.0980147267724334  0.8393178883114133  1.0000
  C   C79       1.0  0.7476977800443193  0.2206615235408336  0.24841607898542867  1.0000
  C   C80       1.0  0.25161380557749163  0.7427201077008759  0.7144825988479868  1.0000
  C   C81       1.0  0.6853582586316377  0.2289054117543755  0.8454649349801077  1.0000
  C   C82       1.0  0.3570478073825072  0.7367004064184784  0.21276958442328467  1.0000
  C   C83       1.0  0.25650002588391624  0.6145889656789406  0.723509560838636  1.0000
  C   C84       1.0  0.8015380589771439  0.35126049768297213  0.20720736911872004  1.0000
  C   C85       1.0  0.3071604610182774  0.8574419971347566  0.29157591235318864  1.0000
  C   C86       1.0  0.7643080924324152  0.12163236245295651  0.7718507597784098  1.0000
  C   C87       1.0  0.8513766850070965  0.22924471709723804  0.28446262713742243  1.0000
  C   C88       1.0  0.17003810083441812  0.7154199239720854  0.6477062470163304  1.0000
  N   N1        1.0  0.6199568502945424  0.6269839725799288  0.07448658960184673  1.0000
  N   N2        1.0  0.18153287217967318  0.42470267785747495  0.9615295473064195  1.0000
  N   N3        1.0  0.44102339598639156  0.39610365786699475  0.08225074817143961  1.0000
  N   N4        1.0  0.6001668699293815  0.5719678511938753  0.8402844264931418  1.0000
  N   N5        1.0  0.09730405976636547  0.05521090579260599  0.6788111161180128  1.0000
  N   N6        1.0  0.9537780357911388  0.8983164197085146  0.42133582670705044  1.0000
  N   N7        1.0  0.6827206405294461  0.921869320098331  0.5337020363113042  1.0000
  N   N8        1.0  0.1209037196575977  0.13088189083783422  0.4397143923555121  1.0000
  N   N9        1.0  0.38112825195411654  0.48196252214957275  0.8222895526847369  1.0000
  N   N10       1.0  0.661624160551419  0.4768228264838257  0.12309266917938542  1.0000
  N   N11       1.0  0.5634832604767225  0.3842069956658066  0.8750897253049815  1.0000
  N   N12       1.0  0.42493140899217957  0.5577004409032256  0.14219474322025863  1.0000
  N   N13       1.0  0.93111819240179  0.05746575222152471  0.35894809919213344  1.0000
  N   N14       1.0  0.047560805462374754  0.870831944208028  0.6208601123767894  1.0000
  N   N15       1.0  0.17249215735344584  0.9853073903922361  0.3802827754101443  1.0000
  N   N16       1.0  0.8746489629837056  0.9758696684671831  0.6787908931760996  1.0000
  N   N17       1.0  0.699922686529888  0.5912419981358354  0.8514964870641537  1.0000
  N   N18       1.0  0.3477942793404978  0.39199165973084144  0.05822881081709852  1.0000
  N   N19       1.0  0.11947545050107777  0.46311447260805483  0.9284239986876559  1.0000
  N   N20       1.0  0.6953546670197281  0.6402893029404949  0.020555285532523702  1.0000
  N   N21       1.0  0.2006146372949402  0.13073348957232872  0.4834484148714326  1.0000
  N   N22       1.0  0.6271294713368291  0.9672365649146571  0.5654078826724885  1.0000
  N   N23       1.0  0.8595415197652441  0.8873606122425173  0.44760825614968525  1.0000
  N   N24       1.0  0.19359855412513133  0.07966303039473391  0.653019311578646  1.0000
  N   N25       1.0  0.3721627200648426  0.5715303086482919  0.07875594824385253  1.0000
  N   N26       1.0  0.6430093346913707  0.4162008589386944  0.9230950022780677  1.0000
  N   N27       1.0  0.7371530335010803  0.49426487824276694  0.06974660054811473  1.0000
  N   N28       1.0  0.3621955671795334  0.5263234116456843  0.885190444858246  1.0000
  N   N29       1.0  0.8636579803961766  0.022665873136695294  0.614535410143816  1.0000
  N   N30       1.0  0.24107953358095807  0.99010683088337  0.4384425128424497  1.0000
  N   N31       1.0  0.12820251331856258  0.9038941262664224  0.5746435177524845  1.0000
  N   N32       1.0  0.8705951080134396  0.0653594829988009  0.418989894311622  1.0000
  N   N33       1.0  0.8409880736175238  0.7089581642213857  0.8288749088217674  1.0000
  N   N34       1.0  0.1858200180453977  0.3335028493468997  0.1078194416326497  1.0000
  N   N35       1.0  0.020790151243779982  0.44712289271685524  0.8123200071681326  1.0000
  N   N36       1.0  0.8643972704648134  0.7165423180917473  0.013334282136433702  1.0000
  N   N37       1.0  0.373660220625446  0.182565868252027  0.4773246891889756  1.0000
  N   N38       1.0  0.538174584340389  0.9662344445775728  0.6844495508765719  1.0000
  N   N39       1.0  0.6972972437525868  0.8071296231570102  0.406639341386857  1.0000
  N   N40       1.0  0.3305131669789958  0.20418289953760646  0.6581859142758547  1.0000
