data_image0
_chemical_formula_structural       Cd2H48C56S8N12
_chemical_formula_sum              "Cd2 H48 C56 S8 N12"
_cell_length_a       5.412471011514634
_cell_length_b       15.643826538
_cell_length_c       17.641
_cell_angle_alpha    90.0
_cell_angle_beta     89.97914581197888
_cell_angle_gamma    90.0

_space_group_name_H-M_alt    "P 1"
_space_group_IT_number       1

loop_
  _space_group_symop_operation_xyz
  'x, y, z'

loop_
  _atom_site_type_symbol
  _atom_site_label
  _atom_site_symmetry_multiplicity
  _atom_site_fract_x
  _atom_site_fract_y
  _atom_site_fract_z
  _atom_site_occupancy
  Cd  Cd1       1.0  0.4999990158838088  0.4999978733464019  0.5000002835405439  1.0000
  Cd  Cd2       1.0  0.5000082538091846  0.9999989428417706  1.9830927939999954e-06  1.0000
  H   H1        1.0  0.7708180362488548  0.16065442773193434  0.5150117050319453  1.0000
  H   H2        1.0  0.22917445276354442  0.6606586933762626  0.9849882958068151  1.0000
  H   H3        1.0  0.2292169472202801  0.8393425974204545  0.48499169222912303  1.0000
  H   H4        1.0  0.7708106459085472  0.3393434456144674  0.015006037244347702  1.0000
  H   H5        1.0  0.4530260129246031  0.3367584003314761  0.5742853318266867  1.0000
  H   H6        1.0  0.5469683236728642  0.8367620267460154  0.9257146688057603  1.0000
  H   H7        1.0  0.5469941898639235  0.6632347894421498  0.4257214682527035  1.0000
  H   H8        1.0  0.4530149274141452  0.1632401122447149  0.07428419934204562  1.0000
  H   H9        1.0  0.7449499976069447  0.0855442878217403  0.38714372476076875  1.0000
  H   H10       1.0  0.2550424914054474  0.5855498319256538  0.11285570921671  1.0000
  H   H11       1.0  0.2550646624263564  0.9144533765604448  0.6128557067408309  1.0000
  H   H12       1.0  0.7449555403621702  0.4144503893757018  0.8871397561127736  1.0000
  H   H13       1.0  0.007785723508106902  0.0471374441674328  0.2763309711538255  1.0000
  H   H14       1.0  0.9922160034296612  0.5471372352032162  0.2236684617920304  1.0000
  H   H15       1.0  0.9922326316953446  0.9528685302020605  0.7236678930738378  1.0000
  H   H16       1.0  0.0077968090185578  0.45286234686834337  0.7763292693320241  1.0000
  H   H17       1.0  0.3778329955223896  0.13501747765288025  0.2446559531205068  1.0000
  H   H18       1.0  0.6221594934900025  0.6350147117694931  0.2553457483021262  1.0000
  H   H19       1.0  0.6221705790004606  0.864989775176191  0.7553417790351631  1.0000
  H   H20       1.0  0.37785701412836664  0.3649835918424813  0.7446553835770189  1.0000
  H   H21       1.0  0.4791416279666265  0.2627023503499828  0.32383799620162534  1.0000
  H   H22       1.0  0.5208508610457656  0.7626989452367994  0.17616370522100772  1.0000
  H   H23       1.0  0.5208693368965243  0.7373029847897214  0.676158601406172  1.0000
  H   H24       1.0  0.4791490183069272  0.2372968014560044  0.8238402628214915  1.0000
  H   H25       1.0  0.2184288979645004  0.300570962518556  0.4339838838541468  1.0000
  H   H26       1.0  0.7815562007075911  0.8005745889330951  0.06601838525506312  1.0000
  H   H27       1.0  0.7815968475792516  0.6994305372423852  0.5660172469933827  1.0000
  H   H28       1.0  0.2184270503794252  0.1994237146788791  0.9339833171991786  1.0000
  H   H29       1.0  0.2682102302384521  0.1586280692880422  0.5888391602429834  1.0000
  H   H30       1.0  0.7317896491142406  0.6586342526217519  0.9111512031285756  1.0000
  H   H31       1.0  0.7318081249649994  0.8413721520133137  0.4111665063201499  1.0000
  H   H32       1.0  0.2681991447280012  0.341375557126497  0.0888346265906037  1.0000
  H   H33       1.0  0.31098367232107904  0.0449282660027421  0.6880368098274234  1.0000
  H   H34       1.0  0.6889792553301106  0.5449427593237601  0.8119478890577057  1.0000
  H   H35       1.0  0.6890476159778984  0.9550674806900616  0.311966020985011  1.0000
  H   H36       1.0  0.3109522633747943  0.4550721642628304  0.1880345458897565  1.0000
  H   H37       1.0  0.6703574453542629  0.046922023727184084  0.7755994215652536  1.0000
  H   H38       1.0  0.3295925492013936  0.546935877818413  0.7243954822673331  1.0000
  H   H39       1.0  0.3296701477745643  0.9530724445060341  0.22440000849208272  1.0000
  H   H40       1.0  0.6703260364079782  0.453077128078803  0.2755999919340297  1.0000
  H   H41       1.0  0.9832053310165066  0.16265457775430284  0.7665831350545815  1.0000
  H   H42       1.0  0.0167317304436168  0.6626658749263612  0.7334231074480472  1.0000
  H   H43       1.0  0.0168315000376964  0.8373322197213964  0.23341856141630055  1.0000
  H   H44       1.0  0.9831683793149963  0.3373420171325066  0.26658313918104437  1.0000
  H   H45       1.0  0.9394637543543283  0.2761664474804633  0.6676752597020512  1.0000
  H   H46       1.0  0.0605102588073123  0.7761751877333436  0.8323360804257194  1.0000
  H   H47       1.0  0.06058785738048301  0.7238209892250325  0.3323287025634016  1.0000
  H   H48       1.0  0.9394360405781939  0.2238333435553201  0.1676712947678709  1.0000
  C   C1        1.0  0.9770972147569452  0.5529503909409783  0.3964976542422178  1.0000
  C   C2        1.0  0.0229119025211304  0.0529601883520954  0.10350858021381981  1.0000
  C   C3        1.0  0.022884188744996  0.4470383242240955  0.603502914695774  1.0000
  C   C4        1.0  0.9771009099270955  0.947034919110912  0.8964982206908587  1.0000
  C   C5        1.0  0.704232917713334  0.2862042729203295  0.49994743275053116  1.0000
  C   C6        1.0  0.2957651140542836  0.7862091777944542  5.540177571110001e-05  1.0000
  C   C7        1.0  0.2957891326602606  0.7137927522320593  0.500056532816089  1.0000
  C   C8        1.0  0.7042273749581085  0.213792321966487  0.9999457327856334  1.0000
  C   C9        1.0  0.9686666840574959  0.1942453141255882  0.4180132490580135  1.0000
  C   C10       1.0  0.0313295001250538  0.6942495797699166  0.08198901881326043  1.0000
  C   C11       1.0  0.0313516711459556  0.8057549071757677  0.5819884494761001  1.0000
  C   C12       1.0  0.9686629888873384  0.3057487238420578  0.9180109820254999  1.0000
  C   C13       1.0  0.9098783745405399  0.12275896791204838  0.3737785578823249  1.0000
  C   C14       1.0  0.0901104193017019  0.6227619550967916  0.1262208765077943  1.0000
  C   C15       1.0  0.0901307427375357  0.877244449538267  0.6262191736543772  1.0000
  C   C16       1.0  0.9098913076360661  0.377233152366216  0.8737751552703372  1.0000
  C   C17       1.0  0.0569887616534288  0.101733421559878  0.3115576062660567  1.0000
  C   C18       1.0  0.9430166604544894  0.6017325733658649  0.18844295998973593  1.0000
  C   C19       1.0  0.9430258983798723  0.8982744704989896  0.6884406915129659  1.0000
  C   C20       1.0  0.056990609238504006  0.3982650910163129  0.8115542048920048  1.0000
  C   C21       1.0  0.26205777193708  0.1518183543029537  0.2930567284274873  1.0000
  C   C22       1.0  0.7379402598305447  0.6518168668791444  0.2069449723761778  1.0000
  C   C23       1.0  0.7379513453409957  0.8481882592963359  0.7069427036930805  1.0000
  C   C24       1.0  0.2620780953729067  0.3481827151924151  0.7930555924353585  1.0000
  C   C25       1.0  0.3184146594946924  0.2234830456287398  0.3371097286503471  1.0000
  C   C26       1.0  0.6815778295176997  0.7234828366645232  0.1628925396335745  1.0000
  C   C27       1.0  0.6815981529535335  0.7765216502811612  0.6628885693349958  1.0000
  C   C28       1.0  0.3184238974200682  0.2765180238666218  0.8371097276187316  1.0000
  C   C29       1.0  0.1730355802448358  0.24492025596762085  0.39964452808270323  1.0000
  C   C30       1.0  0.826949518427256  0.7449213254629894  0.10035830788780231  1.0000
  C   C31       1.0  0.8269790797884653  0.755079965333735  0.6003543365576078  1.0000
  C   C32       1.0  0.1730485133403619  0.2550782566085772  0.8996428260545741  1.0000
  C   C33       1.0  0.6028282108451748  0.2229601556580505  0.6223996614945122  1.0000
  C   C34       1.0  0.3971568878269167  0.7229676174513457  0.8776003401695506  1.0000
  C   C35       1.0  0.3971993822836524  0.7770362302645495  0.3776043034531398  1.0000
  C   C36       1.0  0.6028115825794913  0.2770409138373182  0.12239456159981191  1.0000
  C   C37       1.0  0.4251884485922233  0.15819914609692626  0.6275796371382754  1.0000
  C   C38       1.0  0.5747966500798682  0.6582059686604254  0.8724129953290288  1.0000
  C   C39       1.0  0.5748299066112281  0.8417953221362919  0.37241979395068375  1.0000
  C   C40       1.0  0.4251773630817723  0.3418000057090608  0.12757907151492281  1.0000
  C   C41       1.0  0.4503691855860481  0.0948565874465217  0.6828826468286594  1.0000
  C   C42       1.0  0.5495992848203599  0.5948678846185729  0.8171077200503873  1.0000
  C   C43       1.0  0.5496528647875536  0.9051449123144193  0.31712528676698076  1.0000
  C   C44       1.0  0.450345166980064  0.405148956657399  0.18287698089796584  1.0000
  C   C45       1.0  0.6517411781336477  0.0961561416157366  0.7322830944889205  1.0000
  C   C46       1.0  0.3482106640070839  0.5961642426388281  0.7677123759986345  1.0000
  C   C47       1.0  0.34829011016532974  0.9038396050770601  0.2677180357396409  1.0000
  C   C48       1.0  0.6517171595276637  0.4038468455690065  0.2322813965872541  1.0000
  C   C49       1.0  0.8281800100875287  0.1611396031448393  0.7272030205419285  1.0000
  C   C50       1.0  0.1717810699785787  0.6611534572360682  0.7727986843881922  1.0000
  C   C51       1.0  0.1718531257965239  0.8388542258585829  0.2728043449544941  1.0000
  C   C52       1.0  0.8281541438964767  0.3388614663505293  0.2271967879562666  1.0000
  C   C53       1.0  0.8044791887391654  0.22467840534169875  0.6721866773991395  1.0000
  C   C54       1.0  0.1954892816672427  0.7246871455945794  0.8278184278734244  1.0000
  C   C55       1.0  0.19555579472996243  0.7753090313637967  0.3278127518329086  1.0000
  C   C56       1.0  0.8044625604734891  0.2753194680047031  0.17218271122702336  1.0000
  S   S1        1.0  0.22466265000920063  0.507030040299469  0.3643017637650631  1.0000
  S   S2        1.0  0.7753390769285744  0.0070385592509936  0.13570220407110872  1.0000
  S   S3        1.0  0.7753390769285744  0.4929561179464414  0.6356988029033772  1.0000
  S   S4        1.0  0.22466634517935094  0.9929616620503622  0.8643006296298383  1.0000
  S   S5        1.0  0.7098920707995547  0.3694876049641351  0.4382995018774736  1.0000
  S   S6        1.0  0.2901004182128375  0.8694905921488782  0.0617061675741795  1.0000
  S   S7        1.0  0.2901151988934387  0.6305087809584577  0.561703331617153  1.0000
  S   S8        1.0  0.7099031563100127  0.13050962915247055  0.9383006343621147  1.0000
  N   N1        1.0  0.7935285519967509  0.5853503922302323  0.4200967489797947  1.0000
  N   N2        1.0  0.2064694797708668  0.08535507580300107  0.0799100535754675  1.0000
  N   N3        1.0  0.20648980320670066  0.4146344875560928  0.579899280941426  1.0000
  N   N4        1.0  0.7935248568266006  0.9146368355110466  0.9200990168375968  1.0000
  N   N5        1.0  0.8221975296130992  0.2118701579788649  0.48299587726697263  1.0000
  N   N6        1.0  0.177783873888842  0.7118737843934042  0.017006392254884907  1.0000
  N   N7        1.0  0.1778263683455776  0.7881268671735242  0.5170075212320385  1.0000
  N   N8        1.0  0.8221975296130992  0.2881264369079517  0.982991342376657  1.0000
  N   N9        1.0  0.5806331713333323  0.2881488099507052  0.5659563603340205  1.0000
  N   N10       1.0  0.41937225077458623  0.7881524363652446  0.9340464733669268  1.0000
  N   N11       1.0  0.41940181213579564  0.7118488544314729  0.43404987123349775  1.0000
  N   N12       1.0  0.5806073051422801  0.2118509810850711  0.06595069460965423  1.0000
