data_image0
_chemical_formula_structural       Zn8H30C60I6O26
_chemical_formula_sum              "Zn8 H30 C60 I6 O26"
_cell_length_a       18.535129510650336
_cell_length_b       18.535872720724324
_cell_length_c       18.428208944448897
_cell_angle_alpha    119.6979538444215
_cell_angle_beta     120.25926229728958
_cell_angle_gamma    90.36757700127262

_space_group_name_H-M_alt    "P 1"
_space_group_IT_number       1

loop_
  _space_group_symop_operation_xyz
  'x, y, z'

loop_
  _atom_site_type_symbol
  _atom_site_label
  _atom_site_symmetry_multiplicity
  _atom_site_fract_x
  _atom_site_fract_y
  _atom_site_fract_z
  _atom_site_occupancy
  Zn  Zn1       1.0  0.8656892127915936  0.4573070447160318  0.907227867030194  1.0000
  Zn  Zn2       1.0  0.4547776453264729  0.867246696781578  0.9086483726185434  1.0000
  Zn  Zn3       1.0  0.041414112047817704  0.4538614912043214  0.9086518550109943  1.0000
  Zn  Zn4       1.0  0.039659623374283935  0.6283954178664217  0.07683076202398084  1.0000
  Zn  Zn5       1.0  0.44846004996244193  0.03718185168453654  0.07686280948267665  1.0000
  Zn  Zn6       1.0  0.44991826116164924  0.041523247901743436  0.9072131670540674  1.0000
  Zn  Zn7       1.0  0.039332031500236966  0.45385819908055686  0.07901940974673488  1.0000
  Zn  Zn8       1.0  0.6251687650938395  0.039693368408606544  0.07902502600824601  1.0000
  H   H1        1.0  0.6878889021759704  0.5940244807931805  0.9358950932954001  1.0000
  H   H2        1.0  0.3426809976578156  0.9668836580857417  0.5952526142637781  1.0000
  H   H3        1.0  0.6283660982367608  0.2525728950855353  0.5952562266543496  1.0000
  H   H4        1.0  0.6252021758924329  0.3461613120714944  0.5903809435592465  1.0000
  H   H5        1.0  0.2442162862659883  0.9651558158634685  0.5903874905292666  1.0000
  H   H6        1.0  0.3195940464611478  0.6476142464535712  0.06182698824942144  1.0000
  H   H7        1.0  0.4142331881292732  0.7422464158947265  0.06188344930508551  1.0000
  H   H8        1.0  0.34165445070473066  0.24772046141779205  0.9355871539652372  1.0000
  H   H9        1.0  0.5914701041433832  0.6866353057039166  0.9337729495639454  1.0000
  H   H10       1.0  0.24694753210727075  0.3420458683917643  0.9334679639598634  1.0000
  H   H11       1.0  0.8362759681206594  0.9447881647939271  0.04576034080717023  1.0000
  H   H12       1.0  0.10131890959094383  0.209894053559772  0.046429758576081774  1.0000
  H   H13       1.0  0.9768614939297534  0.876237239381979  0.1485371069344339  1.0000
  H   H14       1.0  0.2727093985555484  0.1721107535318609  0.1490608067224599  1.0000
  H   H15       1.0  0.9089075207026694  0.30013784070935423  0.587678373400131  1.0000
  H   H16       1.0  0.28754346238239487  0.6787575768967073  0.5876563785344259  1.0000
  H   H17       1.0  0.8113598433765573  0.20027033516613077  0.39666289008781036  1.0000
  H   H18       1.0  0.19638855842623568  0.58530225311101  0.3966444635785323  1.0000
  H   H19       1.0  0.5288892718803382  0.15152154735680767  0.4012251660193442  1.0000
  H   H20       1.0  0.2496917006929991  0.8723407523344164  0.40121811882617214  1.0000
  H   H21       1.0  0.165530161131393  0.8914539825647055  0.9616419394509563  1.0000
  H   H22       1.0  0.07012052243526758  0.7960575918322305  0.9615102900660658  1.0000
  H   H23       1.0  0.7703403205768565  0.051949796004229755  0.9182266710675362  1.0000
  H   H24       1.0  0.5262641141275424  0.24521381343691226  0.39641594999284996  1.0000
  H   H25       1.0  0.8662681054457765  0.14786673639530082  0.9182166978982877  1.0000
  H   H26       1.0  0.8440134486815793  0.11489768791609827  0.05525944704304213  1.0000
  H   H27       1.0  0.9403577789721779  0.21122623665428367  0.05525119491393584  1.0000
  H   H28       1.0  0.88010508139363  0.9728853453557704  0.17140515884195645  1.0000
  H   H29       1.0  0.19899408151490405  0.29177183420542724  0.17190902809008432  1.0000
  H   H30       1.0  0.15118998454959592  0.8701431228457893  0.39642064101965957  1.0000
  C   C1        1.0  0.1360773501036192  0.6370533627378094  0.2684895071029558  1.0000
  C   C2        1.0  0.20125143724523295  0.3128204585852075  0.005983007977675826  1.0000
  C   C3        1.0  0.3700614328430019  0.8553303458468307  0.0012224678290733372  1.0000
  C   C4        1.0  0.13865782764841578  0.36303144937774323  0.9981312460805684  1.0000
  C   C5        1.0  0.635090072132286  0.8594794249839881  0.9980924139906834  1.0000
  C   C6        1.0  0.8593530996761486  0.6384707976573979  0.9992934233349331  1.0000
  C   C7        1.0  0.3607915160244418  0.1398997013582317  0.9992901898718644  1.0000
  C   C8        1.0  0.8347403116949718  0.7846513599882029  0.04325610328147161  1.0000
  C   C9        1.0  0.6931474011388017  0.8047365202955632  0.005969294198827054  1.0000
  C   C10       1.0  0.2587054837822791  0.20862177301097526  0.04342375966803052  1.0000
  C   C11       1.0  0.803731043749181  0.6959970799183778  0.004246616332437648  1.0000
  C   C12       1.0  0.3082305968602626  0.20047979255213025  0.004248705556783132  1.0000
  C   C13       1.0  0.714789955047607  0.6629739958238547  0.9669317467408123  1.0000
  C   C14       1.0  0.3038290348763724  0.251971650537655  0.9667543878283169  1.0000
  C   C15       1.0  0.7817850727195859  0.8378237115624928  0.04647079818112565  1.0000
  C   C16       1.0  0.2087849255531395  0.2648212056178494  0.04666297000575529  1.0000
  C   C17       1.0  0.8528155027854608  0.9183305227624813  0.09171569908168195  1.0000
  C   C18       1.0  0.1737185812203705  0.2392652539528228  0.09220284877930851  1.0000
  C   C19       1.0  0.6314553931478953  0.13242562010776732  0.2685119033161101  1.0000
  C   C20       1.0  0.910033332601941  0.8563625773495646  0.08156283466122714  1.0000
  C   C21       1.0  0.22549916707421858  0.17185818842893502  0.08204204809540984  1.0000
  C   C22       1.0  0.7090422596897454  0.27738054652563443  0.547934107298886  1.0000
  C   C23       1.0  0.270561392339104  0.8388785031721041  0.5479242516728603  1.0000
  C   C24       1.0  0.8014289192520039  0.30751866981490394  0.6040773450255656  1.0000
  C   C25       1.0  0.29657009047780036  0.8026357531366415  0.6040675364391106  1.0000
  C   C26       1.0  0.8369356532546702  0.2780152665234821  0.5464119151581669  1.0000
  C   C27       1.0  0.2684031366118944  0.7094663427739009  0.5463940122762595  1.0000
  C   C28       1.0  0.7822319603231024  0.22191794582463598  0.4392927189318387  1.0000
  C   C29       1.0  0.2173774784306346  0.6570551009150096  0.43927668898790273  1.0000
  C   C30       1.0  0.6886324896936813  0.1916725480866859  0.382921943465135  1.0000
  C   C31       1.0  0.19124738967521884  0.6942850523206161  0.3829013545905013  1.0000
  C   C32       1.0  0.8596553397000976  0.3663339668874457  0.7183518397396612  1.0000
  C   C33       1.0  0.3520215622983328  0.8586873568679324  0.7183441445496398  1.0000
  C   C34       1.0  0.6541672339564785  0.2211116362841211  0.4404726018372573  1.0000
  C   C35       1.0  0.6607401134520144  0.7152078076251626  0.9663778880891201  1.0000
  C   C36       1.0  0.21936712503677555  0.7862983755482986  0.440460723322488  1.0000
  C   C37       1.0  0.569513374853095  0.21720877293027027  0.43464172383380634  1.0000
  C   C38       1.0  0.21742606094775813  0.8651237927947263  0.4346383192016529  1.0000
  C   C39       1.0  0.631668721337135  0.28062584680775154  0.5562086583885628  1.0000
  C   C40       1.0  0.2755811579924057  0.9245247423408574  0.5562075332944404  1.0000
  C   C41       1.0  0.2510620394731121  0.3054840829100698  0.9662051773937963  1.0000
  C   C42       1.0  0.1746749461583479  0.7368205854323123  0.9646908992866516  1.0000
  C   C43       1.0  0.22791377357462037  0.7900532573787304  0.9647311758559027  1.0000
  C   C44       1.0  0.2054005829448471  0.6861518969558846  0.0018107911930727982  1.0000
  C   C45       1.0  0.3157043267731578  0.7964353740356245  0.0018728012139773264  1.0000
  C   C46       1.0  0.29297528759488484  0.6885508789288579  0.035213015559186364  1.0000
  C   C47       1.0  0.3466761308641819  0.7422419389835967  0.03524429212879443  1.0000
  C   C48       1.0  0.15542909503635358  0.8208759561650324  0.915548894121379  1.0000
  C   C49       1.0  0.09468037442037763  0.7601264319186997  0.9154863734821675  1.0000
  C   C50       1.0  0.8136588194411375  0.23811382885896393  0.9984812877965298  1.0000
  C   C51       1.0  0.7603647243893834  0.18482679259308551  0.9984829945108019  1.0000
  C   C52       1.0  0.8006598099324974  0.3139506272265179  0.003960943017311326  1.0000
  C   C53       1.0  0.6900057455735578  0.20330768447739447  0.003964378645534291  1.0000
  C   C54       1.0  0.732034894179563  0.33688179892205045  0.014748443383616928  1.0000
  C   C55       1.0  0.6778619295043737  0.28271319546791307  0.014748537188793725  1.0000
  C   C56       1.0  0.8577443983471157  0.3641511384123249  0.996792974121462  1.0000
  C   C57       1.0  0.6326408291223374  0.13905782122906626  0.9968001522680795  1.0000
  C   C58       1.0  0.8095519099766406  0.11913963679394594  0.9892711893445351  1.0000
  C   C59       1.0  0.8701264362769763  0.1797041676887261  0.989266326350716  1.0000
  C   C60       1.0  0.1458486812277682  0.6311294598291113  0.0011358593570136362  1.0000
  I   I1        1.0  0.12260374615598821  0.7945762113023065  0.7724052735500208  1.0000
  I   I2        1.0  0.1350660058261681  0.03599573862283022  0.9614323300145031  1.0000
  I   I3        1.0  0.9249650716021307  0.8258209036156855  0.960637671811142  1.0000
  I   I4        1.0  0.9779227703527907  0.6498261193764278  0.7722124189434254  1.0000
  I   I5        1.0  0.7189018273671336  0.4589799787072906  0.0408749064862518  1.0000
  I   I6        1.0  0.5818772071796374  0.3219646201172425  0.040860357170068154  1.0000
  O   O1        1.0  0.996073486045269  0.49834499002559346  0.9930722056214594  1.0000
  O   O2        1.0  0.37039446099259254  0.9347070203931979  0.0412057670634738  1.0000
  O   O3        1.0  0.10641852647481184  0.6707688673068687  0.041080563543076216  1.0000
  O   O4        1.0  0.11330712574621056  0.5536758407030291  0.22457472846510027  1.0000
  O   O5        1.0  0.6709072361494179  0.11123756240100134  0.22457978533434175  1.0000
  O   O6        1.0  0.943646083758054  0.3890919619304328  0.7629863033405117  1.0000
  O   O7        1.0  0.37389025834381306  0.8193350626219953  0.7629830271694047  1.0000
  O   O8        1.0  0.4947298403252632  0.9969994310998092  0.9930744825444295  1.0000
  O   O9        1.0  0.11606989919742  0.6765708932043638  0.22398960949926305  1.0000
  O   O10       1.0  0.5474376250578743  0.10797647730590405  0.22402594315325802  1.0000
  O   O11       1.0  0.8198472697100527  0.3886153113101117  0.7619901755746811  1.0000
  O   O12       1.0  0.3733792450618338  0.9421250435610561  0.7619749687506144  1.0000
  O   O13       1.0  0.9412153187308759  0.3824808092692038  0.05666777452231733  1.0000
  O   O14       1.0  0.6741905791989637  0.11547662165772014  0.05668626298724895  1.0000
  O   O15       1.0  0.1382919088844262  0.549943093277591  0.9593029021769796  1.0000
  O   O16       1.0  0.4093807763741423  0.8210373072381291  0.9593362633622676  1.0000
  O   O17       1.0  0.11363637511354331  0.38227701993723434  0.056829845104942864  1.0000
  O   O18       1.0  0.6745404493451019  0.9431905113010901  0.056727665960750094  1.0000
  O   O19       1.0  0.9428567119604878  0.6780161211293106  0.0534184662791901  1.0000
  O   O20       1.0  0.3753913625101646  0.11053545503828839  0.05343279000980772  1.0000
  O   O21       1.0  0.11363151018138504  0.3802544375531696  0.9320251676842801  1.0000
  O   O22       1.0  0.5517538562930255  0.8183970494535799  0.9320357822638244  1.0000
  O   O23       1.0  0.8192175619779504  0.5552047098703877  0.9418768774713014  1.0000
  O   O24       1.0  0.818422970241123  0.3801535116237531  0.9294754736410696  1.0000
  O   O25       1.0  0.38663915877082655  0.12260941415433282  0.9418612823438866  1.0000
  O   O26       1.0  0.5493179863788668  0.11105103581756717  0.9294740619916766  1.0000
