data_image0
_chemical_formula_structural       Ba2H10C14N2O10
_chemical_formula_sum              "Ba2 H10 C14 N2 O10"
_cell_length_a       6.744218259101872
_cell_length_b       7.10560138713288
_cell_length_c       10.268048138004342
_cell_angle_alpha    79.35166466496229
_cell_angle_beta     86.42792542909815
_cell_angle_gamma    60.83900429926678

_space_group_name_H-M_alt    "P 1"
_space_group_IT_number       1

loop_
  _space_group_symop_operation_xyz
  'x, y, z'

loop_
  _atom_site_type_symbol
  _atom_site_label
  _atom_site_symmetry_multiplicity
  _atom_site_fract_x
  _atom_site_fract_y
  _atom_site_fract_z
  _atom_site_occupancy
  Ba  Ba1       1.0  0.3228506519343456  0.3707740503538305  0.38456842114017326  1.0000
  Ba  Ba2       1.0  0.6771545071833812  0.6292254857888012  0.6154335756995196  1.0000
  H   H1        1.0  0.5776342752246251  0.10293226651318582  0.051888479246841306  1.0000
  H   H2        1.0  0.4223775615801133  0.8970686415023295  0.9481170489724278  1.0000
  H   H3        1.0  0.7239369336144249  0.039193200570196006  0.8236272164095201  1.0000
  H   H4        1.0  0.276066914175722  0.9608208143354419  0.17637718835945296  1.0000
  H   H5        1.0  0.3260159650470629  0.4759518240867919  0.012061286199440222  1.0000
  H   H6        1.0  0.673973299347907  0.5240529399745738  0.9879367854737569  1.0000
  H   H7        1.0  0.2012748395064892  0.9081176703928971  0.40127204953451223  1.0000
  H   H8        1.0  0.7987320924736352  0.0918571595727258  0.5987373767683907  1.0000
  H   H9        1.0  0.16436808940095923  0.7776215882427308  0.5335137577583355  1.0000
  H   H10       1.0  0.8356686195820445  0.22236913070842226  0.4664637682208621  1.0000
  C   C1        1.0  0.864281683026171  0.8115918372991759  0.148480298032247  1.0000
  C   C2        1.0  0.1357234252715074  0.18840804643502912  0.8515148427967104  1.0000
  C   C3        1.0  0.7397863717194613  0.963099498686624  0.037589697761589526  1.0000
  C   C4        1.0  0.2602125764445092  0.0369064617960575  0.9624147476167979  1.0000
  C   C5        1.0  0.8231873416634136  0.9288296575728126  0.9118903223470128  1.0000
  C   C6        1.0  0.17681895697059963  0.0711793479028557  0.08811648056941122  1.0000
  C   C7        1.0  0.03576463513230996  0.7488253073251271  0.9006414641378486  1.0000
  C   C8        1.0  0.9642329166455571  0.25117765450894314  0.09935847291287563  1.0000
  C   C9        1.0  0.1560916538074936  0.6133191955254418  0.01777336701808  1.0000
  C   C10       1.0  0.843911852054305  0.38668381265300406  0.9822244192430251  1.0000
  C   C11       1.0  0.7652254117929689  0.8336839021491187  0.2851706518088264  1.0000
  C   C12       1.0  0.23477756787072931  0.16631407342717347  0.7148306079945428  1.0000
  C   C13       1.0  0.13645533330977613  0.7023460813040074  0.7675726040167277  1.0000
  C   C14       1.0  0.8635349782829495  0.2976507243347157  0.23242237804615234  1.0000
  N   N1        1.0  0.07216383045425102  0.6400044005649406  0.13868021776606554  1.0000
  N   N2        1.0  0.927843019604232  0.3599890488989033  0.8613135979013506  1.0000
  O   O1        1.0  0.8807227737978567  0.6844138531046228  0.38183625384112224  1.0000
  O   O2        1.0  0.11927812943670092  0.31557950035890064  0.6181606920460184  1.0000
  O   O3        1.0  0.5723805510165862  0.9970554061014809  0.2944097973329178  1.0000
  O   O4        1.0  0.42761646004316844  0.002942622442311892  0.7055916543998607  1.0000
  O   O5        1.0  0.3466456179671554  0.5737335151386276  0.7642117681611182  1.0000
  O   O6        1.0  0.6533474500977474  0.42626953607700824  0.23578733340656305  1.0000
  O   O7        1.0  0.9992173811821706  0.7991866692475895  0.6655190493208849  1.0000
  O   O8        1.0  0.0007770127303317114  0.2008018038931709  0.3344796031777193  1.0000
  O   O9        1.0  0.27573380691223554  0.764296197207223  0.4607071002882322  1.0000
  O   O10       1.0  0.7242165405658341  0.23573251164739162  0.5393062889428819  1.0000
