data_image0
_chemical_formula_structural       La4H20C36N12O28
_chemical_formula_sum              "La4 H20 C36 N12 O28"
_cell_length_a       9.340504442735128
_cell_length_b       10.45618702214126
_cell_length_c       12.65904999908805
_cell_angle_alpha    89.99944417634448
_cell_angle_beta     106.54064877057296
_cell_angle_gamma    89.9999558783821

_space_group_name_H-M_alt    "P 1"
_space_group_IT_number       1

loop_
  _space_group_symop_operation_xyz
  'x, y, z'

loop_
  _atom_site_type_symbol
  _atom_site_label
  _atom_site_symmetry_multiplicity
  _atom_site_fract_x
  _atom_site_fract_y
  _atom_site_fract_z
  _atom_site_occupancy
  La  La1       1.0  0.8873428123493382  0.8731344167576366  0.32727890283641864  1.0000
  La  La2       1.0  0.8873450375219533  0.1268642296144691  0.8272822303987439  1.0000
  La  La3       1.0  0.388244090986383  0.42320003261972505  0.3249774327147605  1.0000
  La  La4       1.0  0.3882410382481609  0.5768008960521767  0.8249728735679867  1.0000
  H   H1        1.0  0.09579450486474171  0.16138604589656316  0.277000763765777  1.0000
  H   H2        1.0  0.09578026002531459  0.8386156459421555  0.7769948923903129  1.0000
  H   H3        1.0  0.16716302682023348  0.2196697843693869  0.6697846388665241  1.0000
  H   H4        1.0  0.16717125610936284  0.780326420790196  0.1697834817306756  1.0000
  H   H5        1.0  0.1846042177259548  0.7443080593234439  0.5721455398339259  1.0000
  H   H6        1.0  0.18460910937163527  0.2556911912286353  0.0721518320604915  1.0000
  H   H7        1.0  0.7699880704175682  0.4816029215953959  0.6039832887729375  1.0000
  H   H8        1.0  0.769994072320472  0.5183974667334326  0.10398533983124744  1.0000
  H   H9        1.0  0.6637519088449294  0.6758565102916804  0.09049961780786481  1.0000
  H   H10       1.0  0.6637488253870885  0.3241527163901168  0.5904978681486881  1.0000
  H   H11       1.0  0.4995955644346994  0.09969313075343679  0.949364253289268  1.0000
  H   H12       1.0  0.49960210215660794  0.9003091322743514  0.44937678452239993  1.0000
  H   H13       1.0  0.1969866353393499  0.7442202774081039  0.3734164580951784  1.0000
  H   H14       1.0  0.19698720615194523  0.2557754327831104  0.8734136614891171  1.0000
  H   H15       1.0  0.2376941193459459  0.8863908066112743  0.3442372381386534  1.0000
  H   H16       1.0  0.23769418923128427  0.11360617409251009  0.8442346854704893  1.0000
  H   H17       1.0  0.5189372990676303  0.4542066447719861  0.13890590711651638  1.0000
  H   H18       1.0  0.5189399580254488  0.5457944628330721  0.6389043872902818  1.0000
  H   H19       1.0  0.6061908537960222  0.32753299592218343  0.18866960712217923  1.0000
  H   H20       1.0  0.6061951670174678  0.6724665119828043  0.68867611163229  1.0000
  C   C1        1.0  0.11118060921582901  0.1759195046619197  0.36480921076258  1.0000
  C   C2        1.0  0.11117088824685341  0.8240801908157209  0.8648059948195126  1.0000
  C   C3        1.0  0.22161847857130823  0.2855837496885202  0.5238557982548855  1.0000
  C   C4        1.0  0.22161359321727053  0.7144093470444871  0.023851599693053088  1.0000
  C   C5        1.0  0.1502107645060349  0.20771087807622732  0.5820328416044163  1.0000
  C   C6        1.0  0.15021112147839233  0.7922892365895818  0.0820307097210744  1.0000
  C   C7        1.0  0.058011926556353906  0.11248820819623968  0.5229019537426041  1.0000
  C   C8        1.0  0.0580152174390136  0.887513619321744  0.022901260088062297  1.0000
  C   C9        1.0  0.9684640044758551  0.02661976164068139  0.5762502677060938  1.0000
  C   C10       1.0  0.968462457924666  0.9733827283726553  0.07624786001468925  1.0000
  C   C11       1.0  0.32726617069080527  0.3886467479654528  0.5831777926189616  1.0000
  C   C12       1.0  0.32726059462368084  0.6113484498904213  0.08317901381405331  1.0000
  C   C13       1.0  0.09229056336308619  0.6827932867772261  0.5770007457903219  1.0000
  C   C14       1.0  0.09229296528388178  0.3172050138586684  0.07700364709688759  1.0000
  C   C15       1.0  0.004084834040988001  0.527305879743217  0.6703912202194147  1.0000
  C   C16       1.0  0.0040854458480766  0.4726904302082032  0.1703932851436676  1.0000
  C   C17       1.0  0.8634506144004845  0.5376558793935188  0.5950877402646101  1.0000
  C   C18       1.0  0.863454618249527  0.46234072358370065  0.09509139718642251  1.0000
  C   C19       1.0  0.8467781016819913  0.623078547449573  0.5080718427345944  1.0000
  C   C20       1.0  0.8467824798259614  0.3769181307245971  0.008074684110582198  1.0000
  C   C21       1.0  0.6978081826710393  0.6406084447276824  0.42078476564686434  1.0000
  C   C22       1.0  0.697814983510547  0.35939019188048593  0.9207887784156057  1.0000
  C   C23       1.0  0.0371500758701586  0.4256937346385783  0.7597074759045414  1.0000
  C   C24       1.0  0.0371558185985279  0.5743024618758241  0.2597137634069213  1.0000
  C   C25       1.0  0.6268367997357487  0.7704064754192925  0.05809932334848612  1.0000
  C   C26       1.0  0.6268374652459485  0.22959550544163676  0.558101496491112  1.0000
  C   C27       1.0  0.624016357096778  0.9864095143107074  0.08808987201641832  1.0000
  C   C28       1.0  0.6240212890556336  0.013594029597911101  0.588098631471027  1.0000
  C   C29       1.0  0.5346968735854958  0.004455542330049399  0.9805292810460812  1.0000
  C   C30       1.0  0.5346963271044983  0.9955482440486134  0.4805324372693818  1.0000
  C   C31       1.0  0.49266759012489564  0.8959998612392468  0.9154933849512331  1.0000
  C   C32       1.0  0.4926686926283566  0.10400280369775318  0.41549377075815397  1.0000
  C   C33       1.0  0.38554089959820464  0.9028357628765418  0.7999525554477387  1.0000
  C   C34       1.0  0.3855453759702598  0.09716546098169228  0.2999552911784065  1.0000
  C   C35       1.0  0.6704043292932411  0.0966353465101975  0.16867962490253063  1.0000
  C   C36       1.0  0.6704053802050751  0.9033691334989625  0.6686922757170777  1.0000
  N   N1        1.0  0.041355543727419806  0.09439716631302988  0.41484557993284443  1.0000
  N   N2        1.0  0.04135105238946579  0.905605815966133  0.9148436087749586  1.0000
  N   N3        1.0  0.20058494355519227  0.27173613660236373  0.4146669357589445  1.0000
  N   N4        1.0  0.20057564774595696  0.7282629130293684  0.9146614185025328  1.0000
  N   N5        1.0  0.9626708715044218  0.6933173651587338  0.4977931008280763  1.0000
  N   N6        1.0  0.962675668950574  0.30668209962563947  0.9977963216389439  1.0000
  N   N7        1.0  0.1177920689000516  0.603121281484185  0.6634124929224043  1.0000
  N   N8        1.0  0.11779746571937011  0.3968740758485936  0.16341855001056163  1.0000
  N   N9        1.0  0.538589643448823  0.7781363843683521  0.9545277767186775  1.0000
  N   N10       1.0  0.5385868783258302  0.22186770417806662  0.45452876734965025  1.0000
  N   N11       1.0  0.671009687935033  0.8690060542633019  0.1267035923799398  1.0000
  N   N12       1.0  0.6710107784731535  0.13100178660292267  0.6267066462783504  1.0000
  O   O1        1.0  0.8861736302318873  0.9439832346501404  0.5151372082823755  1.0000
  O   O2        1.0  0.8861771853263463  0.05602194102914379  0.015135338960327293  1.0000
  O   O3        1.0  0.9796792200886486  0.04595700183319448  0.6767514433248749  1.0000
  O   O4        1.0  0.9796889220645255  0.9540385640155549  0.1767523651572489  1.0000
  O   O5        1.0  0.39637467818457844  0.45344791656191324  0.5279323235037907  1.0000
  O   O6        1.0  0.39637163326339214  0.5465497942935968  0.027929861182712984  1.0000
  O   O7        1.0  0.33887969987271305  0.40194928059408846  0.6841599831459391  1.0000
  O   O8        1.0  0.33887195358139627  0.5980408999633083  0.18415927108564742  1.0000
  O   O9        1.0  0.6871267199668409  0.7331779526087557  0.3547291632739729  1.0000
  O   O10       1.0  0.6871316862186062  0.26681955298128196  0.8547335294745294  1.0000
  O   O11       1.0  0.5970586695419655  0.5603947179903913  0.422252940627331  1.0000
  O   O12       1.0  0.5970684780731189  0.43960779603929717  0.9222561577600956  1.0000
  O   O13       1.0  0.1624304011330366  0.4306960392526376  0.8334199069199856  1.0000
  O   O14       1.0  0.1624350546621329  0.5693011198768759  0.3334244237395367  1.0000
  O   O15       1.0  0.9380046305542323  0.3406223166149616  0.7503229908139701  1.0000
  O   O16       1.0  0.9380088957989868  0.6593733716835711  0.2503267030189065  1.0000
  O   O17       1.0  0.36177144984954873  0.7964646067034946  0.7475464365496834  1.0000
  O   O18       1.0  0.3617754646454472  0.20353916058935076  0.24754901137376348  1.0000
  O   O19       1.0  0.3250019208839134  0.008236445589304297  0.7671340785672668  1.0000
  O   O20       1.0  0.3250125649497733  0.991763291807757  0.2671380574092481  1.0000
  O   O21       1.0  0.7279469809551529  0.06533938874330399  0.26952608209882095  1.0000
  O   O22       1.0  0.7279456602782447  0.934671520485189  0.7695387691409579  1.0000
  O   O23       1.0  0.6462936926915572  0.207023819246281  0.12904097489526828  1.0000
  O   O24       1.0  0.6463063846014022  0.7929878365820429  0.6290577685238148  1.0000
  O   O25       1.0  0.17826157649952987  0.8358769632438191  0.3835039178224662  1.0000
  O   O26       1.0  0.17825808726519907  0.1641186415596323  0.8834978357620784  1.0000
  O   O27       1.0  0.5668536123965993  0.4111178475828368  0.20987944369312572  1.0000
  O   O28       1.0  0.5668549597164374  0.5888776132192601  0.7098796701676592  1.0000
