data_image0
_chemical_formula_structural       Ag4H12C12N16O8
_chemical_formula_sum              "Ag4 H12 C12 N16 O8"
_cell_length_a       4.96943432561199
_cell_length_b       8.537202136507807
_cell_length_c       13.738465732000007
_cell_angle_alpha    89.99999713290268
_cell_angle_beta     89.99999826931905
_cell_angle_gamma    100.07685193396385

_space_group_name_H-M_alt    "P 1"
_space_group_IT_number       1

loop_
  _space_group_symop_operation_xyz
  'x, y, z'

loop_
  _atom_site_type_symbol
  _atom_site_label
  _atom_site_symmetry_multiplicity
  _atom_site_fract_x
  _atom_site_fract_y
  _atom_site_fract_z
  _atom_site_occupancy
  Ag  Ag1       1.0  0.7558398672350461  0.6026558691400439  0.9645829504814432  1.0000
  Ag  Ag2       1.0  0.7441593448081177  0.8973445598877774  0.4645831546365856  1.0000
  Ag  Ag3       1.0  0.2441594887876732  0.3973440181437197  0.0354166109688663  1.0000
  Ag  Ag4       1.0  0.2558400112146018  0.10265532739598633  0.5354164068137168  1.0000
  H   H1        1.0  0.281304153923017  0.6973065934551242  0.8199183263647857  1.0000
  H   H2        1.0  0.2186962104516183  0.8026938948976009  0.31991853373125423  1.0000
  H   H3        1.0  0.7186972159652356  0.30269329909776843  0.18008196296882775  1.0000
  H   H4        1.0  0.7813034942618201  0.19730718207071624  0.680081755602352  1.0000
  H   H5        1.0  0.9609635671138717  0.6207531219867094  0.654161095244348  1.0000
  H   H6        1.0  0.5390373422159414  0.8792461511981173  0.15416130240401327  1.0000
  H   H7        1.0  0.03903578890884771  0.3792467652970473  0.34583846620596154  1.0000
  H   H8        1.0  0.46096201380673557  0.12075373608561076  0.8458389869296142  1.0000
  H   H9        1.0  0.05508558529129455  0.46522509432530507  0.5823605090548726  1.0000
  H   H10       1.0  0.4449142585455732  0.0347754365780659  0.08236072195047943  1.0000
  H   H11       1.0  0.9449137707313824  0.5347747929584231  0.4176397802787478  1.0000
  H   H12       1.0  0.5550854461678725  0.9652256403902512  0.9176395673831268  1.0000
  C   C1        1.0  0.3630997107589593  0.5981606455780124  0.7899113376784687  1.0000
  C   C2        1.0  0.13690030802905528  0.901838655852117  0.2899108150926253  1.0000
  C   C3        1.0  0.6369016591293004  0.4018392469748804  0.21008895165514477  1.0000
  C   C4        1.0  0.8630990479936642  0.09816123143164647  0.7100887463576839  1.0000
  C   C5        1.0  0.13444540233625443  0.5728799134285578  0.6246709083466514  1.0000
  C   C6        1.0  0.3655546335451518  0.9271194032109092  0.12467111013807401  1.0000
  C   C7        1.0  0.8655539536864225  0.42711997385517003  0.3753293809869689  1.0000
  C   C8        1.0  0.6344447224775324  0.07288048407281882  0.8753291791955535  1.0000
  C   C9        1.0  0.2986343919136941  0.6988723887790869  0.558458271667064  1.0000
  C   C10       1.0  0.20136363695155512  0.8011269286856829  0.0584584792885394  1.0000
  C   C11       1.0  0.7013649641090253  0.30112749850467674  0.4415412897832455  1.0000
  C   C12       1.0  0.7986357190711217  0.1988729585980451  0.9415418100450881  1.0000
  N   N1        1.0  0.5457997760485469  0.5235415472212567  0.8321904401702656  1.0000
  N   N2        1.0  0.9541994496901011  0.9764588939925147  0.3321899115046564  1.0000
  N   N3        1.0  0.4541995799741371  0.4764583400624716  0.16780984916336195  1.0000
  N   N4        1.0  0.045799906332611294  0.0235409932912418  0.6678096499456533  1.0000
  N   N5        1.0  0.5891229975620574  0.405567021918948  0.7705059700706657  1.0000
  N   N6        1.0  0.9108773546202329  0.0944322612419555  0.27050618154009953  1.0000
  N   N7        1.0  0.41087837232619506  0.594432870633952  0.22949431926294755  1.0000
  N   N8        1.0  0.0891216527116825  0.9055664363571836  0.7294941077935422  1.0000
  N   N9        1.0  0.43969388455166575  0.40701508313831886  0.6931661849171108  1.0000
  N   N10       1.0  0.06030594782285449  0.0929854375661066  0.19316567273256174  1.0000
  N   N11       1.0  0.5603058201617799  0.5929859938299983  0.3068341044164882  1.0000
  N   N12       1.0  0.939693408199858  0.9070144497176571  0.8068338887177476  1.0000
  N   N13       1.0  0.2962244827999355  0.5269291900409243  0.7042292824585348  1.0000
  N   N14       1.0  0.20377554485152422  0.9730701192757182  0.204228756886387  1.0000
  N   N15       1.0  0.703776887088317  0.4730707025119755  0.2957710068750786  1.0000
  N   N16       1.0  0.7962238111711952  0.02692976800804559  0.7957708045639222  1.0000
  O   O1        1.0  0.1772946763662091  0.7356564956987413  0.4837730762582596  1.0000
  O   O2        1.0  0.3227056710583653  0.7643439775721745  0.9837728663384057  1.0000
  O   O3        1.0  0.822705028347272  0.26434458126960436  0.5162264851920285  1.0000
  O   O4        1.0  0.6772936849643543  0.23565590971158906  0.0162266951119037  1.0000
  O   O5        1.0  0.5433983938658712  0.7564395361729764  0.5838664922494843  1.0000
  O   O6        1.0  0.9566008575608149  0.7435609278974552  0.0838666985923808  1.0000
  O   O7        1.0  0.4566009621568128  0.2435603511107445  0.416133797084136  1.0000
  O   O8        1.0  0.04339849846186178  0.2564389593862728  0.9161335907412466  1.0000
