data_image0
_chemical_formula_structural       Zn4H56C52N16Cl8O4
_chemical_formula_sum              "Zn4 H56 C52 N16 Cl8 O4"
_cell_length_a       8.970947963
_cell_length_b       12.898759847707263
_cell_length_c       18.154
_cell_angle_alpha    103.11046333205235
_cell_angle_beta     90.0
_cell_angle_gamma    110.3495853222823

_space_group_name_H-M_alt    "P 1"
_space_group_IT_number       1

loop_
  _space_group_symop_operation_xyz
  'x, y, z'

loop_
  _atom_site_type_symbol
  _atom_site_label
  _atom_site_symmetry_multiplicity
  _atom_site_fract_x
  _atom_site_fract_y
  _atom_site_fract_z
  _atom_site_occupancy
  Zn  Zn1       1.0  0.49574578488301296  0.7574103010737048  0.9073505794885933  1.0000
  Zn  Zn2       1.0  0.7382508713074001  0.242786381060121  0.5926571574034085  1.0000
  Zn  Zn3       1.0  0.5042645429102635  0.24259037735476596  0.0926498052726785  1.0000
  Zn  Zn4       1.0  0.26175037522548905  0.757211740798283  0.4073389594251252  1.0000
  H   H1        1.0  0.4000800630635338  0.531994961447964  0.9421531804631939  1.0000
  H   H2        1.0  0.8678534416319438  0.4681071275932851  0.5576812193191215  1.0000
  H   H3        1.0  0.5999294125333421  0.468004012600467  0.0578469296092692  1.0000
  H   H4        1.0  0.13212350953683227  0.5319003683553802  0.442322467568566  1.0000
  H   H5        1.0  0.2880808870340913  0.4414480670952656  0.04972377307636581  1.0000
  H   H6        1.0  0.8459372634861351  0.5584316003499055  0.4500874492000547  1.0000
  H   H7        1.0  0.7119196708876032  0.5585509069531653  0.9502757861533055  1.0000
  H   H8        1.0  0.15403496633205543  0.4415775999788067  0.5499181649048168  1.0000
  H   H9        1.0  0.24929217973779313  0.5662095386923127  0.16980524189980167  1.0000
  H   H10       1.0  0.6824334253027615  0.43343918525655306  0.3300073190377546  1.0000
  H   H11       1.0  0.7507047715427148  0.4337911397361651  0.8301929394903168  1.0000
  H   H12       1.0  0.31755149241701014  0.566570867262179  0.669995127354781  1.0000
  H   H13       1.0  0.43615024434298977  0.8522939904548323  0.06833284905159333  1.0000
  H   H14       1.0  0.5839580469097143  0.1475924945105263  0.4316579450438667  1.0000
  H   H15       1.0  0.5638525429975019  0.1477049835935986  0.9316645068069249  1.0000
  H   H16       1.0  0.416060247434558  0.8524107404880253  0.5683373433227388  1.0000
  H   H17       1.0  0.20117634229509915  0.8122742947719601  0.1898151545531661  1.0000
  H   H18       1.0  0.3886734414190228  0.1872985842648376  0.310183486136431  1.0000
  H   H19       1.0  0.7988209361558204  0.1877314967966583  0.8101777916327038  1.0000
  H   H20       1.0  0.6113351477110881  0.8127097638738546  0.6898071178687104  1.0000
  H   H21       1.0  0.2867652978456191  0.7477362399295231  0.24453497338489427  1.0000
  H   H22       1.0  0.5386589641992501  0.251661940152502  0.2553473768550916  1.0000
  H   H23       1.0  0.7132210960243269  0.2522678472590485  0.7554593506405354  1.0000
  H   H24       1.0  0.4613589040468184  0.7483404426560226  0.7446472233243141  1.0000
  H   H25       1.0  0.5546242098621547  0.9085939243422985  0.2280818405172198  1.0000
  H   H26       1.0  0.6457861779081213  0.09093378862326058  0.2720070200925804  1.0000
  H   H27       1.0  0.4453647748673575  0.0914041975161055  0.771919784739211  1.0000
  H   H28       1.0  0.35420906897957843  0.9090634810451235  0.7279933661338589  1.0000
  H   H29       1.0  0.34069275146242717  0.9279522729109431  0.9149645631467961  1.0000
  H   H30       1.0  0.41259467204240957  0.0723764986764905  0.5851939101837118  1.0000
  H   H31       1.0  0.6593146583008576  0.0720492577075547  0.08503761148725178  1.0000
  H   H32       1.0  0.5874093289352585  0.9276182144218268  0.4148132249657692  1.0000
  H   H33       1.0  0.8692990809859964  0.7526610460740102  0.7987014971091213  1.0000
  H   H34       1.0  0.11673556666779206  0.2479114518600767  0.70136680866608  1.0000
  H   H35       1.0  0.13070534608987563  0.247334519214327  0.20130852959871248  1.0000
  H   H36       1.0  0.8832656798650972  0.7520866699983273  0.29863151153360695  1.0000
  H   H37       1.0  0.9349425167622982  0.5740667307068748  0.7672916741050528  1.0000
  H   H38       1.0  0.3609472096560324  0.4265355938780289  0.7325148308142673  1.0000
  H   H39       1.0  0.06506525444176249  0.4259288345814625  0.232713395017683  1.0000
  H   H40       1.0  0.639048101889088  0.5734684933105427  0.2674690271981603  1.0000
  H   H41       1.0  0.20262124972180823  0.5827087897328767  0.8135021547665672  1.0000
  H   H42       1.0  0.619941276419503  0.417776784818841  0.6862717628993451  1.0000
  H   H43       1.0  0.7973913074902653  0.4172918886956012  0.1865026367370248  1.0000
  H   H44       1.0  0.38005360902741353  0.5822264501797036  0.3137097543975145  1.0000
  H   H45       1.0  0.9807404935640561  0.9626986167298169  0.9192270603342151  1.0000
  H   H46       1.0  0.018029127720055296  0.0375628318457828  0.5810439515730365  1.0000
  H   H47       1.0  0.0192573441832096  0.0372926876084065  0.08077842375206498  1.0000
  H   H48       1.0  0.9819736938907866  0.962425063732347  0.41895767807888257  1.0000
  H   H49       1.0  0.18070126825519137  0.0362794336707353  0.9028890002878355  1.0000
  H   H50       1.0  0.1446210717186529  0.9641669401399112  0.5974063069277022  1.0000
  H   H51       1.0  0.8192964705642966  0.9637161316176021  0.09711937389163694  1.0000
  H   H52       1.0  0.8553896175153995  0.0358277729583989  0.4026019299073624  1.0000
  H   H53       1.0  0.8899210579797054  0.9856600247168571  0.8082796565614743  1.0000
  H   H54       1.0  0.9043985204921867  0.0146721556306773  0.6920066108310293  1.0000
  H   H55       1.0  0.1100826804849717  0.014336392761507  0.1917288549624061  1.0000
  H   H56       1.0  0.09560947895451472  0.9853327837479213  0.3079972148662264  1.0000
  C   C1        1.0  0.3797818883684129  0.5814466963084115  0.9959108442084172  1.0000
  C   C2        1.0  0.7980214724611938  0.41856335621032054  0.5039621541285939  1.0000
  C   C3        1.0  0.6202183423828629  0.4185471645998788  0.0040845858980845095  1.0000
  C   C4        1.0  0.20195951144697222  0.5814432875483178  0.496040844571894  1.0000
  C   C5        1.0  0.3171844620203642  0.5322932279561101  0.05506673519623461  1.0000
  C   C6        1.0  0.7843609901097323  0.4675907004391817  0.4447743684700569  1.0000
  C   C7        1.0  0.6828183253201201  0.4677057460923209  0.9449306206622836  1.0000
  C   C8        1.0  0.21561596105904351  0.5324167955094836  0.5552293184176236  1.0000
  C   C9        1.0  0.29651142743587394  0.6019716930189176  0.12203248920403809  1.0000
  C   C10       1.0  0.6940499355711438  0.3977801459227663  0.3778225800177922  1.0000
  C   C11       1.0  0.7034806389088428  0.3980281332195332  0.8779628006277278  1.0000
  C   C12       1.0  0.30593301524282157  0.602228202215926  0.6221790408431431  1.0000
  C   C13       1.0  0.3374750097900473  0.7188129105396754  0.12839228797238184  1.0000
  C   C14       1.0  0.6184486305469505  0.2809159192713793  0.371511953858267  1.0000
  C   C15       1.0  0.6625232197850648  0.2811903244588763  0.8716063054509533  1.0000
  C   C16       1.0  0.3815495990281618  0.7190873157271652  0.6284860887222834  1.0000
  C   C17       1.0  0.4010695742668843  0.7616226763587407  0.0664678335810578  1.0000
  C   C18       1.0  0.6393903278991075  0.2382578432764575  0.4334906010645554  1.0000
  C   C19       1.0  0.5989245579114167  0.2383745933096435  0.9335292475886446  1.0000
  C   C20       1.0  0.3606118354876101  0.761748800482188  0.5665052366796746  1.0000
  C   C21       1.0  0.31004277624405313  0.7943220597417096  0.19934170966305942  1.0000
  C   C22       1.0  0.5154846397194319  0.2052422973948538  0.3006241595434815  1.0000
  C   C23       1.0  0.6899457823872623  0.2056752099266745  0.8006520664499064  1.0000
  C   C24       1.0  0.484519326987886  0.7947634941737647  0.6993737442275005  1.0000
  C   C25       1.0  0.4061232889564079  0.9997688827421455  0.2500164588333291  1.0000
  C   C26       1.0  0.5938555644607462  0.0002335000663791  0.7499808955600287  1.0000
  C   C27       1.0  0.24629990739978058  0.8516770048779846  0.8823768511637695  1.0000
  C   C28       1.0  0.39457788045167064  0.1487429510419389  0.6177098357002747  1.0000
  C   C29       1.0  0.7537088795859006  0.1483228213604662  0.11762835383820662  1.0000
  C   C30       1.0  0.6054243172054042  0.8512526142463982  0.3822902758373559  1.0000
  C   C31       1.0  0.10033376564571472  0.855309890947197  0.8591593317495665  1.0000
  C   C32       1.0  0.24503065358636886  0.1451535266639183  0.6409800796307223  1.0000
  C   C33       1.0  0.8996719397247688  0.1446882309112141  0.1408467002491705  1.0000
  C   C34       1.0  0.7549757403953024  0.8548437430044659  0.3590208574385017  1.0000
  C   C35       1.0  0.9854024909795527  0.7538822343773646  0.8176991268907585  1.0000
  C   C36       1.0  0.2315779160713659  0.2466595847158928  0.6823311839184498  1.0000
  C   C37       1.0  0.01460013277571898  0.2461141831009996  0.18231213884706676  1.0000
  C   C38       1.0  0.7684204124315313  0.7533393893325382  0.3176623160405398  1.0000
  C   C39       1.0  0.020137964084120993  0.6542373593362143  0.800736337969937  1.0000
  C   C40       1.0  0.3659532681943176  0.3463215035575047  0.6991380770040293  1.0000
  C   C41       1.0  0.9798703968033563  0.3457616147122168  0.1992714839015761  1.0000
  C   C42       1.0  0.6340436830861904  0.6536791748709732  0.3008485366875107  1.0000
  C   C43       1.0  0.16876055241635152  0.6579750647782845  0.8258908953483654  1.0000
  C   C44       1.0  0.5107970501995566  0.3425284057639217  0.6739663295973414  1.0000
  C   C45       1.0  0.831252430893926  0.3420264658402132  0.1741162368707876  1.0000
  C   C46       1.0  0.4891976716621542  0.6574722726645561  0.3260191824086149  1.0000
  C   C47       1.0  0.06966676624713837  0.9661218640532994  0.8772393875550932  1.0000
  C   C48       1.0  0.1036394118548642  0.0342912743464439  0.623023021089125  1.0000
  C   C49       1.0  0.9303349063839476  0.0338771099951316  0.12276623094526679  1.0000
  C   C50       1.0  0.896366818541601  0.9657034387518735  0.3769819106892029  1.0000
  C   C51       1.0  0.0900752676797296  0.0002854836577981  0.7501506705061303  1.0000
  C   C52       1.0  0.9099390281955092  0.9997075250604722  0.249856740797334  1.0000
  N   N1        1.0  0.42164131223505297  0.6943098908005325  0.0018658308445865172  1.0000
  N   N2        1.0  0.7272546854969659  0.3056831179177379  0.49806336078277264  1.0000
  N   N3        1.0  0.5783646556484214  0.3056865266778246  0.9981322146662917  1.0000
  N   N4        1.0  0.27274413376156287  0.6943235258409075  0.5019357820181867  1.0000
  N   N5        1.0  0.43825744321456017  0.9031407603833799  0.2224365310036944  1.0000
  N   N6        1.0  0.5348767134510908  0.09639291791233968  0.2776604519732118  1.0000
  N   N7        1.0  0.5617451805407185  0.0968556570949772  0.7775593111360237  1.0000
  N   N8        1.0  0.46513420402560257  0.9036111692762318  0.722338829637323  1.0000
  N   N9        1.0  0.2797850202278979  0.7553207311366421  0.8662464869984916  1.0000
  N   N10       1.0  0.5244037929492293  0.24509581602318783  0.633710202432404  1.0000
  N   N11       1.0  0.7202301925011766  0.2446807994818556  0.1337551367927716  1.0000
  N   N12       1.0  0.4755930936738508  0.7548980448851026  0.3662841259885141  1.0000
  N   N13       1.0  0.004915913178052601  0.9877010198225946  0.811588105062917  1.0000
  N   N14       1.0  0.017407955923125898  0.012733423327731  0.6886937116323464  1.0000
  N   N15       1.0  0.9950735965774412  0.012293693275722698  0.18841903008656397  1.0000
  N   N16       1.0  0.9825901100667803  0.9872672551007468  0.3113132832424057  1.0000
  Cl  Cl1       1.0  0.6652540925875527  0.9363020307589665  0.939056214945744  1.0000
  Cl  Cl2       1.0  0.728930367168651  0.063911695175328  0.5609575738911232  1.0000
  Cl  Cl3       1.0  0.33476387458630086  0.0636960910994446  0.060945961153471694  1.0000
  Cl  Cl4       1.0  0.27107464959063066  0.936087278873103  0.43904143449576344  1.0000
  Cl  Cl5       1.0  0.5551263337263562  0.6195975392702522  0.8266276178451051  1.0000
  Cl  Cl6       1.0  0.9353934575179039  0.38075424144781067  0.6733549890350119  1.0000
  Cl  Cl7       1.0  0.444874912806533  0.3804005825881518  0.17337125319737376  1.0000
  Cl  Cl8       1.0  0.0646004121473993  0.6192447326006203  0.3266445701946594  1.0000
  O   O1        1.0  0.2662228311033984  0.9997867787326342  0.2499455301320737  1.0000
  O   O2        1.0  0.7338003481766647  0.0002173084559374  0.7500520989500927  1.0000
  O   O3        1.0  0.23087682517435573  0.00035536323970579995  0.7501685428609193  1.0000
  O   O4        1.0  0.7691090132825309  0.999634236718471  0.24983776822212184  1.0000
