data_image0
_chemical_formula_structural       Al2H14C28N4Cl4O10
_chemical_formula_sum              "Al2 H14 C28 N4 Cl4 O10"
_cell_length_a       6.672316581351423
_cell_length_b       16.979539326700575
_cell_length_c       16.979809229984347
_cell_angle_alpha    87.11888810965549
_cell_angle_beta     82.40757446813427
_cell_angle_gamma    82.40940154601

_space_group_name_H-M_alt    "P 1"
_space_group_IT_number       1

loop_
  _space_group_symop_operation_xyz
  'x, y, z'

loop_
  _atom_site_type_symbol
  _atom_site_label
  _atom_site_symmetry_multiplicity
  _atom_site_fract_x
  _atom_site_fract_y
  _atom_site_fract_z
  _atom_site_occupancy
  Al  Al1       1.0  0.49999473335789457  0.5000025219609016  0.500000248740392  1.0000
  Al  Al2       1.0  0.9999978942760065  0.49999803540437426  0.4999980964607218  1.0000
  H   H1        1.0  0.7499885887070546  0.4240354491608542  0.5759764536645449  1.0000
  H   H2        1.0  0.24999759987914422  0.5759749108622358  0.42402927923577494  1.0000
  H   H3        1.0  0.38130487659451984  0.7382928910537528  0.4665928787790463  1.0000
  H   H4        1.0  0.3173512123307563  0.887175421558801  0.46355328607206303  1.0000
  H   H5        1.0  0.8710184235153523  0.8922291315559361  0.5665049674526585  1.0000
  H   H6        1.0  0.12907898155359027  0.10776492986967409  0.4334650458374725  1.0000
  H   H7        1.0  0.6826511823884971  0.11283186229834999  0.5364729377297622  1.0000
  H   H8        1.0  0.6186743421932591  0.261711372644406  0.5334364590868932  1.0000
  H   H9        1.0  0.881283476096833  0.46657335235372693  0.7382962913441845  1.0000
  H   H10       1.0  0.8173123919303151  0.46353180350602236  0.8871728340152957  1.0000
  H   H11       1.0  0.3709704150831927  0.5665007376549411  0.8922257482412307  1.0000
  H   H12       1.0  0.6289463734105568  0.4335226500102749  0.10777479122211284  1.0000
  H   H13       1.0  0.18268252355373704  0.5364388190997146  0.1128177205521297  1.0000
  H   H14       1.0  0.11874148658297665  0.5333978830144872  0.2616973751469658  1.0000
  C   C1        1.0  0.19421473724587915  0.5078346732261992  0.6429011816316577  1.0000
  C   C2        1.0  0.3057771749129544  0.3570909714423536  0.4921573712425342  1.0000
  C   C3        1.0  0.8057804410624527  0.4921668320577481  0.3570956408037489  1.0000
  C   C4        1.0  0.6942135702188141  0.6429057440831514  0.5078440190034074  1.0000
  C   C5        1.0  0.6644506091541448  0.7312354926745215  0.5144947192217517  1.0000
  C   C6        1.0  0.4891378293308224  0.7731547564150814  0.48689724792731676  1.0000
  C   C7        1.0  0.4524976743346018  0.8552815116936898  0.4854993520763813  1.0000
  C   C8        1.0  0.593925118174042  0.8982802506452143  0.5132315177997384  1.0000
  C   C9        1.0  0.7659774776409665  0.8579090292144328  0.5434890780241377  1.0000
  C   C10       1.0  0.8013697103360331  0.7750433092207841  0.5444103599142097  1.0000
  C   C11       1.0  0.23410043226021324  0.14208912318962763  0.4564888406901702  1.0000
  C   C12       1.0  0.40613380338153604  0.10171601043403909  0.48676043555978776  1.0000
  C   C13       1.0  0.547517619164843  0.14471874311222876  0.5145117859792094  1.0000
  C   C14       1.0  0.5108697090202484  0.22684608122288094  0.5131142700104264  1.0000
  C   C15       1.0  0.3355654394982892  0.2687624372218095  0.48550764862248746  1.0000
  C   C16       1.0  0.19867992567327528  0.22495355707754064  0.4555779297980466  1.0000
  C   C17       1.0  0.1644215905631655  0.5144849800819317  0.7312339288379734  1.0000
  C   C18       1.0  0.989101652195828  0.486887415198879  0.7731581203495923  1.0000
  C   C19       1.0  0.9524607061331096  0.4854863510933142  0.855284545387299  1.0000
  C   C20       1.0  0.09387961894467632  0.513223179682214  0.8982796351331288  1.0000
  C   C21       1.0  0.2659193279251185  0.543486077119226  0.8579053053160168  1.0000
  C   C22       1.0  0.30133157395523824  0.5444048662590433  0.7750395326503323  1.0000
  C   C23       1.0  0.7340186569411601  0.4565236704619693  0.1420935542101702  1.0000
  C   C24       1.0  0.9060713359454129  0.4867794470527969  0.1017194515871864  1.0000
  C   C25       1.0  0.0475253264388017  0.5144973039702376  0.1447123723124548  1.0000
  C   C26       1.0  0.010893960835538544  0.5130992320195062  0.22683757387220282  1.0000
  C   C27       1.0  0.8355609793715786  0.48551353545432346  0.2687630975274899  1.0000
  C   C28       1.0  0.6986203369180544  0.4556084608027504  0.2249602056346518  1.0000
  N   N1        1.0  0.5772107367687912  0.9820864488442638  0.5143746826148218  1.0000
  N   N2        1.0  0.4228585752020138  0.0179104088687509  0.4856190562402887  1.0000
  N   N3        1.0  0.07716029067095326  0.5143653573843636  0.9820837757168592  1.0000
  N   N4        1.0  0.9227848969683097  0.48563191104275205  0.01791526236965518  1.0000
  Cl  Cl1       1.0  0.011081500020381508  0.7302149623536562  0.5867160524410978  1.0000
  Cl  Cl2       1.0  0.988981236573039  0.2697742768957951  0.4132577565284948  1.0000
  Cl  Cl3       1.0  0.5110536999165235  0.5867114306793582  0.7302142619856299  1.0000
  Cl  Cl4       1.0  0.4888951346310862  0.41330661448609624  0.2697913167224684  1.0000
  O   O1        1.0  0.37579817764717677  0.4939235347162594  0.6084579399986438  1.0000
  O   O2        1.0  0.12417338703074422  0.3915383534334892  0.5060774374525323  1.0000
  O   O3        1.0  0.9671099978445312  0.48669972223719765  0.39057573184272343  1.0000
  O   O4        1.0  0.5329021970202278  0.6094196969745197  0.5133041041867727  1.0000
  O   O5        1.0  0.6242007544976644  0.5060803342334455  0.3915421144590283  1.0000
  O   O6        1.0  0.8758122893712115  0.6084554051627862  0.49392022704152083  1.0000
  O   O7        1.0  0.032886644242850684  0.513292877836278  0.6094190546059437  1.0000
  O   O8        1.0  0.46707468050294665  0.39058233248556457  0.48670071993878855  1.0000
  O   O9        1.0  0.7499950447590179  0.465357726008527  0.5346338227748719  1.0000
  O   O10       1.0  0.2499961861292945  0.5346420030155626  0.4653609295124356  1.0000
