data_image0
_chemical_formula_structural       Ni4H44C68S4N20O16
_chemical_formula_sum              "Ni4 H44 C68 S4 N20 O16"
_cell_length_a       12.731841505767218
_cell_length_b       13.743584325680139
_cell_length_c       13.995927532004929
_cell_angle_alpha    119.40497738973102
_cell_angle_beta     105.04670570847503
_cell_angle_gamma    90.00005995399658

_space_group_name_H-M_alt    "P 1"
_space_group_IT_number       1

loop_
  _space_group_symop_operation_xyz
  'x, y, z'

loop_
  _atom_site_type_symbol
  _atom_site_label
  _atom_site_symmetry_multiplicity
  _atom_site_fract_x
  _atom_site_fract_y
  _atom_site_fract_z
  _atom_site_occupancy
  Ni  Ni1       1.0  0.607403815590267  0.12197729189850995  0.46929148422953654  1.0000
  Ni  Ni2       1.0  0.8925898116886233  0.6526835336395536  0.5306988383288455  1.0000
  Ni  Ni3       1.0  0.39259701296882804  0.8780221539029966  0.5307083341270484  1.0000
  Ni  Ni4       1.0  0.10741007728670837  0.34731612586461585  0.4693003507349545  1.0000
  H   H1        1.0  0.804195022039913  0.2508378202905347  0.4779457959638334  1.0000
  H   H2        1.0  0.6958003296827542  0.7728868724432445  0.5220503741653458  1.0000
  H   H3        1.0  0.19580692044873163  0.7491657900251028  0.5220548062619484  1.0000
  H   H4        1.0  0.3041998202352118  0.22710911598689884  0.47794682953439593  1.0000
  H   H5        1.0  0.5270682914876089  0.3402578845541271  0.583192130821878  1.0000
  H   H6        1.0  0.9729324585344943  0.7570680270874063  0.4168094059572452  1.0000
  H   H7        1.0  0.47293278628748675  0.6597421710417565  0.4168099893763609  1.0000
  H   H8        1.0  0.027067679656845173  0.24293224221114693  0.5831920849482017  1.0000
  H   H9        1.0  0.591287438476023  0.5458524709926563  0.6648999321464116  1.0000
  H   H10       1.0  0.9087105214183283  0.8809500090218876  0.33510270388882896  1.0000
  H   H11       1.0  0.40871338031087845  0.4541505421991801  0.3351034588815977  1.0000
  H   H12       1.0  0.09129068487364832  0.11904892451504868  0.6648991381616652  1.0000
  H   H13       1.0  0.4653738133730344  0.2763023148585262  0.36516586659509187  1.0000
  H   H14       1.0  0.03461738245086817  0.9111202090035064  0.6348235028224776  1.0000
  H   H15       1.0  0.5346266394076126  0.7236969297294777  0.634831213533303  1.0000
  H   H16       1.0  0.9653823302242233  0.08887578576192821  0.36517624619920497  1.0000
  H   H17       1.0  0.36659871081536727  0.17677812898399736  0.13095345855403906  1.0000
  H   H18       1.0  0.1333892060123389  0.04580921007545421  0.8690336548008943  1.0000
  H   H19       1.0  0.6334006738646353  0.8232224513656162  0.8690432704293085  1.0000
  H   H20       1.0  0.8666085009327916  0.9541876206761871  0.13096439924866826  1.0000
  H   H21       1.0  0.34486521022599  0.0411900954072877  0.9274215550379168  1.0000
  H   H22       1.0  0.15512839707646722  0.11376306288722303  0.07257647491379518  1.0000
  H   H23       1.0  0.6551353573904636  0.958813021468245  0.07258024868273336  1.0000
  H   H24       1.0  0.8448744391670218  0.8862348334500111  0.9274243238806291  1.0000
  H   H25       1.0  0.28538914882449257  0.8511332286097257  0.7353169062399088  1.0000
  H   H26       1.0  0.2146128415832891  0.11580856146653669  0.26467938487607506  1.0000
  H   H27       1.0  0.7146106057706448  0.1488696933875886  0.26468470457448484  1.0000
  H   H28       1.0  0.7853897415353188  0.8841901520324456  0.7353205411452632  1.0000
  H   H29       1.0  0.13053969282483283  0.6162993093468643  0.6739388505474365  1.0000
  H   H30       1.0  0.3694678213335365  0.9423576128863473  0.32606125829587274  1.0000
  H   H31       1.0  0.8694619526644518  0.3836989043767147  0.3260597316468362  1.0000
  H   H32       1.0  0.6305346352226308  0.0576415091935161  0.6739382313389298  1.0000
  H   H33       1.0  0.36758406695165036  0.3991639739041517  0.5931298903642385  1.0000
  H   H34       1.0  0.13242260128861008  0.8060406629141567  0.4068754854232634  1.0000
  H   H35       1.0  0.6324153925985596  0.6008328380230381  0.4068689858843654  1.0000
  H   H36       1.0  0.8675790363829209  0.1939604047216932  0.5931259549081388  1.0000
  H   H37       1.0  0.4747878853915566  0.6120216382611614  0.7746592754409105  1.0000
  H   H38       1.0  0.025220701733864783  0.8373538349081785  0.22533859478733106  1.0000
  H   H39       1.0  0.5252131253310778  0.3879793318448749  0.22533783935494256  1.0000
  H   H40       1.0  0.9747821286463108  0.16264620186325374  0.7746643476099421  1.0000
  H   H41       1.0  0.5062301714266653  0.9332487872098979  0.2070325807126919  1.0000
  H   H42       1.0  0.9937667940658059  0.7262054504943336  0.7929674119589477  1.0000
  H   H43       1.0  0.4937679629891463  0.06675160459678847  0.7929665006863471  1.0000
  H   H44       1.0  0.00623047759088989  0.2737906731145259  0.20703247287827503  1.0000
  C   C1        1.0  0.9220984271079689  0.45500530233638153  0.5717656122337188  1.0000
  C   C2        1.0  0.5779006786578192  0.8832307966941573  0.4282307698570945  1.0000
  C   C3        1.0  0.07790094584540697  0.5449995588816279  0.428235403955341  1.0000
  C   C4        1.0  0.42209959391370677  0.11676621011125118  0.5717682992977586  1.0000
  C   C5        1.0  0.8071482268017436  0.43135766614525295  0.5731051165736075  1.0000
  C   C6        1.0  0.6928524961798458  0.8582529803842788  0.4268963936528179  1.0000
  C   C7        1.0  0.1928502814380764  0.5686436403530095  0.4268974175879093  1.0000
  C   C8        1.0  0.307145084202844  0.14174425894823628  0.5731012240102088  1.0000
  C   C9        1.0  0.7605391131400409  0.31875345182776016  0.5235017388097559  1.0000
  C   C10       1.0  0.7394590930429816  0.7952500715946726  0.4764967347965764  1.0000
  C   C11       1.0  0.23945889275889  0.6812480620378737  0.4764976207370281  1.0000
  C   C12       1.0  0.26053836077726805  0.20474757631872362  0.5235004464799076  1.0000
  C   C13       1.0  0.6045834068372145  0.36955518315904357  0.5794667133674308  1.0000
  C   C14       1.0  0.8954174082441144  0.7900894113552966  0.42053409518084794  1.0000
  C   C15       1.0  0.3954194215885209  0.6304455670904545  0.4205369435641302  1.0000
  C   C16       1.0  0.10458260729365776  0.20990983956799156  0.5794655302694877  1.0000
  C   C17       1.0  0.6417920004972474  0.48264781802336637  0.6254640240764073  1.0000
  C   C18       1.0  0.8582081447302627  0.8571860739407811  0.3745396323416228  1.0000
  C   C19       1.0  0.35820838495565976  0.5173537745476297  0.37454048320497435  1.0000
  C   C20       1.0  0.14179442470728534  0.1428176339046702  0.6254652954197084  1.0000
  C   C21       1.0  0.7454993842531508  0.5168534626138593  0.625189866678454  1.0000
  C   C22       1.0  0.7544984927894022  0.8916603868412452  0.37480631425955097  1.0000
  C   C23       1.0  0.254498619691347  0.48314876472984036  0.37481020740261767  1.0000
  C   C24       1.0  0.24550164540193012  0.10833988245730099  0.6251951766458959  1.0000
  C   C25       1.0  0.780911205648593  0.6434263826717271  0.6863866876137051  1.0000
  C   C26       1.0  0.7190892423886837  0.957035519352054  0.3136072660218473  1.0000
  C   C27       1.0  0.21908830168496957  0.3565752160531446  0.31361190682475376  1.0000
  C   C28       1.0  0.28091183734085234  0.04296382276576345  0.686394139642104  1.0000
  C   C29       1.0  0.4598746421627524  0.1898769131331975  0.297542403300163  1.0000
  C   C30       1.0  0.040118048812523524  0.892324260356311  0.7024520765288357  1.0000
  C   C31       1.0  0.5401267423839045  0.8101249716644077  0.7024581642581607  1.0000
  C   C32       1.0  0.9598814048743736  0.10767469200507657  0.2975489433226243  1.0000
  C   C33       1.0  0.41183082949931565  0.14250018165672176  0.18147294247423668  1.0000
  C   C34       1.0  0.08815891545627612  0.96101177958289  0.8185177532652758  1.0000
  C   C35       1.0  0.5881685551806867  0.8575003986928849  0.8185237865091111  1.0000
  C   C36       1.0  0.9118389160968621  0.03898535606594327  0.1814814517051175  1.0000
  C   C37       1.0  0.38770478154999216  0.9457959409111183  0.016478503841810235  1.0000
  C   C38       1.0  0.11229145372799107  0.9293115863809974  0.9835166037655866  1.0000
  C   C39       1.0  0.6122925417989366  0.054203542539283875  0.9835196701167064  1.0000
  C   C40       1.0  0.8877071908464628  0.07068574414604704  0.01648279411105577  1.0000
  C   C41       1.0  0.3484176512796254  0.9603525109283452  0.9238447596267391  1.0000
  C   C42       1.0  0.15157787450397822  0.03650241738102271  0.076152994860287  1.0000
  C   C43       1.0  0.6515795396435494  0.03964952153714312  0.07615512154809072  1.0000
  C   C44       1.0  0.8484222715051145  0.9634949980052597  0.9238456379080231  1.0000
  C   C45       1.0  0.3149054954699366  0.8559986574783308  0.8181377635456357  1.0000
  C   C46       1.0  0.1850948415773459  0.03785505410785107  0.18185864825914416  1.0000
  C   C47       1.0  0.6850926350370017  0.14400316128448756  0.181862746921979  1.0000
  C   C48       1.0  0.8149068019574981  0.9621438730938011  0.8181406484694091  1.0000
  C   C49       1.0  0.32898951691639405  0.7650684948948836  0.8333101194359855  1.0000
  C   C50       1.0  0.17101888737097687  0.9317497344964281  0.16668412208527877  1.0000
  C   C51       1.0  0.6710101189340564  0.23493198177104094  0.16668819685473577  1.0000
  C   C52       1.0  0.8289820677505588  0.06824930272419752  0.833316132657849  1.0000
  C   C53       1.0  0.2091183020467398  0.5854041988250956  0.675722602904088  1.0000
  C   C54       1.0  0.29088718142700304  0.9096788199532  0.3242739791292378  1.0000
  C   C55       1.0  0.7908802179197139  0.4145928268047571  0.3242756440517239  1.0000
  C   C56       1.0  0.7091132635358903  0.09032327854707485  0.6757259591362937  1.0000
  C   C57       1.0  0.3343148174793883  0.4757746365859461  0.6374912230927946  1.0000
  C   C58       1.0  0.16569365506587988  0.8382834939179774  0.3625107580660582  1.0000
  C   C59       1.0  0.6656850754048167  0.5242235959620843  0.3625065369024369  1.0000
  C   C60       1.0  0.8343062280461385  0.16171830602039713  0.6374905746005908  1.0000
  C   C61       1.0  0.38893355208126934  0.579808781285422  0.7259085920645986  1.0000
  C   C62       1.0  0.11107159493814585  0.8539003276438919  0.27409591130316346  1.0000
  C   C63       1.0  0.611066081814741  0.42019240885856857  0.27409043876040323  1.0000
  C   C64       1.0  0.888928288173872  0.1461014722944753  0.7259054213634853  1.0000
  C   C65       1.0  0.48055268657152794  0.012972221078555913  0.22042175770459946  1.0000
  C   C66       1.0  0.019445105158048544  0.7925395550621562  0.7795749389359087  1.0000
  C   C67       1.0  0.5194473250573708  0.9870284568008716  0.7795792968143117  1.0000
  C   C68       1.0  0.9805528470942164  0.2074593124399939  0.2204268460238764  1.0000
  S   S1        1.0  0.3844873307795708  0.8049402056964822  0.9768664550618877  1.0000
  S   S2        1.0  0.11551582527376783  0.8280688598295001  0.023131440969102305  1.0000
  S   S3        1.0  0.6155093061104822  0.19505867429483462  0.02313196237691527  1.0000
  S   S4        1.0  0.8844811893491736  0.1719295078972537  0.976869000163603  1.0000
  N   N1        1.0  0.6630840923432474  0.28759883764407584  0.5282487296266751  1.0000
  N   N2        1.0  0.8369151428354727  0.7593496324804788  0.4717493552653948  1.0000
  N   N3        1.0  0.3369151101732087  0.7124002184010081  0.4717507029174186  1.0000
  N   N4        1.0  0.16308312205165978  0.2406489237892018  0.528248733451626  1.0000
  N   N5        1.0  0.5023339867395293  0.10843535952116669  0.32057016484043277  1.0000
  N   N6        1.0  0.9976640168433306  0.7878515587690771  0.6794263025547663  1.0000
  N   N7        1.0  0.497666713302685  0.891565208339287  0.6794299316639039  1.0000
  N   N8        1.0  0.002336374472889687  0.2121478933677139  0.32057606112376646  1.0000
  N   N9        1.0  0.4254429453544475  0.029460406469688418  0.13294942050957556  1.0000
  N   N10       1.0  0.07454988160203156  0.8965004492121409  0.8670463005735909  1.0000
  N   N11       1.0  0.5745566904960028  0.970540070196236  0.8670488957811385  1.0000
  N   N12       1.0  0.9254479479966662  0.10349739991475097  0.1329536189310757  1.0000
  N   N13       1.0  0.30881921123167183  0.6494785245552919  0.7490911277920489  1.0000
  N   N14       1.0  0.19118308584901914  0.9003847479340125  0.2509075845709246  1.0000
  N   N15       1.0  0.6911781121172638  0.3505209588951175  0.25090704616646053  1.0000
  N   N16       1.0  0.8088169296887529  0.09961450298927599  0.7490920408794182  1.0000
  N   N17       1.0  0.2227049426512977  0.48026322472863103  0.6071535948048633  1.0000
  N   N18       1.0  0.2772995908914665  0.873112584642044  0.39284721391978644  1.0000
  N   N19       1.0  0.7772927603849595  0.5197350329791419  0.39284588831326767  1.0000
  N   N20       1.0  0.7227001676125513  0.12688891039913838  0.6071529678260389  1.0000
  O   O1        1.0  0.7776089652823615  0.6888526644611161  0.6244748677890611  1.0000
  O   O2        1.0  0.7223884903988632  0.0643730924595687  0.37551912286290445  1.0000
  O   O3        1.0  0.2223881068961262  0.31114692267298244  0.375521718862089  1.0000
  O   O4        1.0  0.27761584337039125  0.9356263156930352  0.624482339891763  1.0000
  O   O5        1.0  0.8018650358068555  0.6947357636578104  0.7933851559867122  1.0000
  O   O6        1.0  0.6981453551195642  0.9013487343267952  0.20661101851386823  1.0000
  O   O7        1.0  0.19813721736222337  0.30526824890341697  0.2066124645305862  1.0000
  O   O8        1.0  0.30185760573193227  0.09864946690762363  0.7933909312013796  1.0000
  O   O9        1.0  0.9589999752384059  0.5551528493446725  0.601974247588302  1.0000
  O   O10       1.0  0.5410016362200026  0.9531725307414048  0.3980205277668459  1.0000
  O   O11       1.0  0.04099965670316409  0.444849054277384  0.3980254977709876  1.0000
  O   O12       1.0  0.459000571120157  0.046825981544074545  0.6019766600263026  1.0000
  O   O13       1.0  0.9760814739112362  0.3722438167783224  0.542424532742899  1.0000
  O   O14       1.0  0.5239208995317455  0.8298189631583099  0.4575815530301025  1.0000
  O   O15       1.0  0.023920967009431096  0.6277610131260757  0.4575806731661769  1.0000
  O   O16       1.0  0.4760827497330666  0.1701791280571356  0.5424194386705635  1.0000
