data_image0
_chemical_formula_structural       K2H60C38N6O18
_chemical_formula_sum              "K2 H60 C38 N6 O18"
_cell_length_a       8.034636856
_cell_length_b       9.875315043281612
_cell_length_c       15.175
_cell_angle_alpha    90.0
_cell_angle_beta     90.0
_cell_angle_gamma    101.80754198427007

_space_group_name_H-M_alt    "P 1"
_space_group_IT_number       1

loop_
  _space_group_symop_operation_xyz
  'x, y, z'

loop_
  _atom_site_type_symbol
  _atom_site_label
  _atom_site_symmetry_multiplicity
  _atom_site_fract_x
  _atom_site_fract_y
  _atom_site_fract_z
  _atom_site_occupancy
  K   K1        1.0  0.8764900091633478  0.058389106172327794  0.8562721581548587  1.0000
  K   K2        1.0  0.12351058263479328  0.94160903800978  0.3562721581548587  1.0000
  H   H1        1.0  0.19283969995774433  0.7168563427640748  0.8966036243822091  1.0000
  H   H2        1.0  0.8071616723919063  0.2831449049654324  0.3966023064250379  1.0000
  H   H3        1.0  0.000825925784447165  0.7451772472585674  0.9473093904448078  1.0000
  H   H4        1.0  0.9991754465652105  0.2548240004709399  0.4473093904448078  1.0000
  H   H5        1.0  0.07540127406699779  0.7541620169668732  0.7484738056013214  1.0000
  H   H6        1.0  0.924603571932792  0.24583819624682948  0.2484718286655649  1.0000
  H   H7        1.0  0.9563420815648982  0.6092046287920923  0.8067578253706742  1.0000
  H   H8        1.0  0.0436598111524376  0.39079868796901  0.3067571663920887  1.0000
  H   H9        1.0  0.6982413853926772  0.6253099707401617  0.7227070840197669  1.0000
  H   H10       1.0  0.3017614917521385  0.374692311505143  0.2227057660626031  1.0000
  H   H11       1.0  0.8254499390770462  0.7656027271803652  0.6629779242174649  1.0000
  H   H12       1.0  0.1745476994386408  0.23439852054913496  0.1629785831960433  1.0000
  H   H13       1.0  0.5169905248068928  0.7682852266453821  0.6621001647446434  1.0000
  H   H14       1.0  0.48300934274760715  0.23171498656832767  0.162099505766065  1.0000
  H   H15       1.0  0.5182157235085754  0.7832174276781672  0.7797528830312999  1.0000
  H   H16       1.0  0.4817828994345987  0.21678278553554256  0.279751565074136  1.0000
  H   H17       1.0  0.4649224576982576  0.0067812510579088  0.6369456342668869  1.0000
  H   H18       1.0  0.5350749206335905  0.9932189621557939  0.136944316309723  1.0000
  H   H19       1.0  0.4211620327707805  0.9906957781237223  0.7527630971993418  1.0000
  H   H20       1.0  0.5788348251933897  0.0093023660583924  0.2527611202635924  1.0000
  H   H21       1.0  0.7020467516195907  0.21419959958716106  0.6718668863261925  1.0000
  H   H22       1.0  0.2979513509559126  0.7857985445949467  0.1718642504118648  1.0000
  H   H23       1.0  0.4903652960972167  0.23622444093314954  0.6933891268533756  1.0000
  H   H24       1.0  0.5096333268459574  0.7637757722805532  0.1933864909390479  1.0000
  H   H25       1.0  0.566038996562618  0.4027928641345966  0.8173482701812205  1.0000
  H   H26       1.0  0.4339563566064016  0.5972042455317137  0.3173456342668857  1.0000
  H   H27       1.0  0.769450661496208  0.4040146272923977  0.7682853377265247  1.0000
  H   H28       1.0  0.23054469167281155  0.5959824823739126  0.2682833607907753  1.0000
  H   H29       1.0  0.7790450568989229  0.4934857606249068  0.9245364085667236  1.0000
  H   H30       1.0  0.2209502962700896  0.5065113490414035  0.4245337726523886  1.0000
  H   H31       1.0  0.6816360004199781  0.3250686576918795  0.9612883031301465  1.0000
  H   H32       1.0  0.3183640710104854  0.6749274174586333  0.4612856672158188  1.0000
  H   H33       1.0  0.9523721755571019  0.3225630604283793  0.0413996705107067  1.0000
  H   H34       1.0  0.04762696775375018  0.6774392218169254  0.5413983525535428  1.0000
  H   H35       1.0  0.05194463008545108  0.48637553354313207  0.9956230642504096  1.0000
  H   H36       1.0  0.9480545132254009  0.5136267487021726  0.4956230642504096  1.0000
  H   H37       1.0  0.2456699189889022  0.3626939972763594  0.908148270181222  1.0000
  H   H38       1.0  0.7543287039542719  0.6373062159373433  0.4081476112026365  1.0000
  H   H39       1.0  0.2790084637208494  0.3673027651578238  0.023922899505763  1.0000
  H   H40       1.0  0.7209921843851603  0.6327005516032784  0.523922899505763  1.0000
  H   H41       1.0  0.3576100440888226  0.1596185460684083  0.8918194398682076  1.0000
  H   H42       1.0  0.6423913282608353  0.8403827016610991  0.3918168039538727  1.0000
  H   H43       1.0  0.4005756152247244  0.1595357848045467  0.0070939044481051  1.0000
  H   H44       1.0  0.5994257571249334  0.8404654629249606  0.5070912685337703  1.0000
  H   H45       1.0  0.37835700636536973  0.927459965436313  0.9531492586490915  1.0000
  H   H46       1.0  0.6216456105956141  0.0725412822931872  0.4531466227347636  1.0000
  H   H47       1.0  0.19698522115697156  0.9302676413129234  0.0211492586490962  1.0000
  H   H48       1.0  0.8030134017862025  0.0697325719007793  0.5211466227347614  1.0000
  H   H49       1.0  0.09929799256310896  0.4315079191482453  0.7603584843492612  1.0000
  H   H50       1.0  0.9007041040301897  0.568491259549667  0.2603591433278396  1.0000
  H   H51       1.0  0.15021005598704557  0.5615496585430151  0.6757911037891233  1.0000
  H   H52       1.0  0.8497895513836153  0.4384495201548972  0.1757924217462943  1.0000
  H   H53       1.0  0.3104067923491627  0.5314183514014843  0.7499110378912661  1.0000
  H   H54       1.0  0.6895958246118212  0.468582896328023  0.2499110378912661  1.0000
  H   H55       1.0  0.10803370617556846  0.9810644360414713  0.6972764415156476  1.0000
  H   H56       1.0  0.8919611829336347  0.0189357771722385  0.19727644151564763  1.0000
  H   H57       1.0  0.17910903143831544  0.9337125789212947  0.5911380560131789  1.0000
  H   H58       1.0  0.820886581914536  0.0662855652608201  0.0911373970345934  1.0000
  H   H59       1.0  0.97459366618817  0.9745542281227132  0.6028540362438193  1.0000
  H   H60       1.0  0.025402987900037  0.0254480541225917  0.1028540362438193  1.0000
  C   C1        1.0  0.08647696144492299  0.7712791153656866  0.8898082372322875  1.0000
  C   C2        1.0  0.9135261758837387  0.22872420139541563  0.3898069192751237  1.0000
  C   C3        1.0  0.9915312185897704  0.7233768958408078  0.8060883031301458  1.0000
  C   C4        1.0  0.008471398371213502  0.2766243518886924  0.3060863261943965  1.0000
  C   C5        1.0  0.7459548385120128  0.738457032632752  0.7224599670510727  1.0000
  C   C6        1.0  0.2540457532861282  0.2615411115493558  0.2224586490939018  1.0000
  C   C7        1.0  0.5959538331108618  0.8082961596607632  0.7197120263591401  1.0000
  C   C8        1.0  0.4040464985034404  0.1917009500055542  0.2197093904448124  1.0000
  C   C9        1.0  0.5216832925825088  0.026706025333332703  0.7032560131795691  1.0000
  C   C10       1.0  0.4783150701768335  0.9732931533645726  0.2032546952224052  1.0000
  C   C11       1.0  0.589043390947971  0.1799343673155889  0.7140771004942366  1.0000
  C   C12       1.0  0.4109534670162062  0.8200637768665189  0.2140744645799018  1.0000
  C   C13       1.0  0.6794863492522863  0.3555765285840025  0.8198912685337731  1.0000
  C   C14       1.0  0.3205105087118909  0.6444216155981124  0.31988797364086  1.0000
  C   C15       1.0  0.7627363937038183  0.3821232384843896  0.9090859967051088  1.0000
  C   C16       1.0  0.23726170887167797  0.6178749056977182  0.409083360790774  1.0000
  C   C17       1.0  0.023095106115455583  0.3734436509365864  0.9836131795716625  1.0000
  C   C18       1.0  0.9769062662341951  0.6265575967929209  0.4836125205930841  1.0000
  C   C19       1.0  0.18761899515479993  0.3243227718012989  0.971683031301481  1.0000
  C   C20       1.0  0.8123808723997  0.6756774414124038  0.4716823723229028  1.0000
  C   C21       1.0  0.3028122136873677  0.12286426878610258  0.9564125205930836  1.0000
  C   C22       1.0  0.6971871898073161  0.8771390479749925  0.4564092257001633  1.0000
  C   C23       1.0  0.25967928713467353  0.9669691582895154  0.958121252059307  1.0000
  C   C24       1.0  0.740322865766501  0.0330351929873842  0.4581199341021431  1.0000
  C   C25       1.0  0.1446384128763469  0.24141564120906617  0.6643347611202657  1.0000
  C   C26       1.0  0.8553644642684688  0.7585866410362385  0.1643347611202657  1.0000
  C   C27       1.0  0.35611259111097837  0.4201665224513889  0.5877614497528825  1.0000
  C   C28       1.0  0.6438925150726433  0.5798347252781184  0.0877601317957186  1.0000
  C   C29       1.0  0.37994627517927165  0.3151973079444232  0.5265377265238911  1.0000
  C   C30       1.0  0.6200538525590602  0.684803939785084  0.0265410214168043  1.0000
  C   C31       1.0  0.2989955169604528  0.1730362159724663  0.5357686985173018  1.0000
  C   C32       1.0  0.7010053350215271  0.8269629627254389  0.0357686985172947  1.0000
  C   C33       1.0  0.1960771923068592  0.48201711848485473  0.7137706754530484  1.0000
  C   C34       1.0  0.8039224150638021  0.5179820602130505  0.21377067545304843  1.0000
  C   C35       1.0  0.48952821814611264  0.3546092563125782  0.4550168039538747  1.0000
  C   C36       1.0  0.5104694203695812  0.6453919914169219  0.955017462932453  1.0000
  C   C37       1.0  0.10636608025377829  0.9990288028790957  0.6261515650741316  1.0000
  C   C38       1.0  0.8936303136505899  0.0009724448504116  0.1261522240527171  1.0000
  N   N1        1.0  0.23307932829978026  0.3763816758037777  0.6538154859967023  1.0000
  N   N2        1.0  0.7669230284773576  0.623618537409925  0.1538168039538732  1.0000
  N   N3        1.0  0.18655349105085858  0.1428883565781618  0.6080487644151589  1.0000
  N   N4        1.0  0.8134473609311214  0.8571108221197434  0.1080481054365734  1.0000
  N   N5        1.0  0.5797762062883931  0.389250017818938  0.3948184514003259  1.0000
  N   N6        1.0  0.4202321133615142  0.6107491608789672  0.8948184514003261  1.0000
  O   O1        1.0  0.14844249959901387  0.9178151746486876  0.8858260296540337  1.0000
  O   O2        1.0  0.851560117361963  0.0821860730808197  0.3858247116968698  1.0000
  O   O3        1.0  0.8437910927521629  0.7815694440114598  0.800002635914332  1.0000
  O   O4        1.0  0.15621453379912958  0.2184338727496424  0.3000032948929174  1.0000
  O   O5        1.0  0.6574044400248127  0.9548632544177097  0.713542668863262  1.0000
  O   O6        1.0  0.3425951673458485  0.0451359242801956  0.2135420098846765  1.0000
  O   O7        1.0  0.6332192295186871  0.20992187676115753  0.8043057660626047  1.0000
  O   O8        1.0  0.3667773682616512  0.7900752329051528  0.3043031301482699  1.0000
  O   O9        1.0  0.923844138158337  0.3421092019216161  0.9054418451400323  1.0000
  O   O10       1.0  0.07615572939616298  0.6578910112920866  0.4054405271828685  1.0000
  O   O11       1.0  0.1531117440516709  0.1760187250189915  0.9734932454695198  1.0000
  O   O12       1.0  0.8468896282979799  0.8239825227105086  0.4734912685337704  1.0000
  O   O13       1.0  0.034651797696127994  0.20825320277848652  0.7220230642504148  1.0000
  O   O14       1.0  0.9653480698583649  0.7917470104352162  0.2220224052718294  1.0000
  O   O15       1.0  0.3221783537293064  0.0767869351294479  0.4866484349258684  1.0000
  O   O16       1.0  0.6778264922704764  0.9232132780842618  0.9866477759472829  1.0000
  O   O17       1.0  0.4317865004523186  0.5436277068531155  0.5862056013179568  1.0000
  O   O18       1.0  0.5682158563248264  0.4563725063605871  0.0862049423393714  1.0000
