data_image0
_chemical_formula_structural       Cd2H20C24N12Cl4
_chemical_formula_sum              "Cd2 H20 C24 N12 Cl4"
_cell_length_a       3.810743425880857
_cell_length_b       11.609476858436755
_cell_length_c       16.57359460338179
_cell_angle_alpha    101.14893837009446
_cell_angle_beta     90.01647811276196
_cell_angle_gamma    99.4263968562893

_space_group_name_H-M_alt    "P 1"
_space_group_IT_number       1

loop_
  _space_group_symop_operation_xyz
  'x, y, z'

loop_
  _atom_site_type_symbol
  _atom_site_label
  _atom_site_symmetry_multiplicity
  _atom_site_fract_x
  _atom_site_fract_y
  _atom_site_fract_z
  _atom_site_occupancy
  Cd  Cd1       1.0  0.889039637513605  0.00014454469403089927  0.750049924214906  1.0000
  Cd  Cd2       1.0  0.11095526619624245  0.999854495753475  0.24994912020641644  1.0000
  H   H1        1.0  0.5585570444063919  0.8968704002114194  0.03894572007958173  1.0000
  H   H2        1.0  0.6627511501824799  0.10313362409694798  0.4609485656714938  1.0000
  H   H3        1.0  0.44144400006508994  0.10313042593335812  0.9610541628631992  1.0000
  H   H4        1.0  0.3372551454047325  0.8968672069018668  0.5390519214648748  1.0000
  H   H5        1.0  0.6628205534259876  0.6472994955150285  0.03707721963895243  1.0000
  H   H6        1.0  0.017275287064421652  0.3525568179368578  0.4627222149533878  1.0000
  H   H7        1.0  0.33718356581834286  0.3527022311565703  0.962923988643965  1.0000
  H   H8        1.0  0.9827349222416472  0.6474413415323427  0.5372779208318406  1.0000
  H   H9        1.0  0.8442027541359138  0.4771589733964492  0.9367045441086432  1.0000
  H   H10       1.0  0.36786833821392406  0.5227229929091592  0.5631546342430698  1.0000
  H   H11       1.0  0.1557982961915982  0.5228418629859065  0.06329654694002332  1.0000
  H   H12       1.0  0.6321339929545361  0.47727515671959264  0.4368442932252989  1.0000
  H   H13       1.0  0.02000729456211293  0.49866749237999397  0.7971967266646729  1.0000
  H   H14       1.0  0.5208422269722275  0.5014490536919141  0.702819302188452  1.0000
  H   H15       1.0  0.9799889553286645  0.5013342398075267  0.20280508546021994  1.0000
  H   H16       1.0  0.47915837560432095  0.49855088715003165  0.2971810676433364  1.0000
  H   H17       1.0  0.02544580689497167  0.6907642846591956  0.7489744495654733  1.0000
  H   H18       1.0  0.3339744612831764  0.3094045699024123  0.751091268612015  1.0000
  H   H19       1.0  0.9745464785770536  0.30923476615826223  0.2510258028914052  1.0000
  H   H20       1.0  0.6660265831883123  0.6905962562423655  0.2489086143307659  1.0000
  C   C1        1.0  0.8350070830181977  0.7742078075168877  0.8657649124376122  1.0000
  C   C2        1.0  0.0607146947139938  0.22589673673211766  0.6342221835224322  1.0000
  C   C3        1.0  0.16498871326557205  0.22579301889265216  0.134234970364524  1.0000
  C   C4        1.0  0.9392885231723652  0.7741031886210834  0.36577637422085735  1.0000
  C   C5        1.0  0.7346858761278199  0.7608544899109404  0.9461946441700918  1.0000
  C   C6        1.0  0.9745014319271731  0.23914946502946324  0.5537141003217555  1.0000
  C   C7        1.0  0.26531299200077296  0.23914723190662815  0.053805959919238006  1.0000
  C   C8        1.0  0.025506150357024526  0.7608486894533258  0.4462854313402005  1.0000
  C   C9        1.0  0.7370240052954101  0.6549459471889065  0.9746759343366874  1.0000
  C   C10       1.0  0.08316993617930989  0.34497107921601616  0.5251928549851713  1.0000
  C   C11       1.0  0.2629722387393301  0.3450557747610362  0.025324669682319723  1.0000
  C   C12       1.0  0.916840273126759  0.655027080253177  0.4748072808000501  1.0000
  C   C13       1.0  0.8388702860785385  0.5622180276351828  0.9186126259005931  1.0000
  C   C14       1.0  0.2770763119106761  0.43773962946946204  0.5813118244777729  1.0000
  C   C15       1.0  0.16112858205005404  0.43778369418237867  0.0813879781887366  1.0000
  C   C16       1.0  0.7229207798541283  0.5622585357804084  0.41868891500876526  1.0000
  C   C17       1.0  0.9397450902903158  0.5744731901618324  0.8381186824523469  1.0000
  C   C18       1.0  0.3649391709494836  0.4256161272947168  0.6618873251363055  1.0000
  C   C19       1.0  0.06025683797103902  0.425529406588609  0.1618802267124195  1.0000
  C   C20       1.0  0.635061431627065  0.5743838135472289  0.3381130446954828  1.0000
  C   C21       1.0  0.9419604334984584  0.6797516384873888  0.8102515488380462  1.0000
  C   C22       1.0  0.2618617466695383  0.32036419923181825  0.6897618159571977  1.0000
  C   C23       1.0  0.058033180586384965  0.3202500733573572  0.18974784700475308  1.0000
  C   C24       1.0  0.7381388588350289  0.6796357467289198  0.3102391579275334  1.0000
  N   N1        1.0  0.6443854723793833  0.8678353034229928  0.9806391459497091  1.0000
  N   N2        1.0  0.7772987613669288  0.13218417868881013  0.5192777160652042  1.0000
  N   N3        1.0  0.35561601691505024  0.132166413143409  0.019360854157007203  1.0000
  N   N4        1.0  0.22270619975142122  0.8678139810451455  0.4807224195793652  1.0000
  N   N5        1.0  0.6838496845945415  0.9424919232034771  0.927828325102567  1.0000
  N   N6        1.0  0.741721447489695  0.05758108124938129  0.5721301012140855  1.0000
  N   N7        1.0  0.31614918060603253  0.057509793495306404  0.072171674933827  1.0000
  N   N8        1.0  0.2582817733246756  0.9424188492226124  0.42786906058214674  1.0000
  N   N9        1.0  0.798847272599282  0.8881726676569813  0.8585586538055239  1.0000
  N   N10       1.0  0.9107380651622207  0.11195032589323262  0.6414399810731908  1.0000
  N   N11       1.0  0.20115070295538834  0.11182726819856013  0.14144111190299927  1.0000
  N   N12       1.0  0.08926252863027175  0.8880495995923499  0.3585585765997763  1.0000
  Cl  Cl1       1.0  0.3156127021090001  0.8581434177245842  0.6727741555842429  1.0000
  Cl  Cl2       1.0  0.45761983285623836  0.14214741114744106  0.8273660968820877  1.0000
  Cl  Cl3       1.0  0.6843795804350066  0.14185562797408835  0.3272254928197  1.0000
  Cl  Cl4       1.0  0.5423750825656768  0.8578516497752204  0.17263536375099872  1.0000
