data_image0
_chemical_formula_structural       Cd2H40C36N12Cl4O4
_chemical_formula_sum              "Cd2 H40 C36 N12 Cl4 O4"
_cell_length_a       5.749585944015597
_cell_length_b       11.871724636714278
_cell_length_c       14.603400690923786
_cell_angle_alpha    95.57345048745505
_cell_angle_beta     90.00023137457222
_cell_angle_gamma    89.999803816906

_space_group_name_H-M_alt    "P 1"
_space_group_IT_number       1

loop_
  _space_group_symop_operation_xyz
  'x, y, z'

loop_
  _atom_site_type_symbol
  _atom_site_label
  _atom_site_symmetry_multiplicity
  _atom_site_fract_x
  _atom_site_fract_y
  _atom_site_fract_z
  _atom_site_occupancy
  Cd  Cd1       1.0  0.4999977438365379  6.527316216e-07  4.828233671000001e-07  1.0000
  Cd  Cd2       1.0  0.9999982076137715  0.5000024373808853  3.382598400505711e-06  1.0000
  H   H1        1.0  0.9465807270143645  0.13070726562115445  0.03692952168471209  1.0000
  H   H2        1.0  0.44657744463180643  0.3693004717889393  0.9630774329045053  1.0000
  H   H3        1.0  0.053416200764850416  0.8692941430574305  0.9630720711875684  1.0000
  H   H4        1.0  0.5534160046585798  0.6307009339799873  0.03692895313851349  1.0000
  H   H5        1.0  0.7846270387789575  0.1952287337030184  0.9702996240621078  1.0000
  H   H6        1.0  0.28462606944106744  0.30477574252638817  0.0297088468369111  1.0000
  H   H7        1.0  0.2153733675205701  0.8047735196493375  0.029704774928021004  1.0000
  H   H8        1.0  0.7153673798564456  0.695224816488121  0.9702981567865905  1.0000
  H   H9        1.0  0.920702705775824  0.8346169202549801  0.12252095125025161  1.0000
  H   H10       1.0  0.42069196046751517  0.6653914125176354  0.8774838124969477  1.0000
  H   H11       1.0  0.07931509306205702  0.16539210213561964  0.8774867239795157  1.0000
  H   H12       1.0  0.5793084457846194  0.33461761362242715  0.12251770006654542  1.0000
  H   H13       1.0  0.30585981007806146  0.9968081834394196  0.2183528048317882  1.0000
  H   H14       1.0  0.8058591869384628  0.503183309416876  0.7816538485017971  1.0000
  H   H15       1.0  0.694126682211767  0.0031779944761467986  0.7816421012642537  1.0000
  H   H16       1.0  0.1941360016347247  0.49681640117911724  0.21835651166000503  1.0000
  H   H17       1.0  0.9916740905623984  0.8418390632998081  0.3552297875369419  1.0000
  H   H18       1.0  0.49166297086443933  0.6581582141886171  0.6447707974544201  1.0000
  H   H19       1.0  0.0083332727704502  0.15815811368197785  0.6447714695510031  1.0000
  H   H20       1.0  0.5083339569382518  0.3418381164586604  0.35523039246624677  1.0000
  H   H21       1.0  0.0218791050989964  0.7387466333765002  0.2597549912337698  1.0000
  H   H22       1.0  0.5218807323941733  0.7612510079308945  0.7402448126557744  1.0000
  H   H23       1.0  0.9781282582216735  0.2612496993460311  0.7402427750001125  1.0000
  H   H24       1.0  0.47812663093658614  0.23874870681896704  0.2597587001252464  1.0000
  H   H25       1.0  0.475350441524249  0.6661567738130569  0.2722320865997787  1.0000
  H   H26       1.0  0.9753564440637776  0.833852365881725  0.7277680420072699  1.0000
  H   H27       1.0  0.5246621395645904  0.33384209625967287  0.7277686200706128  1.0000
  H   H28       1.0  0.024650919226281997  0.16614989162652447  0.2722295095977358  1.0000
  H   H29       1.0  0.28779021690633044  0.534115356065726  0.3676384367708607  1.0000
  H   H30       1.0  0.787795743288669  0.9658981564159032  0.6323685631695993  1.0000
  H   H31       1.0  0.7122154071298824  0.46588859287272283  0.6323613033671833  1.0000
  H   H32       1.0  0.21220640225088522  0.034107482289982685  0.3676361044563805  1.0000
  H   H33       1.0  0.8602791006031368  0.5743815830894546  0.560038031251004  1.0000
  H   H34       1.0  0.3602807774840074  0.9256124066376041  0.43996891404143673  1.0000
  H   H35       1.0  0.13969869537074692  0.425618978842131  0.4399641791858572  1.0000
  H   H36       1.0  0.6397144110705782  0.07438646053084595  0.5600365857881329  1.0000
  H   H37       1.0  0.038062262815572005  0.7092553426488661  0.4674748156392994  1.0000
  H   H38       1.0  0.5380581658535989  0.7907388991103587  0.5325274854746382  1.0000
  H   H39       1.0  0.9619433613142904  0.2907325233619459  0.5325277569198477  1.0000
  H   H40       1.0  0.4619422404252306  0.20926504858253728  0.4674743088763336  1.0000
  C   C1        1.0  0.7739895729408989  0.8657358393426758  0.1642748612426459  1.0000
  C   C2        1.0  0.27397526787076043  0.6342666826806819  0.8357291884563622  1.0000
  C   C3        1.0  0.22601779037812267  0.13426641442283935  0.8357288530141814  1.0000
  C   C4        1.0  0.7260164421308134  0.36573980236779846  0.1642755463195513  1.0000
  C   C5        1.0  0.46436711376153283  0.947132963755109  0.21607374328605292  1.0000
  C   C6        1.0  0.9643677549393318  0.5528626388721631  0.7839321399082023  1.0000
  C   C7        1.0  0.535628074847381  0.05285067139870849  0.7839271239932231  1.0000
  C   C8        1.0  0.03563612987591111  0.44714215141520697  0.2160758842560782  1.0000
  C   C9        1.0  0.8950028637076957  0.7810790596351393  0.3081119626545998  1.0000
  C   C10       1.0  0.39500027579847347  0.7189191378061749  0.6918905829877036  1.0000
  C   C11       1.0  0.10499754259417672  0.21891642675153372  0.6918857364148964  1.0000
  C   C12       1.0  0.6049983912628606  0.2810814216221757  0.3081157359010476  1.0000
  C   C13       1.0  0.7719285877769908  0.6974076912714648  0.3625410312696218  1.0000
  C   C14       1.0  0.27192639187460804  0.8025897563912847  0.6374591883656535  1.0000
  C   C15       1.0  0.22808573261995957  0.30258609702655537  0.6374654351024134  1.0000
  C   C16       1.0  0.7280844499178517  0.19741165644050077  0.3625355571272877  1.0000
  C   C17       1.0  0.5608856943777384  0.6457901101566248  0.33528179367251454  1.0000
  C   C18       1.0  0.060879760224807504  0.8542159664105851  0.6647153229562691  1.0000
  C   C19       1.0  0.43911471188386747  0.3542113022633443  0.6647136365508429  1.0000
  C   C20       1.0  0.939118906809384  0.14578628819002398  0.33528702181514797  1.0000
  C   C21       1.0  0.45562483497916867  0.5697668663492833  0.3893029388924347  1.0000
  C   C22       1.0  0.9556252962973416  0.9302389049329985  0.6106941493221427  1.0000
  C   C23       1.0  0.5443825283223733  0.43023708134091965  0.610698855464328  1.0000
  C   C24       1.0  0.04438206700375961  0.069761659482289  0.38930395270475776  1.0000
  C   C25       1.0  0.557669238274798  0.5401258842225614  0.47134843284054995  1.0000
  C   C26       1.0  0.05766966663381371  0.9598784984132743  0.5286547067802303  1.0000
  C   C27       1.0  0.4423294287414806  0.4598746810278127  0.528648299700933  1.0000
  C   C28       1.0  0.9423342181549829  0.040127141123655  0.471348591369015  1.0000
  C   C29       1.0  0.7718566995839354  0.5914042606980556  0.4968934781749326  1.0000
  C   C30       1.0  0.27186609665474043  0.9085940304434169  0.50311160168269  1.0000
  C   C31       1.0  0.22814196747304294  0.40859376179393075  0.5031092155425583  1.0000
  C   C32       1.0  0.7281430059206573  0.09140737739873826  0.4968913606778855  1.0000
  C   C33       1.0  0.875115672614065  0.6691246445280326  0.444021150039454  1.0000
  C   C34       1.0  0.37512112509813994  0.8308710268006223  0.5559852695025072  1.0000
  C   C35       1.0  0.12488299447629461  0.3308640694874682  0.5559787507161503  1.0000
  C   C36       1.0  0.6248740634400961  0.16913207164473212  0.4440212508591586  1.0000
  N   N1        1.0  0.600754044354737  0.9313827178559532  0.1392930021038765  1.0000
  N   N2        1.0  0.10075280464450741  0.5686182443966742  0.8607126794731457  1.0000
  N   N3        1.0  0.39924984046466966  0.06861699689526547  0.8607105106742523  1.0000
  N   N4        1.0  0.8992528194043176  0.43138993207594467  0.1392942438488163  1.0000
  N   N5        1.0  0.5443282398403185  0.8962235514057393  0.2865954608006902  1.0000
  N   N6        1.0  0.04432874378080241  0.6037689907427362  0.7134101401135524  1.0000
  N   N7        1.0  0.45565999173692984  0.10375923907565714  0.7134026003578455  1.0000
  N   N8        1.0  0.955669923283047  0.396232414192447  0.2865976154119849  1.0000
  N   N9        1.0  0.7412677364952673  0.844209886063261  0.2520732668198207  1.0000
  N   N10       1.0  0.24126630570753357  0.6557892776051585  0.747927720893621  1.0000
  N   N11       1.0  0.25873093054840274  0.15578475481725454  0.7479229956114539  1.0000
  N   N12       1.0  0.7587341005931308  0.3442155130994137  0.2520796185286827  1.0000
  Cl  Cl1       1.0  0.7392184758814508  0.8380279582941126  0.8972762331634742  1.0000
  Cl  Cl2       1.0  0.23923353325623253  0.661972897136877  0.1027289939081797  1.0000
  Cl  Cl3       1.0  0.26077671266417474  0.16197006419921675  0.10272646055112489  1.0000
  Cl  Cl4       1.0  0.7607668730483396  0.338031047229144  0.8972782783555218  1.0000
  O   O1        1.0  0.816774178572054  0.12019920255880821  0.9920757590388334  1.0000
  O   O2        1.0  0.31676877652945024  0.37980778696050516  0.00793433626046181  1.0000
  O   O3        1.0  0.18322448846075193  0.8798047438871843  0.00792808952796519  1.0000
  O   O4        1.0  0.6832211942670555  0.620191924885084  0.9920739696797298  1.0000
