data_image0
_chemical_formula_structural       Er2H38C60N10O14
_chemical_formula_sum              "Er2 H38 C60 N10 O14"
_cell_length_a       10.408261664368492
_cell_length_b       11.196938432843105
_cell_length_c       13.367386628693202
_cell_angle_alpha    109.84294865235367
_cell_angle_beta     101.37845827705556
_cell_angle_gamma    108.15806884307602

_space_group_name_H-M_alt    "P 1"
_space_group_IT_number       1

loop_
  _space_group_symop_operation_xyz
  'x, y, z'

loop_
  _atom_site_type_symbol
  _atom_site_label
  _atom_site_symmetry_multiplicity
  _atom_site_fract_x
  _atom_site_fract_y
  _atom_site_fract_z
  _atom_site_occupancy
  Er  Er1       1.0  0.5006804686878894  0.08549410261278469  0.3760774824876733  1.0000
  Er  Er2       1.0  0.4993168563883755  0.914506871931955  0.6239184137801954  1.0000
  H   H1        1.0  0.41359871522264774  0.561271336313453  0.9872305970912407  1.0000
  H   H2        1.0  0.5864005839177296  0.4387389931355797  0.012772760993009068  1.0000
  H   H3        1.0  0.26990734278279405  0.3194775941160585  0.9592390167916348  1.0000
  H   H4        1.0  0.7301038416047732  0.6805307014661821  0.0407648379712882  1.0000
  H   H5        1.0  0.9610679040415918  0.4523125002169905  0.38687639039632415  1.0000
  H   H6        1.0  0.038926897163364026  0.5476801414499447  0.6131197322306788  1.0000
  H   H7        1.0  0.02950302638577539  0.30865665204043324  0.477695454519626  1.0000
  H   H8        1.0  0.9704945066615096  0.6913401552521135  0.5223037727981107  1.0000
  H   H9        1.0  0.2384956437423256  0.24849517572920382  0.44915007113522876  1.0000
  H   H10       1.0  0.7615075664627114  0.7515058096287887  0.550851968661675  1.0000
  H   H11       1.0  0.9268770201089042  0.31033111641372807  0.7074868862854798  1.0000
  H   H12       1.0  0.07312663286110416  0.6896709227291922  0.29250953756216796  1.0000
  H   H13       1.0  0.19508762451679468  0.4399355880749667  0.7886522341569842  1.0000
  H   H14       1.0  0.8049172241056722  0.5600623030707296  0.21134019701768378  1.0000
  H   H15       1.0  0.34450750114237394  0.3247468892427534  0.705468924795383  1.0000
  H   H16       1.0  0.6554916709336852  0.6752468254004356  0.2945199463498795  1.0000
  H   H17       1.0  0.14999071167463987  0.9423045093804702  0.22974940744207822  1.0000
  H   H18       1.0  0.8500080291758466  0.0576975006937559  0.7702514903594632  1.0000
  H   H19       1.0  0.9637517134911704  0.7831230161014487  0.03505108403013676  1.0000
  H   H20       1.0  0.03624769513678668  0.21688524378788535  0.9649472116268852  1.0000
  H   H21       1.0  0.04421467989874366  0.6859735645729045  0.8743606429021681  1.0000
  H   H22       1.0  0.955785481616701  0.3140294935342851  0.12563927603112288  1.0000
  H   H23       1.0  0.2519875612969357  0.6805225279812319  0.8036727908161507  1.0000
  H   H24       1.0  0.7480169619194896  0.31948157965820906  0.19633108988901424  1.0000
  H   H25       1.0  0.5123630563565768  0.7489430135078121  0.8441896168188661  1.0000
  H   H26       1.0  0.487640816735194  0.25106420916181793  0.15581580123543398  1.0000
  H   H27       1.0  0.7639923735960112  0.8824859137138149  0.9841725456305354  1.0000
  H   H28       1.0  0.2360128131184993  0.1175244328002023  0.01583396578178759  1.0000
  H   H29       1.0  0.9265591460448519  0.038966263962287  0.18691133283703454  1.0000
  H   H30       1.0  0.0734404662747393  0.9610378177343292  0.8130955267215397  1.0000
  H   H31       1.0  0.8148176651944683  0.11028927064386097  0.3341473699466562  1.0000
  H   H32       1.0  0.1851784435198098  0.8897064792381286  0.6658573215407769  1.0000
  H   H33       1.0  0.4911430355472178  0.7572989675585261  0.18073071800630197  1.0000
  H   H34       1.0  0.5088579980486685  0.2427061637339918  0.8192744151337834  1.0000
  H   H35       1.0  0.7410455454246332  0.3467514173768364  0.4705392678046393  1.0000
  H   H36       1.0  0.25895428036805157  0.6532485111339952  0.5294641948516413  1.0000
  H   H37       1.0  0.6365823784617676  0.35291344456697255  0.37099897674389837  1.0000
  H   H38       1.0  0.3634213754370493  0.6470865031351848  0.6290028503798906  1.0000
  C   C1        1.0  0.42674045217055584  0.7475502443105311  0.3589215517063308  1.0000
  C   C2        1.0  0.5732538217707486  0.25245279673167426  0.6410752138988867  1.0000
  C   C3        1.0  0.380111347766288  0.6251219797962546  0.24697638549860554  1.0000
  C   C4        1.0  0.6198855351563424  0.3748779425264885  0.7530243791682735  1.0000
  C   C5        1.0  0.38275906842603297  0.5426361539318949  0.05556048092008585  1.0000
  C   C6        1.0  0.6172398980482897  0.45737105373545006  0.9444426831359463  1.0000
  C   C7        1.0  0.3026331105026259  0.40859568687002223  0.04039796165221793  1.0000
  C   C8        1.0  0.6973731660448124  0.5914125905840706  0.959605134212907  1.0000
  C   C9        1.0  0.29783888821496163  0.4862158296646726  0.22283297729864415  1.0000
  C   C10       1.0  0.702162464673556  0.5137830695047612  0.7771681818133515  1.0000
  C   C11       1.0  0.23522877293595454  0.44421310224841176  0.3033141874823072  1.0000
  C   C12       1.0  0.7647718094122665  0.5557816338578689  0.6966864131487965  1.0000
  C   C13       1.0  0.05262686643857255  0.4265845890115259  0.3784925799681602  1.0000
  C   C14       1.0  0.9473703351653456  0.5734090996252021  0.621504958220882  1.0000
  C   C15       1.0  0.09008411723226573  0.34553349175693887  0.4283914667227648  1.0000
  C   C16       1.0  0.9099157128398048  0.6544664476944317  0.5716067630818242  1.0000
  C   C17       1.0  0.20568624349368045  0.312972020810335  0.4133956892283877  1.0000
  C   C18       1.0  0.7943145657010504  0.6870279160149266  0.5866056825567298  1.0000
  C   C19       1.0  0.28121968796167357  0.3639094292228719  0.3504556471807446  1.0000
  C   C20       1.0  0.7187798076103179  0.6360873837580029  0.6495446312463498  1.0000
  C   C21       1.0  0.4066365580241468  0.32960394806352156  0.3351460203620817  1.0000
  C   C22       1.0  0.5933603090796921  0.6703866141027177  0.6648535664494587  1.0000
  C   C23       1.0  0.7722363600262626  0.060506408881003906  0.5423008847827333  1.0000
  C   C24       1.0  0.22776096810670043  0.9394945734783987  0.4576912737339284  1.0000
  C   C25       1.0  0.934231382383949  0.1272556308952915  0.5881514662577345  1.0000
  C   C26       1.0  0.06576507000052341  0.8727432689011889  0.41183996335358586  1.0000
  C   C27       1.0  0.9959036541338692  0.26154727284413326  0.6767221908989995  1.0000
  C   C28       1.0  0.004098476019699053  0.738455806580717  0.32327130364123485  1.0000
  C   C29       1.0  0.14458556617290702  0.3343542809785163  0.7212914800184291  1.0000
  C   C30       1.0  0.8554148155403852  0.6656446411351596  0.278696818959915  1.0000
  C   C31       1.0  0.2278463588902113  0.26965211129538597  0.6755109061945105  1.0000
  C   C32       1.0  0.7721531452405658  0.73034472356656  0.3244789065292153  1.0000
  C   C33       1.0  0.027093822660617703  0.0700077516964441  0.5475912420442555  1.0000
  C   C34       1.0  0.9729015460043442  0.9299932327893004  0.4523961276118412  1.0000
  C   C35       1.0  0.1803391452612287  0.8983556029561224  0.1566020011234881  1.0000
  C   C36       1.0  0.8196597014087885  0.1016443281808179  0.8433983195522713  1.0000
  C   C37       1.0  0.0775002702537364  0.8098336884511497  0.048445303886815304  1.0000
  C   C38       1.0  0.922499891873045  0.19016937121897118  0.951553867496237  1.0000
  C   C39       1.0  0.12203220126914967  0.7564545749170364  0.9589398664561413  1.0000
  C   C40       1.0  0.8779685014947136  0.2435474392825867  0.04106283000500353  1.0000
  C   C41       1.0  0.27046452158102596  0.7943865487815527  0.9778673533934423  1.0000
  C   C42       1.0  0.7295331136177411  0.2056081701961006  0.022135782099958624  1.0000
  C   C43       1.0  0.3665695144484075  0.8848179360251364  0.09005647331505871  1.0000
  C   C44       1.0  0.6334295389699562  0.11517782473374179  0.9099486735110459  1.0000
  C   C45       1.0  0.3266750804680925  0.7468296007863271  0.8898581154724352  1.0000
  C   C46       1.0  0.6733276888059835  0.2531703354755308  0.11014729762299423  1.0000
  C   C47       1.0  0.4712556901963865  0.7859563085279005  0.9121042176591984  1.0000
  C   C48       1.0  0.5287465353839096  0.2140446653897925  0.08790140810934591  1.0000
  C   C49       1.0  0.5709930385698812  0.8760692098475501  0.024381741146107944  1.0000
  C   C50       1.0  0.4290077675681445  0.12393071916304878  0.9756233683902094  1.0000
  C   C51       1.0  0.5191830225031068  0.9261365429049558  0.11379453791537471  1.0000
  C   C52       1.0  0.48081734453798936  0.0738623416983089  0.8862117022687528  1.0000
  C   C53       1.0  0.721275311025735  0.9184647276991876  0.05150364293682926  1.0000
  C   C54       1.0  0.278726371472125  0.08153728543727107  0.948501447954591  1.0000
  C   C55       1.0  0.8100609095484188  0.0031319241345358004  0.1624472822284915  1.0000
  C   C56       1.0  0.1899403350751925  0.9968690477204517  0.8375574442102616  1.0000
  C   C57       1.0  0.7487726968085369  0.04525653309222119  0.24565974793290474  1.0000
  C   C58       1.0  0.2512262501789522  0.9547413050410184  0.7543467235692346  1.0000
  C   C59       1.0  0.42359918963781235  0.650981233243996  0.1612675766111592  1.0000
  C   C60       1.0  0.5764004251271402  0.3490228547043514  0.8387362927464536  1.0000
  N   N1        1.0  0.2617224789035006  0.3799046441336742  0.12166284991636192  1.0000
  N   N2        1.0  0.7382837830478267  0.6200942762897766  0.8783375729929472  1.0000
  N   N3        1.0  0.12280992271936238  0.4751669459225738  0.3166478036098325  1.0000
  N   N4        1.0  0.8771891362010749  0.5248288289027059  0.6833506152641033  1.0000
  N   N5        1.0  0.1709721497799848  0.14111836308720874  0.5922215767395044  1.0000
  N   N6        1.0  0.8290233247045149  0.8588805424612428  0.4077652157908032  1.0000
  N   N7        1.0  0.3207829644336755  0.9335435040261757  0.17750749744847374  1.0000
  N   N8        1.0  0.6792150040424901  0.06645433829609709  0.8224950845228989  1.0000
  N   N9        1.0  0.6077771612240568  0.008815132791973199  0.2226756703657884  1.0000
  N   N10       1.0  0.39222036876652316  0.991181666685904  0.7773272947031558  1.0000
  O   O1        1.0  0.45657987453854076  0.8656886253280685  0.35721273804966797  1.0000
  O   O2        1.0  0.5434127494459275  0.1343081607104608  0.6427872254707623  1.0000
  O   O3        1.0  0.4355809876966605  0.7281801809098241  0.4476865707377016  1.0000
  O   O4        1.0  0.5644150188661358  0.2718176572870589  0.5523142125740748  1.0000
  O   O5        1.0  0.5191402887157538  0.4201774087105718  0.33975194616068893  1.0000
  O   O6        1.0  0.4808637808076385  0.5798162974909075  0.6602503922364633  1.0000
  O   O7        1.0  0.388251530420149  0.20496970846606635  0.31868527037642014  1.0000
  O   O8        1.0  0.6117446902270771  0.795023978107963  0.6813113684828165  1.0000
  O   O9        1.0  0.7162950190107014  0.1017086391947757  0.4746652494710587  1.0000
  O   O10       1.0  0.2837029428167952  0.8982798664150023  0.5253249413913605  1.0000
  O   O11       1.0  0.7079444487565854  0.9853648911312549  0.584728980254674  1.0000
  O   O12       1.0  0.2920523301805319  0.014637114817581702  0.41527011888727117  1.0000
  O   O13       1.0  0.6892422479088723  0.2965962234234283  0.38930512026356456  1.0000
  O   O14       1.0  0.3107591049796453  0.7034026757460052  0.6106960388484379  1.0000
