data_image0
_chemical_formula_structural       Zn2H32C48I18N2O8
_chemical_formula_sum              "Zn2 H32 C48 I18 N2 O8"
_cell_length_a       14.54975482885871
_cell_length_b       16.07472617543953
_cell_length_c       15.962490994483476
_cell_angle_alpha    90.91752597939983
_cell_angle_beta     93.28029889698733
_cell_angle_gamma    90.78528993961349

_space_group_name_H-M_alt    "P 1"
_space_group_IT_number       1

loop_
  _space_group_symop_operation_xyz
  'x, y, z'

loop_
  _atom_site_type_symbol
  _atom_site_label
  _atom_site_symmetry_multiplicity
  _atom_site_fract_x
  _atom_site_fract_y
  _atom_site_fract_z
  _atom_site_occupancy
  Zn  Zn1       1.0  0.5960612198636567  0.5053658343528084  0.5052675773057232  1.0000
  Zn  Zn2       1.0  0.40304006137802867  0.500124735397179  0.49210433543287035  1.0000
  H   H1        1.0  0.9446272121803716  0.38136155048682946  0.45781089805326775  1.0000
  H   H2        1.0  0.6491466334171606  0.5570286664475502  0.8412035082752782  1.0000
  H   H3        1.0  0.6944351534024165  0.6233496383377426  0.9240005902538759  1.0000
  H   H4        1.0  0.6604748949026772  0.9904535893960753  0.35269212183487764  1.0000
  H   H5        1.0  0.6762851351742043  0.8997137156028288  0.4145222905735651  1.0000
  H   H6        1.0  0.5866520806091343  0.9018514878561134  0.33385256503215294  1.0000
  H   H7        1.0  0.0456517622205013  0.47710041901236605  0.28248080435063383  1.0000
  H   H8        1.0  0.04066786620643371  0.5731446709653909  0.3366654613290124  1.0000
  H   H9        1.0  0.14692752741940043  0.519860016136505  0.3350640731230429  1.0000
  H   H10       1.0  0.0619264954469756  0.7050984736913718  0.5959085545688867  1.0000
  H   H11       1.0  0.041110068166112505  0.6104294851960786  0.6469397002000152  1.0000
  H   H12       1.0  0.5392293812639438  0.6160253485516588  0.07085133495409221  1.0000
  H   H13       1.0  0.152689987334746  0.6333773265065898  0.611258999554835  1.0000
  H   H14       1.0  0.05053112011675152  0.32404676914203623  0.5268934404415406  1.0000
  H   H15       1.0  0.16181775303061133  0.3548781368905267  0.5690579142159609  1.0000
  H   H16       1.0  0.07331036706209201  0.3288354842795655  0.6366458233916604  1.0000
  H   H17       1.0  0.2713718955031439  0.9981886655620753  0.44465314643790793  1.0000
  H   H18       1.0  0.31669818427298685  0.9073530550667925  0.39730450183763844  1.0000
  H   H19       1.0  0.2912120801979725  0.9071426468706533  0.5052359597340159  1.0000
  H   H20       1.0  0.5702541678708997  0.9928889484695628  0.7092826147015006  1.0000
  H   H21       1.0  0.4968747969554812  0.9043982504529707  0.6879836985494594  1.0000
  H   H22       1.0  0.6140293887677758  0.9015934518986838  0.6614852098593789  1.0000
  H   H23       1.0  0.35099960405375447  0.3705363826539738  0.9607837643262376  1.0000
  H   H24       1.0  0.25415193969703864  0.5129201094598486  0.06812573614931242  1.0000
  H   H25       1.0  0.306936096755379  0.4143969674270095  0.07727258775877742  1.0000
  H   H26       1.0  0.3275248461019729  0.4907717249518413  0.15761401438869171  1.0000
  H   H27       1.0  0.2598598977733105  0.44018247480329353  0.9404991647518204  1.0000
  H   H28       1.0  0.33113781456773955  0.4116424843454495  0.85859013832296  1.0000
  H   H29       1.0  0.6850158652143963  0.42222829810634005  0.9700382149238183  1.0000
  H   H30       1.0  0.653591234395492  0.3211561261606801  0.9364363483492115  1.0000
  H   H31       1.0  0.6452785737447115  0.40271917857452877  0.8626182214142164  1.0000
  H   H32       1.0  0.7082758381468182  0.5161426559352549  0.9320844000719861  1.0000
  C   C1        1.0  0.4968664040300155  0.49969020551899473  0.3365117744024533  1.0000
  C   C2        1.0  0.3986108274578585  0.5177373982335425  0.045247292419681215  1.0000
  C   C3        1.0  0.39361748055699053  0.5010354061028721  0.9484894103705133  1.0000
  C   C4        1.0  0.5018781887570752  0.34165436203293353  0.49886428905053765  1.0000
  C   C5        1.0  0.49815325496636126  0.49325289056645966  0.7506856571405935  1.0000
  C   C6        1.0  0.5005201908377828  0.48945610182394006  0.08030363409563533  1.0000
  C   C7        1.0  0.5672374034858834  0.5605468486974557  0.950684128665714  1.0000
  C   C8        1.0  0.4952866781295882  0.48967160062816345  0.9162115070737191  1.0000
  C   C9        1.0  0.536774925380094  0.40073870111272925  0.9506829914608377  1.0000
  C   C10       1.0  0.5246573269449684  0.3985297911450161  0.04778044767468261  1.0000
  C   C11       1.0  0.4935289333478323  0.4883980646332375  0.8259984742323356  1.0000
  C   C12       1.0  0.504550213579819  0.08904451237676618  0.502556462407526  1.0000
  C   C13       1.0  0.5032687888569853  0.49254574381048843  0.17070139783969307  1.0000
  C   C14       1.0  0.49953537018713945  0.49633493972805093  0.24627621119122986  1.0000
  C   C15       1.0  0.04985576682249619  0.4631214227632156  0.41584083563169844  1.0000
  C   C16       1.0  0.500884598721818  0.49920178270905063  0.6608006674013398  1.0000
  C   C17       1.0  0.051769209369958005  0.5996502677560541  0.5110834245976649  1.0000
  C   C18       1.0  0.9449910057285111  0.5969534055000166  0.49217065604096905  1.0000
  C   C19       1.0  0.0879837944654369  0.504611470673801  0.5036966529126803  1.0000
  C   C20       1.0  0.9490241259284603  0.4434243478836706  0.430932715607952  1.0000
  C   C21       1.0  0.9121959770251353  0.5031198663853828  0.5028125626313626  1.0000
  C   C22       1.0  0.9510431086055889  0.4590296084787794  0.5874368544012257  1.0000
  C   C23       1.0  0.5268886624128655  0.9742878981948094  0.5798976323622327  1.0000
  C   C24       1.0  0.05801220471122551  0.44975976499409137  0.5824943338514004  1.0000
  C   C25       1.0  0.8125927360246409  0.5013789337825543  0.5011474794712572  1.0000
  C   C26       1.0  0.18710683665084105  0.5056362692153158  0.5031651125491765  1.0000
  C   C27       1.0  0.49847974693035013  0.6640182214805744  0.5005734851165686  1.0000
  C   C28       1.0  0.5605491183017011  0.9728598261702712  0.4443499009105239  1.0000
  C   C29       1.0  0.4759731403600115  0.030189237985830196  0.4245381572858237  1.0000
  C   C30       1.0  0.5036189138908044  0.251966203162759  0.5006826243787332  1.0000
  C   C31       1.0  0.4973108399240118  0.7538393715286275  0.5009586567678214  1.0000
  C   C32       1.0  0.5875598329272121  0.028995751170803892  0.5234349244617962  1.0000
  C   C33       1.0  0.3304686206102899  0.4259183269246734  0.9257873864435455  1.0000
  C   C34       1.0  0.4978440807646152  0.9173305198892548  0.5001849996709424  1.0000
  C   C35       1.0  0.6366030237395891  0.3866742063164779  0.9281887430404017  1.0000
  C   C36       1.0  0.660477370349007  0.5633653683011557  0.9095324931235144  1.0000
  C   C37       1.0  0.6245405973380188  0.9394110877776923  0.3829175302557531  1.0000
  C   C38       1.0  0.0723014178669601  0.5119794228940648  0.33842666085629264  1.0000
  C   C39       1.0  0.07863611481543134  0.6389973301643438  0.5969180016648041  1.0000
  C   C40       1.0  0.08788991999943364  0.3590890444424559  0.5777461987365059  1.0000
  C   C41       1.0  0.31764764797777195  0.9454139713610913  0.4551895604066659  1.0000
  C   C42       1.0  0.5535860284776248  0.941565804678376  0.6644073336619415  1.0000
  C   C43       1.0  0.31709824047501206  0.48094453458941877  0.08966289187280552  1.0000
  C   C44       1.0  0.4432024465094957  0.031632818064551295  0.5572692103271708  1.0000
  C   C45       1.0  0.41289378625892686  0.9755644146417026  0.4789780350170077  1.0000
  C   C46       1.0  0.5054735252064972  0.17641845316286717  0.5023975248421311  1.0000
  C   C47       1.0  0.4965191222417573  0.8295573411502416  0.5003492271055878  1.0000
  C   C48       1.0  0.5676989131174752  0.5583851715843122  0.046762964140761226  1.0000
  I   I1        1.0  0.4376646866202165  0.0752894621146112  0.3037088430266551  1.0000
  I   I2        1.0  0.8873340060034139  0.6417248995825418  0.3692023012244265  1.0000
  I   I3        1.0  0.8711514639203985  0.6878205244603277  0.5705389255380526  1.0000
  I   I4        1.0  0.14962350824512072  0.48346548835150555  0.7018153510344833  1.0000
  I   I5        1.0  0.8723679838669016  0.334946759761813  0.5872314573417869  1.0000
  I   I6        1.0  0.11838853921669572  0.34348573694951756  0.37929844169123333  1.0000
  I   I7        1.0  0.9031845210104521  0.5101310802160695  0.7047045296349882  1.0000
  I   I8        1.0  0.3528168304168773  0.07873798184687786  0.645629376673327  1.0000
  I   I9        1.0  0.7237665943506215  0.07095373189809348  0.557675151298021  1.0000
  I   I10       1.0  0.5251175060709273  0.6907407392208356  0.9091208780670146  1.0000
  I   I11       1.0  0.38137156609837325  0.6510116278681575  0.09109941371098534  1.0000
  I   I12       1.0  0.30835007936860853  0.5929704361280698  0.8725794632996159  1.0000
  I   I13       1.0  0.6521129245326733  0.3535764250999236  0.12101142876073112  1.0000
  I   I14       1.0  0.43218147257766043  0.3002419298316852  0.09459905261984151  1.0000
  I   I15       1.0  0.7031987442763497  0.5771178475336212  0.11254622266115895  1.0000
  I   I16       1.0  0.47699329577934446  0.2911663601556286  0.8732473185837651  1.0000
  I   I17       1.0  0.8582104986970904  0.4177378502344168  0.32068601713653794  1.0000
  I   I18       1.0  0.12899247645233197  0.6883268647035975  0.4335224003766174  1.0000
  N   N1        1.0  0.7334727328924728  0.5047106181797217  0.5031500916928382  1.0000
  N   N2        1.0  0.26558671511002524  0.5019864998056391  0.4960512981179124  1.0000
  O   O1        1.0  0.5743004899201907  0.4961491773231116  0.3770347551116943  1.0000
  O   O2        1.0  0.41748775936638083  0.5056850738210413  0.3654382910035495  1.0000
  O   O3        1.0  0.5792845482732151  0.37887678619659226  0.511225938585284  1.0000
  O   O4        1.0  0.4232890011408372  0.37417986023729094  0.48523113029793324  1.0000
  O   O5        1.0  0.5798830414984478  0.5106604745204206  0.6323773455827182  1.0000
  O   O6        1.0  0.42355329486778714  0.4924059780878948  0.6200223831917528  1.0000
  O   O7        1.0  0.5774231684585659  0.630894924185256  0.49950914794974494  1.0000
  O   O8        1.0  0.4206378111136573  0.6270150178862294  0.5011544182759453  1.0000
