data_image0
_chemical_formula_structural       Cd2H32C38N8O16
_chemical_formula_sum              "Cd2 H32 C38 N8 O16"
_cell_length_a       7.870642305840453
_cell_length_b       11.35810326736602
_cell_length_c       11.9656900821857
_cell_angle_alpha    84.95660325911712
_cell_angle_beta     73.32278058933504
_cell_angle_gamma    82.2849795543938

_space_group_name_H-M_alt    "P 1"
_space_group_IT_number       1

loop_
  _space_group_symop_operation_xyz
  'x, y, z'

loop_
  _atom_site_type_symbol
  _atom_site_label
  _atom_site_symmetry_multiplicity
  _atom_site_fract_x
  _atom_site_fract_y
  _atom_site_fract_z
  _atom_site_occupancy
  Cd  Cd1       1.0  0.23835873208503947  0.9944278901550233  0.99682342527165  1.0000
  Cd  Cd2       1.0  0.7616436819909893  0.005571932602578002  0.003176295275245918  1.0000
  H   H1        1.0  0.6122461571808628  0.6894105791624128  0.770356704998477  1.0000
  H   H2        1.0  0.3877552037020848  0.310587470465002  0.2296408578149212  1.0000
  H   H3        1.0  0.861549266599333  0.5895923645505192  0.6133929771197302  1.0000
  H   H4        1.0  0.138455472628884  0.4104092393774437  0.3866036406047328  1.0000
  H   H5        1.0  0.09611650219684983  0.9182237325009835  0.52546899770433  1.0000
  H   H6        1.0  0.9038828168820103  0.08177876062055837  0.47453193550907713  1.0000
  H   H7        1.0  0.8475013362351048  0.0175548298705266  0.6837123662124539  1.0000
  H   H8        1.0  0.15249827440322147  0.9824458854885948  0.3162878216517697  1.0000
  H   H9        1.0  0.03406520515650869  0.36156251813093127  0.7517199775977871  1.0000
  H   H10       1.0  0.9659391012820889  0.6384417516486351  0.24827817520921508  1.0000
  H   H11       1.0  0.27053282288727587  0.4372707145931115  0.5799209775687117  1.0000
  H   H12       1.0  0.7294723855272808  0.5627282171470254  0.4200774415433344  1.0000
  H   H13       1.0  0.5288402283126813  0.0807301492881365  0.5263127870931186  1.0000
  H   H14       1.0  0.47115850675943  0.9192678985154076  0.47368778977436676  1.0000
  H   H15       1.0  0.29204019064945186  0.0042414609827475  0.6972273957018871  1.0000
  H   H16       1.0  0.7079552899969813  0.995760148442038  0.3027735153304079  1.0000
  H   H17       1.0  0.8557241692249988  0.28098432791139777  0.06041500453228109  1.0000
  H   H18       1.0  0.14427325749129247  0.7190137181881794  0.9395874964210194  1.0000
  H   H19       1.0  0.9141441449175431  0.34841143663732055  0.1705109678105359  1.0000
  H   H20       1.0  0.08585461745211384  0.6515866064140639  0.8294921114095501  1.0000
  H   H21       1.0  0.9536315296975956  0.19176276745729132  0.158921021726762  1.0000
  H   H22       1.0  0.046369708153577036  0.8082361670912092  0.8410789990550568  1.0000
  H   H23       1.0  0.16422627260788397  0.4853987144795866  0.01060387926197141  1.0000
  H   H24       1.0  0.8357750016400016  0.5146002137327059  0.9893994779899699  1.0000
  H   H25       1.0  0.6654853655255124  0.376801046234583  0.8378975470099448  1.0000
  H   H26       1.0  0.33451542133767737  0.6232005573336394  0.1621023406193558  1.0000
  H   H27       1.0  0.5290398825577896  0.5121859022312734  0.8852839834937072  1.0000
  H   H28       1.0  0.47095693374201647  0.4878157041453192  0.1147175058053733  1.0000
  H   H29       1.0  0.5252070371848916  0.4507382326768763  0.7547511796261048  1.0000
  H   H30       1.0  0.4747862595394992  0.5492607074883579  0.2452520444952739  1.0000
  H   H31       1.0  0.5039648863605067  0.18108569831272794  0.8706175437777118  1.0000
  H   H32       1.0  0.4960350340356499  0.8189132361158614  0.1293835669723862  1.0000
  C   C1        1.0  0.5670128057222286  0.9195632751349836  0.8273344638663359  1.0000
  C   C2        1.0  0.4329873880350447  0.0804338846992891  0.17266423329951416  1.0000
  C   C3        1.0  0.7157661415322424  0.8589346893281868  0.7352261156090735  1.0000
  C   C4        1.0  0.28423228378203896  0.14106513940588875  0.2647735383725376  1.0000
  C   C5        1.0  0.7195204418442599  0.7383067328929371  0.7167962351121205  1.0000
  C   C6        1.0  0.2804834309169237  0.26169220189539283  0.2832016057331402  1.0000
  C   C7        1.0  0.8572258507986276  0.6826966281033721  0.6301097143355676  1.0000
  C   C8        1.0  0.14277788073241027  0.31730319477414076  0.3698889162430489  1.0000
  C   C9        1.0  0.9877572053083837  0.7509408994697534  0.5613232967103842  1.0000
  C   C10       1.0  0.012246526222654108  0.24905892340775884  0.43867533386823243  1.0000
  C   C11       1.0  0.9884835347337598  0.8703516444928993  0.579390999573313  1.0000
  C   C12       1.0  0.0115188884414508  0.12964817668064646  0.42060955509111864  1.0000
  C   C13       1.0  0.851983287138026  0.9242346936549025  0.6674474848637644  1.0000
  C   C14       1.0  0.14801366129274374  0.07576602621654871  0.3325523805844242  1.0000
  C   C15       1.0  0.0028568681673846064  0.13337640624539657  0.8316461056180272  1.0000
  C   C16       1.0  0.9971415480477221  0.8666234240727274  0.16835271424605477  1.0000
  C   C17       1.0  0.14809750813180503  0.17884628082131823  0.7331522380337603  1.0000
  C   C18       1.0  0.851900766853156  0.8211544375859957  0.26684737156367794  1.0000
  C   C19       1.0  0.14299978118840775  0.3009145951290648  0.7018437346588654  1.0000
  C   C20       1.0  0.8569998203507437  0.6990861218141048  0.2981556190878223  1.0000
  C   C21       1.0  0.2732015440552686  0.3433319298945888  0.6071554565935741  1.0000
  C   C22       1.0  0.7268011524810517  0.656666116684633  0.39284268448660953  1.0000
  C   C23       1.0  0.40714241919734206  0.2612232535258201  0.5445581644219217  1.0000
  C   C24       1.0  0.5928604367674879  0.7387739017961152  0.4554408551599636  1.0000
  C   C25       1.0  0.41855996963205644  0.1399407423694043  0.5763508046781922  1.0000
  C   C26       1.0  0.5814372612589975  0.8600582013236745  0.4236474813032772  1.0000
  C   C27       1.0  0.2880855537239455  0.0986922063502291  0.6711624247901256  1.0000
  C   C28       1.0  0.7119115450361448  0.9013076238479839  0.3288374850422358  1.0000
  C   C29       1.0  0.9563915555979178  0.2773111086796618  0.10863740925112358  1.0000
  C   C30       1.0  0.04360791381026273  0.722690494768642  0.8913635683464634  1.0000
  C   C31       1.0  0.13686998063558056  0.29073881382338124  0.02772677674636981  1.0000
  C   C32       1.0  0.8631283034485547  0.7092619029998771  0.9722736669685972  1.0000
  C   C33       1.0  0.2192845361932712  0.3952226535318317  0.9875375774070038  1.0000
  C   C34       1.0  0.7807150926434189  0.6047780586591855  0.012464278692284803  1.0000
  C   C35       1.0  0.38762604772055914  0.35998142295836283  0.9130646652749376  1.0000
  C   C36       1.0  0.6123734580843417  0.640020174153733  0.08693964879276452  1.0000
  C   C37       1.0  0.5352026996959722  0.4285976705420397  0.8441075846318641  1.0000
  C   C38       1.0  0.4647957529158547  0.5714021534398769  0.1558945717023406  1.0000
  N   N1        1.0  0.12785678779262352  0.6966854535058857  0.4643677180945929  1.0000
  N   N2        1.0  0.8721439990705662  0.30331615006232937  0.5356321695347077  1.0000
  N   N3        1.0  0.5365803626923834  0.3022115489334993  0.43809127115730473  1.0000
  N   N4        1.0  0.4634238016282737  0.6977856080924029  0.5619058243387655  1.0000
  N   N5        1.0  0.24960299396886404  0.1961299283707234  0.9801517883378777  1.0000
  N   N6        1.0  0.7503941229895899  0.803869898659386  0.01984978972954822  1.0000
  N   N7        1.0  0.399115487557374  0.2403424615139826  0.9112706256342946  1.0000
  N   N8        1.0  0.6008854678334998  0.7596582492128973  0.08873097461424348  1.0000
  O   O1        1.0  0.42285039704200494  0.8715667282788149  0.865465525403053  1.0000
  O   O2        1.0  0.5771495051557946  0.1284322093178858  0.13453391711198046  1.0000
  O   O3        1.0  0.5910575410094622  0.017450496948846702  0.862846365620733  1.0000
  O   O4        1.0  0.4089398675084652  0.9825475523188344  0.13715446709750276  1.0000
  O   O5        1.0  0.14467963505776277  0.5867841848522275  0.45984116081756105  1.0000
  O   O6        1.0  0.8553236545844811  0.41321830546095123  0.5401581707260732  1.0000
  O   O7        1.0  0.2214101593711887  0.763380678354558  0.3912016164534792  1.0000
  O   O8        1.0  0.7785907505237899  0.23662004029257847  0.6087958132073937  1.0000
  O   O9        1.0  0.03444002284167169  0.024516818942608203  0.8717024554434474  1.0000
  O   O10       1.0  0.9655594374673343  0.9754847860897512  0.12829768803660357  1.0000
  O   O11       1.0  0.857997995448187  0.19666592412752237  0.8709848575976125  1.0000
  O   O12       1.0  0.14199921724451053  0.8033330227336679  0.1290117601487921  1.0000
  O   O13       1.0  0.6495412342330695  0.22636126154893085  0.3810284417084659  1.0000
  O   O14       1.0  0.3504604091101766  0.7736350119001117  0.618967541638213  1.0000
  O   O15       1.0  0.5247005658653379  0.40996652171934045  0.4091443137743481  1.0000
  O   O16       1.0  0.47530747328445944  0.5900315126671173  0.5908561403729636  1.0000
