data_image0
_chemical_formula_structural       Zn8H48C72N8O34
_chemical_formula_sum              "Zn8 H48 C72 N8 O34"
_cell_length_a       18.398990581631345
_cell_length_b       18.39915096206561
_cell_length_c       25.007176777213402
_cell_angle_alpha    111.6151174530878
_cell_angle_beta     111.61344855165284
_cell_angle_gamma    89.8955931784599

_space_group_name_H-M_alt    "P 1"
_space_group_IT_number       1

loop_
  _space_group_symop_operation_xyz
  'x, y, z'

loop_
  _atom_site_type_symbol
  _atom_site_label
  _atom_site_symmetry_multiplicity
  _atom_site_fract_x
  _atom_site_fract_y
  _atom_site_fract_z
  _atom_site_occupancy
  Zn  Zn1       1.0  0.18990156757849516  0.7764142393499043  0.5533746849674158  1.0000
  Zn  Zn2       1.0  0.8101006591249417  0.2235859320635712  0.44662649743861493  1.0000
  Zn  Zn3       1.0  0.7768746665961218  0.36354165755915346  0.5533457616926895  1.0000
  Zn  Zn4       1.0  0.22312624934846081  0.6364599583357844  0.4466558861818157  1.0000
  Zn  Zn5       1.0  0.3635400138896119  0.7768751268870134  0.5533399793011357  1.0000
  Zn  Zn6       1.0  0.6364627417649019  0.22312864388592146  0.44666233109605  1.0000
  Zn  Zn7       1.0  0.7764171054706497  0.1899067359303714  0.5533810686154511  1.0000
  Zn  Zn8       1.0  0.22358639683977108  0.8100950982299936  0.44662080286232003  1.0000
  H   H1        1.0  0.256338403156235  0.8666917400405578  0.7459102456964714  1.0000
  H   H2        1.0  0.7436599442292575  0.1333040070483875  0.25409237842034577  1.0000
  H   H3        1.0  0.879311203771401  0.48961179697162993  0.7458739724095124  1.0000
  H   H4        1.0  0.12068442629128383  0.5103908317293387  0.2541288964961481  1.0000
  H   H5        1.0  0.489604911618116  0.8793071708773681  0.7458645535214997  1.0000
  H   H6        1.0  0.510391908050849  0.1206930528993837  0.25413535328279835  1.0000
  H   H7        1.0  0.8666933569746077  0.2563505327061789  0.7459128929476149  1.0000
  H   H8        1.0  0.13330919077947812  0.7436507137185728  0.2540880193351498  1.0000
  H   H9        1.0  0.02569309050436188  0.9290640065781731  0.5712356746537496  1.0000
  H   H10       1.0  0.9743078518425888  0.0709345960744301  0.4287654035015365  1.0000
  H   H11       1.0  0.9291064108454706  0.5457329300945305  0.5712931087314884  1.0000
  H   H12       1.0  0.07089630196256295  0.4542660755585998  0.42870856082293335  1.0000
  H   H13       1.0  0.5454934915116497  0.6421572628425382  0.5712261014624218  1.0000
  H   H14       1.0  0.45450751118077914  0.35784591695782114  0.4287744478936234  1.0000
  H   H15       1.0  0.6421578368554393  0.025638984268709874  0.571262086490833  1.0000
  H   H16       1.0  0.3578503959834196  0.9743612509684854  0.42873800568384723  1.0000
  H   H17       1.0  0.45427113973825334  0.07089258601290276  0.42871031570832935  1.0000
  H   H18       1.0  0.5457345936364959  0.9291062635800316  0.5712896390884126  1.0000
  H   H19       1.0  0.35784247442192213  0.4545104609790513  0.4287732502943555  1.0000
  H   H20       1.0  0.6421551004985702  0.5454904634833612  0.5712244480257382  1.0000
  H   H21       1.0  0.9743635785679603  0.3578488439795676  0.4287377001100551  1.0000
  H   H22       1.0  0.02563657396886751  0.6421523927343031  0.5712608066343137  1.0000
  H   H23       1.0  0.07093937196103192  0.9743049987804968  0.42876398297687507  1.0000
  H   H24       1.0  0.9290613273336207  0.02569418675227551  0.5712368516042119  1.0000
  H   H25       1.0  0.28817773763137233  0.821831890039242  0.8747235865400926  1.0000
  H   H26       1.0  0.21085640492489  0.838986446233747  0.8128262237801991  1.0000
  H   H27       1.0  0.22280609081407482  0.8906773902154868  0.8926702952003609  1.0000
  H   H28       1.0  0.7891445979214141  0.16101400228236434  0.1871755103196335  1.0000
  H   H29       1.0  0.7118235091682621  0.17816274054675316  0.12527482618616395  1.0000
  H   H30       1.0  0.77719615369611  0.10931713065743054  0.10733208705123326  1.0000
  H   H31       1.0  0.9738367259655833  0.6020933098013543  0.8128530173265389  1.0000
  H   H32       1.0  0.05276871437936856  0.5865952441851618  0.8747628037159599  1.0000
  H   H33       1.0  0.0018652457255896823  0.6699080922146975  0.8926873389994866  1.0000
  H   H34       1.0  0.9472296239488784  0.4134060594583175  0.1252380357342844  1.0000
  H   H35       1.0  0.026156422131990105  0.39790774528331235  0.18714854455917868  1.0000
  H   H36       1.0  0.9981291087301116  0.33009287373938173  0.10731484083443373  1.0000
  H   H37       1.0  0.5865728935114376  0.052767047497411575  0.8747725204980696  1.0000
  H   H38       1.0  0.6020839231503248  0.9738581123810875  0.8128543042754188  1.0000
  H   H39       1.0  0.6699003015688875  0.0018771187890038743  0.8926890557911236  1.0000
  H   H40       1.0  0.3979120278091415  0.02614832261541981  0.18714710976319543  1.0000
  H   H41       1.0  0.41342070553886145  0.947235949055262  0.12523068307626767  1.0000
  H   H42       1.0  0.3300972637010844  0.998129134709366  0.10731279229775478  1.0000
  H   H43       1.0  0.8390047475574038  0.2108507194921927  0.8128231357138773  1.0000
  H   H44       1.0  0.8218234287258073  0.28816118652764533  0.8747137527031655  1.0000
  H   H45       1.0  0.8906842015938069  0.22280675660314841  0.8926682581181566  1.0000
  H   H46       1.0  0.1781833532083184  0.7118447282516768  0.12529497733225267  1.0000
  H   H47       1.0  0.16098885133902033  0.7891550083447356  0.18717888311667252  1.0000
  H   H48       1.0  0.10931660210157196  0.7771910735787487  0.10733149304625304  1.0000
  C   C1        1.0  0.32012066507360976  0.8815738777187434  0.7721689019386487  1.0000
  C   C2        1.0  0.6798792789695085  0.11842460712837526  0.22783414112664954  1.0000
  C   C3        1.0  0.5797871548279901  0.5263184658937732  0.5402892235142929  1.0000
  C   C4        1.0  0.9860598594607097  0.4202277847331787  0.45968279727924977  1.0000
  C   C5        1.0  0.013936882803186432  0.5797710086706901  0.5403116887871633  1.0000
  C   C6        1.0  0.039501325215304875  0.9860284713236993  0.45970510215729377  1.0000
  C   C7        1.0  0.9604968227115125  0.01397011999954144  0.5402931695365254  1.0000
  C   C8        1.0  0.9462648837129564  0.05373358105557463  0.5000020146301835  1.0000
  C   C9        1.0  0.05373639733752374  0.9462631773520092  0.49999880850362644  1.0000
  C   C10       1.0  0.05366892605785279  0.5536006393055146  0.49998424596536484  1.0000
  C   C11       1.0  0.9463243620317313  0.44639891200273507  0.5000079587843161  1.0000
  C   C12       1.0  0.5537126842956397  0.4462888579314779  0.5000007606822336  1.0000
  C   C13       1.0  0.8907100540180225  0.45210336555698666  0.7721464145413535  1.0000
  C   C14       1.0  0.4462884491998905  0.5537099532756784  0.4999981355379076  1.0000
  C   C15       1.0  0.4463938801432121  0.9463284339916809  0.5000038931600556  1.0000
  C   C16       1.0  0.5536105608727128  0.05366643706072689  0.49999179251538106  1.0000
  C   C17       1.0  0.1092882405627194  0.5478984080166142  0.22785734901389523  1.0000
  C   C18       1.0  0.43544935638029625  0.9353862899886849  0.8708078199436642  1.0000
  C   C19       1.0  0.5645505182601056  0.0646131742652116  0.12919396725429522  1.0000
  C   C20       1.0  0.9353875113656188  0.4354533551249204  0.8708089052046049  1.0000
  C   C21       1.0  0.06461365653463255  0.5645448526195623  0.12919358616688473  1.0000
  C   C22       1.0  0.25403341404638297  0.8662892451528919  0.8617287194238656  1.0000
  C   C23       1.0  0.4520993234579438  0.8907033714412621  0.7721403247684081  1.0000
  C   C24       1.0  0.7459648375340109  0.13371049458515927  0.13827321854483898  1.0000
  C   C25       1.0  0.9953387219718624  0.6077661731552837  0.8617482500261389  1.0000
  C   C26       1.0  0.0046551551287379095  0.39223586457311654  0.13825285783838837  1.0000
  C   C27       1.0  0.6077509489598044  0.9953447236151549  0.8617480612821707  1.0000
  C   C28       1.0  0.39224517580311163  0.004659376623699493  0.138253525207098  1.0000
  C   C29       1.0  0.8662912326325839  0.2540327020852189  0.8617253997846106  1.0000
  C   C30       1.0  0.13370982196357056  0.7459696862804178  0.13827757508077096  1.0000
  C   C31       1.0  0.5479002476308069  0.10929482982930243  0.22786056291081278  1.0000
  C   C32       1.0  0.881573100303264  0.3201251824639684  0.7721702667220923  1.0000
  C   C33       1.0  0.11842751208966719  0.6798751704476302  0.22783048163366704  1.0000
  C   C34       1.0  0.35291648111231694  0.9138900400652119  0.8374695713804101  1.0000
  C   C35       1.0  0.6470826215247031  0.08610640770939429  0.16253084425219544  1.0000
  C   C36       1.0  0.9235454367168219  0.48461113126419514  0.8374460402936849  1.0000
  C   C37       1.0  0.0764525543122687  0.5153893793260806  0.16255682374282537  1.0000
  C   C38       1.0  0.48460324767503954  0.9235388018219622  0.8374409201034964  1.0000
  C   C39       1.0  0.5153948565042796  0.07646025943141409  0.1625602756953342  1.0000
  C   C40       1.0  0.9138918482759878  0.3529222402977652  0.8374712204281849  1.0000
  C   C41       1.0  0.08610910282046554  0.6470762683688137  0.16252927290609884  1.0000
  C   C42       1.0  0.3699323303503662  0.8699745326013684  0.7398035139223822  1.0000
  C   C43       1.0  0.630064211422166  0.1300239187154162  0.26019967333552063  1.0000
  C   C44       1.0  0.8699773801364544  0.3699401449399176  0.7398068092353611  1.0000
  C   C45       1.0  0.13002233819949544  0.6300614660995761  0.26019363586994604  1.0000
  C   C46       1.0  0.5300390113134767  0.03010487320860018  0.06016095060149236  1.0000
  C   C47       1.0  0.4699627294392317  0.9698937326809656  0.939840929399928  1.0000
  C   C48       1.0  0.030105587010467602  0.5300334778649402  0.060159270781248615  1.0000
  C   C49       1.0  0.9698951904364108  0.46996463427503693  0.939842234846175  1.0000
  C   C50       1.0  0.16502849990721566  0.6650546266787104  0.33018088647956023  1.0000
  C   C51       1.0  0.8349721388880911  0.33494271299056066  0.669819292156987  1.0000
  C   C52       1.0  0.6650591579021495  0.16503038378676385  0.3301899169703758  1.0000
  C   C53       1.0  0.33494453571071864  0.8349689276438994  0.669810957316038  1.0000
  C   C54       1.0  0.11111694545056139  0.6109336894586336  0.5000116221401923  1.0000
  C   C55       1.0  0.8888822279296137  0.38905950266207867  0.49997936523283215  1.0000
  C   C56       1.0  0.6111646230201658  0.388812181751554  0.4999940412191464  1.0000
  C   C57       1.0  0.3888332468563505  0.61118736839596  0.5000063261844828  1.0000
  C   C58       1.0  0.38907785613182017  0.8888791192900598  0.4999908648378267  1.0000
  C   C59       1.0  0.610935592746806  0.11111812374505088  0.5000138696175044  1.0000
  C   C60       1.0  0.8887849110506353  0.11121859509917437  0.5000007667632858  1.0000
  C   C61       1.0  0.11121787100625385  0.8887821624314257  0.5000009739146806  1.0000
  C   C62       1.0  0.013969036769666047  0.9604972666199459  0.5402936913154335  1.0000
  C   C63       1.0  0.9860328521312737  0.03949951398861638  0.4597041811642982  1.0000
  C   C64       1.0  0.9605403496850047  0.5264314693395706  0.5403374832424676  1.0000
  C   C65       1.0  0.03945151539652164  0.4735657407371007  0.4596532902655923  1.0000
  C   C66       1.0  0.5263267669475981  0.5797925949526573  0.5402947928853195  1.0000
  C   C67       1.0  0.4736739321931865  0.4202093218643697  0.459704856951987  1.0000
  C   C68       1.0  0.5797705706121121  0.013938957644889184  0.5403088406788683  1.0000
  C   C69       1.0  0.42023594441653966  0.986057579391371  0.45968833591444275  1.0000
  C   C70       1.0  0.47356609686617196  0.03945343030822812  0.4596533493151186  1.0000
  C   C71       1.0  0.5264396285062319  0.9605430095050452  0.5403424406110559  1.0000
  C   C72       1.0  0.4202129284599892  0.4736810189426137  0.45970921210652455  1.0000
  N   N1        1.0  0.5186836528632669  0.03993939033357917  0.9690250715209743  1.0000
  N   N2        1.0  0.48131874764361987  0.9600584463222431  0.030976283335711167  1.0000
  N   N3        1.0  0.929076128422146  0.4503912877769737  0.9690567139838392  1.0000
  N   N4        1.0  0.07092554308170661  0.5496055662351155  0.03094509489403661  1.0000
  N   N5        1.0  0.45037536938247785  0.9290879991378276  0.969057259088288  1.0000
  N   N6        1.0  0.5496270223749065  0.07090993150401911  0.030944680589392707  1.0000
  N   N7        1.0  0.03995405846922769  0.5186656040394766  0.9690251728050612  1.0000
  N   N8        1.0  0.9600468146288748  0.48133124673564964  0.030975834226687524  1.0000
  O   O1        1.0  0.25004585065381246  0.7499519602906729  0.49999699429094585  1.0000
  O   O2        1.0  0.8228227243759039  0.38325069181851035  0.6427137444456507  1.0000
  O   O3        1.0  0.616755088646052  0.17717814175587415  0.3572948135435965  1.0000
  O   O4        1.0  0.383237295296617  0.822825037913411  0.6427083569035474  1.0000
  O   O5        1.0  0.18000976634729685  0.7404671740891189  0.35725758022818604  1.0000
  O   O6        1.0  0.8199897342838299  0.2595399729224042  0.6427444317876904  1.0000
  O   O7        1.0  0.740470827990798  0.18001220238512863  0.3572625041044404  1.0000
  O   O8        1.0  0.25952299735995166  0.8199878954937391  0.6427373629945379  1.0000
  O   O9        1.0  0.1771793626210609  0.6167566734584469  0.3572884911734917  1.0000
  O   O10       1.0  0.7499563847991199  0.25004811713677094  0.5000036032940754  1.0000
  O   O11       1.0  0.1446650402419041  0.5833842793376721  0.46173955549204493  1.0000
  O   O12       1.0  0.8553360757546218  0.41661471984153303  0.5382605103701081  1.0000
  O   O13       1.0  0.5837334238078569  0.31702351523083655  0.46177030754969917  1.0000
  O   O14       1.0  0.41626126935137364  0.682975606478216  0.5382316172627383  1.0000
  O   O15       1.0  0.3172720501877889  0.8780489055072849  0.4616881006815702  1.0000
  O   O16       1.0  0.6827321127778277  0.12194692436939646  0.5383096807036837  1.0000
  O   O17       1.0  0.8779859239810294  0.14481748231446548  0.4617694800068363  1.0000
  O   O18       1.0  0.12201947869254337  0.855185621303157  0.5382348946819492  1.0000
  O   O19       1.0  0.68298208997156  0.4162631399165022  0.5382374129887352  1.0000
  O   O20       1.0  0.31701886097102533  0.5837381000343244  0.46176189560176084  1.0000
  O   O21       1.0  0.12194478393819703  0.6827218429715031  0.5383026237707255  1.0000
  O   O22       1.0  0.8780556029014264  0.31727890484822296  0.46169671136883744  1.0000
  O   O23       1.0  0.8551849063233306  0.12201952714535474  0.5382382715077583  1.0000
  O   O24       1.0  0.14481539376844688  0.8779796567689361  0.461762162150265  1.0000
  O   O25       1.0  0.41661551415737835  0.85533929372599  0.5382552177047515  1.0000
  O   O26       1.0  0.5833910781224746  0.14466140496740823  0.46174619488267155  1.0000
  O   O27       1.0  0.3069108796854323  0.9317747309416902  0.8717709130203771  1.0000
  O   O28       1.0  0.693089793514595  0.06822200526491433  0.12823286076750412  1.0000
  O   O29       1.0  0.9398305840525298  0.564907030636405  0.8717071651707684  1.0000
  O   O30       1.0  0.060167580780010665  0.4350911451962176  0.1282958713163893  1.0000
  O   O31       1.0  0.5649018372660352  0.9398144931093885  0.8716934526104438  1.0000
  O   O32       1.0  0.43509847157523757  0.06018459681887832  0.12830639622657714  1.0000
  O   O33       1.0  0.9317723063106417  0.3069233232143204  0.8717756394418218  1.0000
  O   O34       1.0  0.06822827183143695  0.6930749018756972  0.12822269850638432  1.0000
