data_image0
_chemical_formula_structural       Cu4H36C44S4N12O16
_chemical_formula_sum              "Cu4 H36 C44 S4 N12 O16"
_cell_length_a       6.734015492576354
_cell_length_b       11.99175116020841
_cell_length_c       15.218184505181483
_cell_angle_alpha    90.72408691377777
_cell_angle_beta     90.00184968058272
_cell_angle_gamma    89.99824264071634

_space_group_name_H-M_alt    "P 1"
_space_group_IT_number       1

loop_
  _space_group_symop_operation_xyz
  'x, y, z'

loop_
  _atom_site_type_symbol
  _atom_site_label
  _atom_site_symmetry_multiplicity
  _atom_site_fract_x
  _atom_site_fract_y
  _atom_site_fract_z
  _atom_site_occupancy
  Cu  Cu1       1.0  0.8086081460071668  0.4915177899595308  0.7516827194520346  1.0000
  Cu  Cu2       1.0  0.3086012761036797  0.5084874520472128  0.7483001899214373  1.0000
  Cu  Cu3       1.0  0.1913937908960861  0.508480929368325  0.24831688259101276  1.0000
  Cu  Cu4       1.0  0.691393235646764  0.4915154462940095  0.2516981575072421  1.0000
  H   H1        1.0  0.31135157944689235  0.014601587353070003  0.7835688403465471  1.0000
  H   H2        1.0  0.8113419412647218  0.9854059639577671  0.7164351678237042  1.0000
  H   H3        1.0  0.6886414476778384  0.9853921145645972  0.21643266134423567  1.0000
  H   H4        1.0  0.1886525708307758  0.014586913134479604  0.2835650078623289  1.0000
  H   H5        1.0  0.4261415751253494  0.8638266892305925  0.88258952587087  1.0000
  H   H6        1.0  0.9261192820889831  0.13617811185422826  0.6174134064896606  1.0000
  H   H7        1.0  0.5738603620553775  0.1361645107301328  0.11741194015507973  1.0000
  H   H8        1.0  0.0738767150462181  0.8638205663589887  0.3825921089914956  1.0000
  H   H9        1.0  0.7463483116027019  0.8823618522980329  0.9635269127425377  1.0000
  H   H10       1.0  0.24631729312580566  0.11764347720922075  0.5364735335482608  1.0000
  H   H11       1.0  0.2536551103139786  0.11763354489639968  0.0364706705170477  1.0000
  H   H12       1.0  0.7536861286499101  0.8823635634168742  0.46352881580276073  1.0000
  H   H13       1.0  0.949454455982611  0.05712604124711621  0.9510320757580004  1.0000
  H   H14       1.0  0.44944870571185896  0.9428824954220477  0.5489771474524119  1.0000
  H   H15       1.0  0.050535601042902605  0.9428751480457224  0.04897216130187591  1.0000
  H   H16       1.0  0.5505576860350843  0.0571245497528849  0.45102454486566773  1.0000
  H   H17       1.0  0.7053186376362106  0.38943231674236506  0.5860156235526548  1.0000
  H   H18       1.0  0.2053245840278279  0.6105437728612416  0.9139706940533971  1.0000
  H   H19       1.0  0.2947026039334162  0.6105631397620002  0.4139734181370614  1.0000
  H   H20       1.0  0.7946743824748382  0.3894616593412721  0.0860230897589389  1.0000
  H   H21       1.0  0.4207476757688156  0.4099471275629087  0.5802703003591746  1.0000
  H   H22       1.0  0.9207662491037708  0.5900696224889757  0.9197064433620598  1.0000
  H   H23       1.0  0.5792646563144288  0.5900581947544696  0.4197392528204702  1.0000
  H   H24       1.0  0.0792223231786267  0.40992488140987143  0.0802996695791123  1.0000
  H   H25       1.0  0.8769954224892231  0.2972957301043239  0.4562614299046929  1.0000
  H   H26       1.0  0.3770173609694965  0.7026818457983451  0.04373094550754081  1.0000
  H   H27       1.0  0.12304215343424828  0.7027164374917233  0.5437232506943843  1.0000
  H   H28       1.0  0.622969725508341  0.2973269131990435  0.9562641999642596  1.0000
  H   H29       1.0  0.2559331355117678  0.30792895657608454  0.4519760386469685  1.0000
  H   H30       1.0  0.7559581374091024  0.6920581790483666  0.04801282292455511  1.0000
  H   H31       1.0  0.7440910760045015  0.6920839353207028  0.5480244230457886  1.0000
  H   H32       1.0  0.24402300942390545  0.30794138813686095  0.9519848197258156  1.0000
  H   H33       1.0  0.0626501774641568  0.40891619004129626  0.8389087324261839  1.0000
  H   H34       1.0  0.5626343296643839  0.5910773292889788  0.6610738838900121  1.0000
  H   H35       1.0  0.937354729547863  0.5910783594584359  0.16109081009452814  1.0000
  H   H36       1.0  0.4373750321189717  0.4089263891661545  0.3389264467078946  1.0000
  C   C1        1.0  0.8406379738777758  0.241217698679293  0.8419065393866276  1.0000
  C   C2        1.0  0.34064317589245263  0.7587785311479254  0.6580957420396345  1.0000
  C   C3        1.0  0.15935802336766608  0.7587759803440689  0.1580982475902744  1.0000
  C   C4        1.0  0.6593632161022712  0.24121934046020507  0.34190581928479  1.0000
  C   C5        1.0  0.7470318627362147  0.12979018037565737  0.8589329026406959  1.0000
  C   C6        1.0  0.24704746034091574  0.8702192521350511  0.6410754974641151  1.0000
  C   C7        1.0  0.25295373951693984  0.8702101384032732  0.1410765789057251  1.0000
  C   C8        1.0  0.752964871535852  0.1297836186128762  0.3589267924050503  1.0000
  C   C9        1.0  0.57076564122319  0.11604807468310704  0.8116371398125466  1.0000
  C   C10       1.0  0.0707721701666983  0.883959343221818  0.6883661583496874  1.0000
  C   C11       1.0  0.42923184097526956  0.8839472722489816  0.18836767099150362  1.0000
  C   C12       1.0  0.9292282815866029  0.1160385741749081  0.3116288324024979  1.0000
  C   C13       1.0  0.45092173774926897  0.0224970866192109  0.8192812887241986  1.0000
  C   C14       1.0  0.950915780153288  0.9775105913615578  0.6807279425729079  1.0000
  C   C15       1.0  0.5490742594463427  0.9774966015518699  0.1807221841463473  1.0000
  C   C16       1.0  0.0490831868985353  0.02248644177467441  0.3192742638455783  1.0000
  C   C17       1.0  0.5172290284879111  0.9383235447155447  0.8752783007843803  1.0000
  C   C18       1.0  0.0172226025864433  0.061687176860232305  0.624738758569535  1.0000
  C   C19       1.0  0.48276845368324933  0.0616709774036366  0.12472518400480231  1.0000
  C   C20       1.0  0.9827823046914405  0.9383131326083073  0.37527203721477786  1.0000
  C   C21       1.0  0.6960539302430178  0.9496596997708198  0.9215744185992351  1.0000
  C   C22       1.0  0.19604463550819418  0.050353061995217316  0.5784379216888454  1.0000
  C   C23       1.0  0.30394503678149937  0.050336508552497605  0.07842646180439063  1.0000
  C   C24       1.0  0.8039573013465855  0.9496547943086003  0.4215670677732747  1.0000
  C   C25       1.0  0.8114718201283466  0.046178293754181324  0.9146682193040265  1.0000
  C   C26       1.0  0.311463755390804  0.9538284032608291  0.5853384068198224  1.0000
  C   C27       1.0  0.1885226919316523  0.9538195688063525  0.0853346560458021  1.0000
  C   C28       1.0  0.6885396663801372  0.04617697859174541  0.4146626046078198  1.0000
  C   C29       1.0  0.8653283451719389  0.39000576729780795  0.5779686490419635  1.0000
  C   C30       1.0  0.3653408699548919  0.6099834889982675  0.9220174473255867  1.0000
  C   C31       1.0  0.1346884413027851  0.6099980059810123  0.4220237969684248  1.0000
  C   C32       1.0  0.6346536417610835  0.3900160963697488  0.0779775672031491  1.0000
  C   C33       1.0  0.9625231653365203  0.33932397853764235  0.507204668575369  1.0000
  C   C34       1.0  0.46253229706502447  0.6606677957497028  0.992784783075763  1.0000
  C   C35       1.0  0.0374995609502804  0.6606864663760562  0.49278787274361247  1.0000
  C   C36       1.0  0.537453304602117  0.3393367797355467  0.0072122740028675  1.0000
  C   C37       1.0  0.2609426221840323  0.4005509824098468  0.57456462680247  1.0000
  C   C38       1.0  0.7609611090944667  0.5994475433695216  0.9254194971244519  1.0000
  C   C39       1.0  0.739069709605019  0.599456053567316  0.4254383796624381  1.0000
  C   C40       1.0  0.23903043279499053  0.40055035123301513  0.07457877883290112  1.0000
  C   C41       1.0  0.16764651988953008  0.3449194832009043  0.5048201199490523  1.0000
  C   C42       1.0  0.6676612643871208  0.6550680873152858  0.9951651820658258  1.0000
  C   C43       1.0  0.8323732367178565  0.6550884141174295  0.49517895615591107  1.0000
  C   C44       1.0  0.33232730731405274  0.34493233206340795  0.0048298443309491  1.0000
  S   S1        1.0  0.540673793652971  0.2371282848674384  0.7466703369985839  1.0000
  S   S2        1.0  0.0406904106969606  0.7628755389243764  0.7533226357900775  1.0000
  S   S3        1.0  0.4593177483859775  0.7628695822919769  0.25333188127782347  1.0000
  S   S4        1.0  0.9592981609045523  0.23712489874973391  0.24666976239399224  1.0000
  N   N1        1.0  0.7391864031520541  0.3016903275285543  0.7819582937278825  1.0000
  N   N2        1.0  0.23918461010475772  0.6983051743717257  0.7180333705636315  1.0000
  N   N3        1.0  0.2608155339160377  0.6983050422352692  0.21804323184063892  1.0000
  N   N4        1.0  0.7607920816152715  0.30168777605236136  0.28195629215014856  1.0000
  N   N5        1.0  0.9637297827586621  0.4420619079959566  0.6427679185763326  1.0000
  N   N6        1.0  0.4637432562831521  0.5579323752434816  0.8572176429550711  1.0000
  N   N7        1.0  0.0362706690540264  0.55793931780012  0.3572310621289674  1.0000
  N   N8        1.0  0.5362616506363764  0.4420646807119583  0.14278127823801162  1.0000
  N   N9        1.0  0.15987935540246667  0.4466719968248896  0.6412918308644182  1.0000
  N   N10       1.0  0.6598938635604198  0.5533299048006414  0.8586902824741145  1.0000
  N   N11       1.0  0.8401210963498045  0.5533342190133298  0.35870919245149224  1.0000
  N   N12       1.0  0.3401080734056309  0.44666465387182813  0.14130794592001192  1.0000
  O   O1        1.0  0.9910733130222624  0.27570210484876884  0.8824559732814948  1.0000
  O   O2        1.0  0.4910729005571  0.7242866269936459  0.6175423733616299  1.0000
  O   O3        1.0  0.008936049107177298  0.7242832939158957  0.11754015301004023  1.0000
  O   O4        1.0  0.5089394316718838  0.2757087106655974  0.38246375164995783  1.0000
  O   O5        1.0  0.3623145133223034  0.2969149963458549  0.7739672419740629  1.0000
  O   O6        1.0  0.8623345191845642  0.703092648668097  0.7260203894645942  1.0000
  O   O7        1.0  0.6376725741422291  0.703072835880562  0.22603877568887046  1.0000
  O   O8        1.0  0.1376510823532229  0.2969102909128978  0.2739720444247808  1.0000
  O   O9        1.0  0.06287732325563411  0.4858153349719104  0.8147780628125718  1.0000
  O   O10       1.0  0.5628645634421687  0.5141831293814931  0.6852125127094908  1.0000
  O   O11       1.0  0.9371260987630877  0.5141808733138689  0.18522281762140846  1.0000
  O   O12       1.0  0.43713143346538885  0.48582305905114265  0.3147924528951266  1.0000
  O   O13       1.0  0.5562560427611913  0.21100748517535106  0.6532291052750383  1.0000
  O   O14       1.0  0.0562753010738177  0.7889960759714045  0.8467640798918981  1.0000
  O   O15       1.0  0.44374292415547256  0.7889945517245851  0.3467731725945385  1.0000
  O   O16       1.0  0.9437028754961573  0.21100602971154103  0.15322834203836783  1.0000
