data_image0
_chemical_formula_structural       Zn4H24C84N24Cl2O56
_chemical_formula_sum              "Zn4 H24 C84 N24 Cl2 O56"
_cell_length_a       16.583964605541908
_cell_length_b       17.89256392387761
_cell_length_c       28.8471264256098
_cell_angle_alpha    90.8097180370023
_cell_angle_beta     89.90651070691702
_cell_angle_gamma    90.02189170328275

_space_group_name_H-M_alt    "P 1"
_space_group_IT_number       1

loop_
  _space_group_symop_operation_xyz
  'x, y, z'

loop_
  _atom_site_type_symbol
  _atom_site_label
  _atom_site_symmetry_multiplicity
  _atom_site_fract_x
  _atom_site_fract_y
  _atom_site_fract_z
  _atom_site_occupancy
  Zn  Zn1       1.0  0.5823555408850821  0.5009741367388117  0.4989528314601656  1.0000
  Zn  Zn2       1.0  0.41466495041458984  0.4989648432929242  0.5016151632002206  1.0000
  Zn  Zn3       1.0  0.41604270278331507  0.5017361728384059  0.8794796438265988  1.0000
  Zn  Zn4       1.0  0.5840768662936852  0.5044424595649843  0.8810758269916048  1.0000
  H   H1        1.0  0.28504950441786286  0.5950053569571024  0.5434276851167681  1.0000
  H   H2        1.0  0.2840652559772607  0.397294092950581  0.4655140880126538  1.0000
  H   H3        1.0  0.710815570434555  0.5520051268668168  0.5645106112701582  1.0000
  H   H4        1.0  0.7142114563519896  0.4524208797544062  0.4332802052918367  1.0000
  H   H5        1.0  0.6166892297819897  0.7341471341465888  0.4732340964635284  1.0000
  H   H6        1.0  0.3707319091079029  0.7415166948462257  0.5216020824229659  1.0000
  H   H7        1.0  0.6232643970201225  0.26582031383301086  0.5312176601681884  1.0000
  H   H8        1.0  0.37696893317929187  0.25706143074796717  0.4839017106008895  1.0000
  H   H9        1.0  0.5802556613134655  0.3964153526654072  0.7762578508984603  1.0000
  H   H10       1.0  0.6379765724284283  0.2896851963512645  0.732768764267334  1.0000
  H   H11       1.0  0.5791389351713291  0.3932973836591529  0.6032901832404818  1.0000
  H   H12       1.0  0.6380082054612828  0.2881487366141399  0.6462337850661939  1.0000
  H   H13       1.0  0.3740548231273735  0.4751976416174414  0.028741792792644095  1.0000
  H   H14       1.0  0.6305417298584574  0.5152311449197526  0.0276560351001152  1.0000
  H   H15       1.0  0.37843607790441774  0.5310537710578559  0.35397358822277875  1.0000
  H   H16       1.0  0.6249200730126319  0.4543238258443622  0.3513923413503193  1.0000
  H   H17       1.0  0.7128734338152185  0.5953843425844311  0.8354707097626104  1.0000
  H   H18       1.0  0.7158647716831156  0.41337070731800196  0.9239498219139222  1.0000
  H   H19       1.0  0.28897983883714323  0.5536770820406571  0.8134931044796829  1.0000
  H   H20       1.0  0.2830487203667573  0.4459389415124164  0.9405365496406404  1.0000
  H   H21       1.0  0.3655420943776591  0.74725774936293  0.895485019731268  1.0000
  H   H22       1.0  0.6212234544444613  0.7348501718068333  0.8693233030192216  1.0000
  H   H23       1.0  0.3735129288177744  0.2610417767702842  0.8575888489558281  1.0000
  H   H24       1.0  0.6301892100994453  0.26678592078631175  0.8809528635127677  1.0000
  C   C1        1.0  0.4902663369581647  0.6443631962408531  0.4951521754798662  1.0000
  C   C2        1.0  0.5073121111760557  0.5150768724638864  0.5894246194883549  1.0000
  C   C3        1.0  0.4969725163585678  0.35509805596385746  0.5065458475526015  1.0000
  C   C4        1.0  0.5010562652005177  0.4891847707384756  0.41064797223422284  1.0000
  C   C5        1.0  0.4916862084220596  0.648129993204165  0.8870609852014794  1.0000
  C   C6        1.0  0.5080479753434162  0.5190611263558509  0.7908521671657383  1.0000
  C   C7        1.0  0.4992736999923578  0.35742233393644085  0.8708197643061624  1.0000
  C   C8        1.0  0.5025174226335453  0.4910203529870217  0.9701819990031169  1.0000
  C   C9        1.0  0.2499267708392523  0.5514076312139052  0.5260856356019161  1.0000
  C   C10       1.0  0.16630274041828133  0.5536073174393225  0.5262358809192094  1.0000
  C   C11       1.0  0.1198519716444224  0.49692809574772656  0.5043896054291395  1.0000
  C   C12       1.0  0.1657717901195355  0.4393149907605007  0.4830391374406915  1.0000
  C   C13       1.0  0.24937092698744587  0.4412535953195302  0.48282951301083427  1.0000
  C   C14       1.0  0.03532432348388429  0.49791970831832094  0.5035657015266324  1.0000
  C   C15       1.0  0.9619250435883943  0.498636484364688  0.5018767214964015  1.0000
  C   C16       1.0  0.8774435650773923  0.4999522669328441  0.5006934106203005  1.0000
  C   C17       1.0  0.8302825255694942  0.52820140132075  0.5379160283774524  1.0000
  C   C18       1.0  0.7467773510838072  0.5296691984030204  0.5358148882953059  1.0000
  C   C19       1.0  0.7485730737737981  0.4741854687201937  0.46268751099498207  1.0000
  C   C20       1.0  0.8322028097055777  0.4732245902323128  0.4623551053320297  1.0000
  C   C21       1.0  0.49326316646078533  0.7280024475472046  0.4970055432601299  1.0000
  C   C22       1.0  0.5638557983440792  0.7654395619027665  0.4846523983176851  1.0000
  C   C23       1.0  0.5666734955883398  0.8428082640482656  0.48657842207727237  1.0000
  C   C24       1.0  0.5011110897080968  0.8872265608324452  0.5025386238084906  1.0000
  C   C25       1.0  0.4312924192971437  0.846551229377958  0.5155025091619052  1.0000
  C   C26       1.0  0.4265159039057096  0.7693326557144146  0.5120317156245164  1.0000
  C   C27       1.0  0.504836465667907  0.9654565210963209  0.5050454202576233  1.0000
  C   C28       1.0  0.5076753049522437  0.0335792113369564  0.5065934207268086  1.0000
  C   C29       1.0  0.5056759548953808  0.1118877839679513  0.5071529813743254  1.0000
  C   C30       1.0  0.5716978382738347  0.15694803591535586  0.5216847161689273  1.0000
  C   C31       1.0  0.5698733779251911  0.23441317842556228  0.5209468863852038  1.0000
  C   C32       1.0  0.4998310963759494  0.2714462951488557  0.5074348381353815  1.0000
  C   C33       1.0  0.43246889037017416  0.2294801163719739  0.4941169838230194  1.0000
  C   C34       1.0  0.43628040702953547  0.15214976755633808  0.4931030750465055  1.0000
  C   C35       1.0  0.5107644766911079  0.5201202990712801  0.7388657006894447  1.0000
  C   C36       1.0  0.5453467824842589  0.45767636691804364  0.7148596912877068  1.0000
  C   C37       1.0  0.47963181425352996  0.5799467494098349  0.7148883418201422  1.0000
  C   C38       1.0  0.5792159679553279  0.395961602501245  0.7384851281270954  1.0000
  C   C39       1.0  0.6118299916676121  0.3363643170922399  0.7141149831353033  1.0000
  C   C40       1.0  0.510618790695318  0.5180974848552822  0.6414236160327177  1.0000
  C   C41       1.0  0.4796138003576544  0.5789053532828916  0.6655468923804051  1.0000
  C   C42       1.0  0.5451609407513942  0.4566736255238267  0.6651837798789799  1.0000
  C   C43       1.0  0.5789448432192472  0.39422930182908544  0.6411065598408285  1.0000
  C   C44       1.0  0.6117753486226575  0.33549985617654693  0.6651014915667517  1.0000
  C   C45       1.0  0.5023453607540062  0.49417130444075497  0.0220821311003121  1.0000
  C   C46       1.0  0.43065599263974974  0.4850407836425106  0.0468051097518085  1.0000
  C   C47       1.0  0.4313742965718532  0.48748573769118736  0.0948351505555465  1.0000
  C   C48       1.0  0.5021221623853122  0.5029264181127927  0.12085117272155797  1.0000
  C   C49       1.0  0.5728119928573037  0.5145613793261319  0.09411610569446079  1.0000
  C   C50       1.0  0.5739504826243689  0.5081337694805299  0.0462059866182614  1.0000
  C   C51       1.0  0.5024814126563014  0.5052995949583375  0.1694438318528739  1.0000
  C   C52       1.0  0.5033549742856563  0.5046849096111428  0.2116731413067967  1.0000
  C   C53       1.0  0.5031290862858101  0.5013567449337015  0.2601796016820401  1.0000
  C   C54       1.0  0.4350132547400349  0.522120413367652  0.2872498748064061  1.0000
  C   C55       1.0  0.4330231053384209  0.5160399402554603  0.3350561085828332  1.0000
  C   C56       1.0  0.5014733098674496  0.49201560312477705  0.3587924843920263  1.0000
  C   C57       1.0  0.570705547495102  0.4726956053516672  0.3337183869910092  1.0000
  C   C58       1.0  0.5705247253409241  0.47599595489322855  0.28575301168319805  1.0000
  C   C59       1.0  0.7483940047766067  0.5552897679043127  0.8548870813566294  1.0000
  C   C60       1.0  0.831993700065631  0.5566366333035333  0.8533425367895262  1.0000
  C   C61       1.0  0.8788026383562483  0.5025853946325398  0.8764015914373074  1.0000
  C   C62       1.0  0.833422580227115  0.4494105348778133  0.9012425476240509  1.0000
  C   C63       1.0  0.749962830831258  0.4531571002532927  0.9034242573000097  1.0000
  C   C64       1.0  0.963355485434178  0.5019635251219156  0.8749812417514917  1.0000
  C   C65       1.0  0.0367703498049536  0.5018293100327682  0.8745526930787548  1.0000
  C   C66       1.0  0.12133586833725472  0.5011184649321477  0.8752561445835597  1.0000
  C   C67       1.0  0.16910891880883133  0.5300644701836388  0.8390196143678921  1.0000
  C   C68       1.0  0.2526989347551519  0.5299921678913009  0.8412430793903595  1.0000
  C   C69       1.0  0.2494228617664405  0.4703159668884281  0.9120547655003222  1.0000
  C   C70       1.0  0.1658058453179407  0.47134095506827123  0.9125078161521002  1.0000
  C   C71       1.0  0.49333651300759124  0.7314901326619035  0.8834117408361662  1.0000
  C   C72       1.0  0.42324117930874644  0.7740540798321971  0.8887669243797801  1.0000
  C   C73       1.0  0.42753374559920587  0.8513129787436425  0.8862912098200368  1.0000
  C   C74       1.0  0.4997792705653765  0.8899769634988529  0.8755517599820237  1.0000
  C   C75       1.0  0.5683473907882899  0.8439283840667571  0.8683225923284325  1.0000
  C   C76       1.0  0.5661559291582564  0.7671847888999321  0.8735870886909253  1.0000
  C   C77       1.0  0.5031277660565152  0.968101297710575  0.8726660902196173  1.0000
  C   C78       1.0  0.5058695572097137  0.0360451311976604  0.8710121213361575  1.0000
  C   C79       1.0  0.505350733353076  0.11435019385693578  0.8697483054357134  1.0000
  C   C80       1.0  0.4336969820120374  0.15526332539992888  0.8612585042027234  1.0000
  C   C81       1.0  0.4308195615620818  0.23263362402111193  0.8623904976148538  1.0000
  C   C82       1.0  0.5016226063982643  0.27371789831251897  0.8692997437655166  1.0000
  C   C83       1.0  0.5742636753766417  0.23592473410307233  0.8759586798832969  1.0000
  C   C84       1.0  0.5752105858918741  0.15851527669702387  0.8774379325712971  1.0000
  N   N1        1.0  0.2904712659271738  0.4964836165260634  0.5040928122340347  1.0000
  N   N2        1.0  0.7068311247950235  0.502376053662523  0.4988041031798431  1.0000
  N   N3        1.0  0.7084472888478572  0.5049439218526927  0.8802155488507921  1.0000
  N   N4        1.0  0.2917883093797045  0.4999092795542025  0.8771654408758989  1.0000
  N   N5        1.0  0.12629586923078048  0.3748910279207252  0.4598485052081713  1.0000
  N   N6        1.0  0.12732367054698554  0.6176647670743236  0.5501517601907366  1.0000
  N   N7        1.0  0.8724531424761466  0.44263109780358423  0.4204704464162105  1.0000
  N   N8        1.0  0.8682726755350882  0.5570920253632887  0.5808355589028764  1.0000
  N   N9        1.0  0.35946285993365723  0.8861320485450718  0.5337714880688722  1.0000
  N   N10       1.0  0.6422713228561746  0.8784844113119872  0.4710830134487835  1.0000
  N   N11       1.0  0.3637204183548021  0.11224887093935368  0.47620183714312947  1.0000
  N   N12       1.0  0.646549976702481  0.12184837160059908  0.5386229631102494  1.0000
  N   N13       1.0  0.6494466658695615  0.5352346776336246  0.11713273133659638  1.0000
  N   N14       1.0  0.3539327487100651  0.473008934140914  0.11853131563508157  1.0000
  N   N15       1.0  0.6449676087378576  0.45180858098487425  0.2615921520906426  1.0000
  N   N16       1.0  0.3622433655712952  0.5525121952945399  0.2647464244187816  1.0000
  N   N17       1.0  0.8731142001552286  0.3874505682268605  0.9257356963481271  1.0000
  N   N18       1.0  0.8705484796274446  0.6165610349527667  0.8263731103147264  1.0000
  N   N19       1.0  0.12509515078077982  0.4401635673875787  0.9535522007578976  1.0000
  N   N20       1.0  0.13158313572413496  0.5616238714199396  0.797207660698504  1.0000
  N   N21       1.0  0.6463108086981109  0.8766288711519293  0.8541053113774737  1.0000
  N   N22       1.0  0.35235028546983926  0.8933764488817458  0.8956399702346118  1.0000
  N   N23       1.0  0.6532377365743968  0.12289795876045417  0.8882486779062403  1.0000
  N   N24       1.0  0.35755693564942  0.11550174730574264  0.8506591505878305  1.0000
  Cl  Cl1       1.0  0.4410981451887466  0.6537587398252427  0.6357512514625795  1.0000
  Cl  Cl2       1.0  0.44156073623935305  0.6564160789597364  0.7446693108965119  1.0000
  O   O1        1.0  0.5552736519155771  0.6107124007352452  0.48414447297192  1.0000
  O   O2        1.0  0.4232251421855722  0.6137037626673347  0.5050367247335075  1.0000
  O   O3        1.0  0.4403125565508929  0.49708779979359713  0.5713330832871718  1.0000
  O   O4        1.0  0.5726909997882998  0.5284733565903821  0.56791766385998  1.0000
  O   O5        1.0  0.42935597707548107  0.3847477580736225  0.49692667483930814  1.0000
  O   O6        1.0  0.5623471802723189  0.3898247122926505  0.5152976394866613  1.0000
  O   O7        1.0  0.567873280796121  0.47403828917791185  0.4302866719135636  1.0000
  O   O8        1.0  0.4345279279231917  0.5030341184123656  0.43092136602577824  1.0000
  O   O9        1.0  0.4231461753372372  0.6163577076478787  0.8852005164026195  1.0000
  O   O10       1.0  0.5597361152248298  0.6160725548757212  0.8913161858874686  1.0000
  O   O11       1.0  0.5752671136969596  0.524902422772193  0.8116704645434749  1.0000
  O   O12       1.0  0.4394793934314336  0.5097088113212677  0.8096182289947791  1.0000
  O   O13       1.0  0.5668702077795302  0.3913440593603355  0.8693702292122012  1.0000
  O   O14       1.0  0.4301042238825231  0.387582930728989  0.8737775583382825  1.0000
  O   O15       1.0  0.4342710315387563  0.4926789374174732  0.9500433984397886  1.0000
  O   O16       1.0  0.5712330737504486  0.48783609912298675  0.950539103261569  1.0000
  O   O17       1.0  0.060291863652857096  0.3552247801304701  0.4754262199688313  1.0000
  O   O18       1.0  0.16328161752728224  0.3458667216683437  0.4270465227157558  1.0000
  O   O19       1.0  0.0618610621541578  0.638684541840064  0.5346604951537088  1.0000
  O   O20       1.0  0.1641925864654539  0.6448814194659247  0.5835162814432381  1.0000
  O   O21       1.0  0.9398538239868441  0.46782800271696345  0.41117322238007137  1.0000
  O   O22       1.0  0.8347512328032066  0.3946312869400116  0.3982205193177819  1.0000
  O   O23       1.0  0.93113101308046  0.5262574142156209  0.5933177077227255  1.0000
  O   O24       1.0  0.8330977978248555  0.6091857972313406  0.6007947643209803  1.0000
  O   O25       1.0  0.37052033275244156  0.9462084049058531  0.5545614958703382  1.0000
  O   O26       1.0  0.2933530976674916  0.8555147546625007  0.5273029772187314  1.0000
  O   O27       1.0  0.6369961642131798  0.9406060164852548  0.4530734909291283  1.0000
  O   O28       1.0  0.7053384017706607  0.8427431081111578  0.4768552117306228  1.0000
  O   O29       1.0  0.37406753472257753  0.053491008875255396  0.45393038801992697  1.0000
  O   O30       1.0  0.2978280362825032  0.14178162340220982  0.4850611454036056  1.0000
  O   O31       1.0  0.641488016257554  0.057735903188131515  0.5538576439264915  1.0000
  O   O32       1.0  0.709062941990176  0.15972244012033338  0.5368111747629101  1.0000
  O   O33       1.0  0.6449605934811088  0.5734542590177438  0.1531025542917348  1.0000
  O   O34       1.0  0.7123897914978982  0.5138606520433269  0.09801053200789767  1.0000
  O   O35       1.0  0.35650315874245564  0.44134705618009906  0.15630626841483056  1.0000
  O   O36       1.0  0.2920306655971885  0.49305345496346575  0.09819073728088769  1.0000
  O   O37       1.0  0.6375581888048815  0.4209041387624808  0.22323795741043986  1.0000
  O   O38       1.0  0.7093321318285676  0.46377931212091983  0.2821372472662702  1.0000
  O   O39       1.0  0.3724357406632349  0.590529041809404  0.22974891877201734  1.0000
  O   O40       1.0  0.2966542638876604  0.5385518206411317  0.2832798525257303  1.0000
  O   O41       1.0  0.936356314656649  0.36301885624227015  0.9086796970099795  1.0000
  O   O42       1.0  0.8386987031924206  0.36488640378761517  0.9608690049173061  1.0000
  O   O43       1.0  0.9351468694527015  0.6414149009367165  0.8412184009593628  1.0000
  O   O44       1.0  0.8339903834000922  0.636849739165747  0.7914645088416421  1.0000
  O   O45       1.0  0.0614767742521565  0.47021286077388413  0.9659887531893929  1.0000
  O   O46       1.0  0.1591957077284718  0.3870242369313956  0.9721016699847524  1.0000
  O   O47       1.0  0.06728610738272782  0.5333716650320067  0.7842508527912955  1.0000
  O   O48       1.0  0.1684798603854034  0.6131116187062701  0.7785613311716374  1.0000
  O   O49       1.0  0.6441716229075497  0.9326010615856076  0.8295265496030595  1.0000
  O   O50       1.0  0.7080271223641432  0.844202490782372  0.8672320041414209  1.0000
  O   O51       1.0  0.3583256361554276  0.9532640844851696  0.9172717826534793  1.0000
  O   O52       1.0  0.2889524627030653  0.8644078007328487  0.8816401362344307  1.0000
  O   O53       1.0  0.6515330649684258  0.06412996837076429  0.9102036074121853  1.0000
  O   O54       1.0  0.714750804261044  0.15574375403662796  0.8749891143080434  1.0000
  O   O55       1.0  0.3620514979803744  0.05863456849116488  0.8259580776241435  1.0000
  O   O56       1.0  0.29500045521630364  0.14336892379448324  0.8667215392022739  1.0000
