data_image0
_chemical_formula_structural       C44F16H16N16Zn4
_chemical_formula_sum              "C44 F16 H16 N16 Zn4"
_cell_length_a       13.207756529687352
_cell_length_b       13.181955742900515
_cell_length_c       14.746476531628632
_cell_angle_alpha    100.64756184754997
_cell_angle_beta     118.54341522376448
_cell_angle_gamma    104.887529640423

_space_group_name_H-M_alt    "P 1"
_space_group_IT_number       1

loop_
  _space_group_symop_operation_xyz
  'x, y, z'

loop_
  _atom_site_type_symbol
  _atom_site_label
  _atom_site_symmetry_multiplicity
  _atom_site_fract_x
  _atom_site_fract_y
  _atom_site_fract_z
  _atom_site_occupancy
  C   C1        1.0  0.570956588101325  0.8035696840799746  0.1020306930208505  1.0000
  C   C2        1.0  0.5244634515994165  0.14308759313898636  0.14990005477361731  1.0000
  C   C3        1.0  0.9938977964294652  0.37443058946661967  0.8501222148191232  1.0000
  C   C4        1.0  0.9751276501257212  0.7856440414157647  0.32280909180389716  1.0000
  C   C5        1.0  0.46240176423847157  0.6530276627794506  0.6770355953589302  1.0000
  C   C6        1.0  0.1063688744761038  0.886254528050962  0.5289110782583676  1.0000
  C   C7        1.0  0.3570898361180567  0.5787158655517786  0.4708811685283081  1.0000
  C   C8        1.0  0.7028764618416761  0.46940873326474997  0.8981890762010352  1.0000
  C   C9        1.0  0.07937520129398477  0.8794127436310715  0.4230640054325079  1.0000
  C   C10       1.0  0.4559090314249944  0.6571904724726351  0.5766549498586926  1.0000
  C   C11       1.0  0.15260705971717667  0.9774352546582535  0.42191330291629475  1.0000
  C   C12       1.0  0.5551814257795017  0.7310901579514493  0.5777282360738667  1.0000
  C   C13       1.0  0.23653975573326128  0.07436546942063416  0.5169731322772789  1.0000
  C   C14       1.0  0.5573174479047863  0.719684201588862  0.48266840028354346  1.0000
  C   C15       1.0  0.2554603513502868  0.08620939394157993  0.621626517083392  1.0000
  C   C16       1.0  0.46468046963665455  0.6342220261037355  0.378104245543895  1.0000
  C   C17       1.0  0.18973623919875124  0.9843540382152511  0.622101899099718  1.0000
  C   C18       1.0  0.3622056365793256  0.5686366982600646  0.3776464848421027  1.0000
  C   C19       1.0  0.16714703846083287  0.9326979355076688  0.6976555406933614  1.0000
  C   C20       1.0  0.23505207706355702  0.47110710983947973  0.3022486796134274  1.0000
  C   C21       1.0  0.3793239196232108  0.5298938096354391  0.17603716292765628  1.0000
  C   C22       1.0  0.3538457400700139  0.2026388531695175  0.8240923290516946  1.0000
  C   C23       1.0  0.06911353735596773  0.8224263800819858  0.5909509305660023  1.0000
  C   C24       1.0  0.47726754696321183  0.6022018864029092  0.2852932648064979  1.0000
  C   C25       1.0  0.23139013469353387  0.4798739802772473  0.4090528098578189  1.0000
  C   C26       1.0  0.8403462725590531  0.35776386072032557  0.9061698510285795  1.0000
  C   C27       1.0  0.451751376284001  0.9334143369661803  0.09426092469889374  1.0000
  C   C28       1.0  0.8814513250903532  0.3790544465883272  0.8404947550345908  1.0000
  C   C29       1.0  0.538661519890951  0.04008788463808343  0.15958509667186152  1.0000
  C   C30       1.0  0.3167684847558689  0.19147554223824398  0.714650280290229  1.0000
  C   C31       1.0  0.062351694757744366  0.4339829264502271  0.813656444815095  1.0000
  C   C32       1.0  0.620168485771302  0.24788680961223275  0.1859283976629555  1.0000
  C   C33       1.0  0.9099068015298357  0.6778776380022719  0.3141014599508906  1.0000
  C   C34       1.0  0.36376191971325517  0.5963787469077602  0.6859978840591836  1.0000
  C   C35       1.0  0.0721498248345397  0.3231057443626282  0.9085745099486431  1.0000
  C   C36       1.0  0.41505404719195843  0.16332431210914683  0.09188515722481577  1.0000
  C   C37       1.0  0.903673794630443  0.7861376798410121  0.21540857403500271  1.0000
  C   C38       1.0  0.570019788900396  0.6886602892489577  0.784327544405194  1.0000
  C   C39       1.0  0.5846950936692252  0.6057924700651185  0.28533237275090056  1.0000
  C   C40       1.0  0.3208913351367714  0.29919742529234133  0.7146390612499118  1.0000
  C   C41       1.0  0.36524948497051213  0.7207545215653824  0.005554684806270371  1.0000
  C   C42       1.0  0.7160787839993363  0.3594893460849065  0.9945956158538891  1.0000
  C   C43       1.0  0.46476238504241235  0.8277743061376411  0.07629133522169695  1.0000
  C   C44       1.0  0.7526710434080215  0.38871446790255954  0.9239921211253019  1.0000
  F   F1        1.0  0.6924481263129962  0.874259678817495  0.16322780967092848  1.0000
  F   F2        1.0  0.23361157113108544  0.36824309465848876  0.25348448844751903  1.0000
  F   F3        1.0  0.11344679982033053  0.9808154090844141  0.746333276031244  1.0000
  F   F4        1.0  0.9454595701194746  0.7960279783487749  0.5621153253869337  1.0000
  F   F5        1.0  0.23343966990321252  0.3847752044947511  0.4380249855107436  1.0000
  F   F6        1.0  0.9034343920502508  0.31037556843491393  0.9794711232749833  1.0000
  F   F7        1.0  0.3313758486459907  0.9236327084727453  0.021480694698467966  1.0000
  F   F8        1.0  0.7125201328846915  0.5300718096873994  0.836984693997799  1.0000
  F   F9        1.0  0.8179058492208284  0.42038653791611574  0.7626021777363049  1.0000
  F   F10       1.0  0.6576135975622536  0.05401741014787119  0.236958661263337  1.0000
  F   F11       1.0  0.03441968559226885  0.5007719859242526  0.7548667996251552  1.0000
  F   F12       1.0  0.7453213802040254  0.27834229184106374  0.2441236414658405  1.0000
  F   F13       1.0  0.7053439751727454  0.6576528083043415  0.3696938322658099  1.0000
  F   F14       1.0  0.288704278137331  0.3357524573712212  0.6301674270794919  1.0000
  F   F15       1.0  0.30161548546704614  0.1638590364395824  0.5055494181559013  1.0000
  F   F16       1.0  0.6583755252773712  0.7955483885851675  0.4939794602496903  1.0000
  H   H1        1.0  0.057839130712565634  0.2683348104751318  0.9516903928183922  1.0000
  H   H2        1.0  0.15982844534883622  0.4853590862287902  0.23600752286586155  1.0000
  H   H3        1.0  0.2469854030192949  0.9231201327095703  0.7639782217591248  1.0000
  H   H4        1.0  0.0871319406456269  0.7456958194668958  0.5945089953523637  1.0000
  H   H5        1.0  0.15151646956640982  0.49480997476280214  0.40562413055551627  1.0000
  H   H6        1.0  0.2783817480719789  0.5004671368415429  0.13721605012321447  1.0000
  H   H7        1.0  0.36316210541561134  0.14039407345252636  0.8631403624765923  1.0000
  H   H8        1.0  0.3175022578235343  0.10607082623464244  0.049171767264034764  1.0000
  H   H9        1.0  0.9294099130588265  0.6408820981275483  0.37740573631781155  1.0000
  H   H10       1.0  0.2637953510336858  0.5526615458164984  0.6228227825891679  1.0000
  H   H11       1.0  0.9164645002816698  0.853976279615253  0.18466364874655733  1.0000
  H   H12       1.0  0.6682884793509559  0.7320811757650106  0.8149020779089183  1.0000
  H   H13       1.0  0.26481544568516546  0.6988351779158817  0.9638374012009264  1.0000
  H   H14       1.0  0.7355620660298499  0.300351991863387  0.036199398657593834  1.0000
  H   H15       1.0  0.14306269517206274  0.9814021691065377  0.34513270925606304  1.0000
  H   H16       1.0  0.6358306528333985  0.7979148281804241  0.6545068324509274  1.0000
  N   N1        1.0  0.5392168404023535  0.6945263920946159  0.05232386758362395  1.0000
  N   N2        1.0  0.5747234561773666  0.32298709664546277  0.15343879093328644  1.0000
  N   N3        1.0  0.16985560235795558  0.42114263466808666  0.8464354936158074  1.0000
  N   N4        1.0  0.8086688108800785  0.6194048262370301  0.21047565239160082  1.0000
  N   N5        1.0  0.4088711180176574  0.598414488161758  0.7896638770246794  1.0000
  N   N6        1.0  0.17564617594111806  0.35080381276549116  0.9058377726897291  1.0000
  N   N7        1.0  0.4454151646677502  0.2697231067028625  0.09460856057805955  1.0000
  N   N8        1.0  0.6433626392905083  0.48712108325293707  0.9477453895979905  1.0000
  N   N9        1.0  0.8041054221532065  0.6871280688565378  0.14877825773572786  1.0000
  N   N10       1.0  0.5378599826311046  0.6554191291309265  0.851140997227688  1.0000
  N   N11       1.0  0.554560883440857  0.5417789979522284  0.1871710261153368  1.0000
  N   N12       1.0  0.35529200716437265  0.36725185646248093  0.8128830600732044  1.0000
  N   N13       1.0  0.41067477806328867  0.6430482366499246  0.9915211886595188  1.0000
  N   N14       1.0  0.6524075009028464  0.4189611100612325  0.008535294082406563  1.0000
  N   N15       1.0  0.4261916462389765  0.494502054909269  0.1191907340592735  1.0000
  N   N16       1.0  0.3757605276138846  0.30657073946343144  0.8809890690739266  1.0000
  Zn  Zn1       1.0  0.638938636117331  0.6388358806776395  0.9999401185657818  1.0000
  Zn  Zn2       1.0  0.3451800441115509  0.3449801520855047  9.261972689247656e-05  1.0000
  Zn  Zn3       1.0  0.3274207519944667  0.5078312793834031  0.8522698262100761  1.0000
  Zn  Zn4       1.0  0.6558802779797616  0.47499394652854215  0.1476849497516568  1.0000
