data_image0
_chemical_formula_structural       Li2B2H32C20N16O4F4
_chemical_formula_sum              "Li2 B2 H32 C20 N16 O4 F4"
_cell_length_a       8.088255518629683
_cell_length_b       9.157767073835037
_cell_length_c       11.0281786253058
_cell_angle_alpha    107.14657330731927
_cell_angle_beta     100.95188196681814
_cell_angle_gamma    98.0637180713318

_space_group_name_H-M_alt    "P 1"
_space_group_IT_number       1

loop_
  _space_group_symop_operation_xyz
  'x, y, z'

loop_
  _atom_site_type_symbol
  _atom_site_label
  _atom_site_symmetry_multiplicity
  _atom_site_fract_x
  _atom_site_fract_y
  _atom_site_fract_z
  _atom_site_occupancy
  Li  Li1       1.0  0.027782357999207467  0.6591627263935111  0.7896775981086963  1.0000
  Li  Li2       1.0  0.9722174322386863  0.34083662159392963  0.21032116935907658  1.0000
  B   B1        1.0  0.236185656079769  0.11336301843187613  0.5554488130360726  1.0000
  B   B2        1.0  0.7638141273146245  0.8866363267458367  0.4445508595447337  1.0000
  H   H1        1.0  0.9856377364028859  0.6338635715755102  0.07352655842791483  1.0000
  H   H2        1.0  0.014364825491014734  0.3661369479216319  0.9264747066512701  1.0000
  H   H3        1.0  0.07134860455678906  0.837109137075288  0.10973276807958854  1.0000
  H   H4        1.0  0.9286524322480504  0.16289020955012035  0.8902679907268766  1.0000
  H   H5        1.0  0.33314956734640333  0.8291795644753251  0.2443804907621115  1.0000
  H   H6        1.0  0.6668527433993816  0.17081979202693984  0.7556186389309334  1.0000
  H   H7        1.0  0.21650569209052153  0.6580154295774535  0.25606821352883474  1.0000
  H   H8        1.0  0.7834951004097022  0.341982756862798  0.7439295047784713  1.0000
  H   H9        1.0  0.49779171325595684  0.6436119837105567  0.1541900325445767  1.0000
  H   H10       1.0  0.5022098669061208  0.3563897057629291  0.8458095663559893  1.0000
  H   H11       1.0  0.3095543874447628  0.49142916501623546  0.07590205085887904  1.0000
  H   H12       1.0  0.6904481949796377  0.5085713629100751  0.9240964988812198  1.0000
  H   H13       1.0  0.4134921946098872  0.7839971257303446  0.0024400612049220193  1.0000
  H   H14       1.0  0.5865078604631222  0.2160033908714141  0.9975590314229312  1.0000
  H   H15       1.0  0.345263559828858  0.5847916817929146  0.8948799342108561  1.0000
  H   H16       1.0  0.654737038601404  0.4152111776569143  0.10511799851109772  1.0000
  H   H17       1.0  0.6062036111144524  0.4769518281942667  0.6406894883970013  1.0000
  H   H18       1.0  0.39379517001761855  0.5230486785306283  0.359311233344279  1.0000
  H   H19       1.0  0.6962341894336321  0.6127002509612185  0.5712578942473175  1.0000
  H   H20       1.0  0.3037655802737618  0.38729908859706097  0.42874358855954864  1.0000
  H   H21       1.0  0.4359629389457567  0.7070674224113136  0.5914038355605913  1.0000
  H   H22       1.0  0.5640355773511915  0.29293191569926336  0.40859656102060893  1.0000
  H   H23       1.0  0.4174184769160689  0.6371523294990169  0.7230016502890069  1.0000
  H   H24       1.0  0.5825805622076174  0.3628493430304758  0.27700030172538  1.0000
  H   H25       1.0  0.5340602541775681  0.9159933492837171  0.8414272056066994  1.0000
  H   H26       1.0  0.4659423008728325  0.08400716740370479  0.15857496458551887  1.0000
  H   H27       1.0  0.6678635607621288  0.9270678010613267  0.7318942997886781  1.0000
  H   H28       1.0  0.33213469754319647  0.0729303712446594  0.26810486651940835  1.0000
  H   H29       1.0  0.8715435560336289  0.891681521184843  0.9080874471174387  1.0000
  H   H30       1.0  0.12845622736076479  0.10831782399286989  0.09191222546336773  1.0000
  H   H31       1.0  0.7083232936456838  0.7668480360825926  0.9408805700122618  1.0000
  H   H32       1.0  0.29167549432988693  0.23315247345203013  0.05911924661598531  1.0000
  C   C1        1.0  0.12472341383180921  0.8725448624786551  0.6289144318923265  1.0000
  C   C2        1.0  0.8752751229956388  0.12745448406109014  0.37108324934978765  1.0000
  C   C3        1.0  0.03226465861568783  0.757211847853668  0.5027031825602606  1.0000
  C   C4        1.0  0.9677356407619442  0.24278982893324044  0.49729895056676565  1.0000
  C   C5        1.0  0.10224419967106976  0.7202042858588202  0.086233246892995  1.0000
  C   C6        1.0  0.8977568439772694  0.2797950635763086  0.9137666068004436  1.0000
  C   C7        1.0  0.25621640939494483  0.7120518932876153  0.18712975910516158  1.0000
  C   C8        1.0  0.743785908194333  0.28794746602437027  0.8128684654748571  1.0000
  C   C9        1.0  0.3612392612868477  0.6174744889280106  0.10367474356959866  1.0000
  C   C10       1.0  0.6387618028919917  0.3825248689362795  0.8963223947847541  1.0000
  C   C11       1.0  0.33085463691970324  0.6693304786756967  0.9842191305208066  1.0000
  C   C12       1.0  0.6691451670051974  0.3306688749311774  0.015777826720906742  1.0000
  C   C13       1.0  0.6479488064903408  0.6016702018084814  0.655546007804695  1.0000
  C   C14       1.0  0.3520512348956757  0.3983303091738293  0.3444548950492178  1.0000
  C   C15       1.0  0.508903233906956  0.6953307680855048  0.6813718621380007  1.0000
  C   C16       1.0  0.49109680747906026  0.304669742896813  0.3186290407159192  1.0000
  C   C17       1.0  0.6114887046400952  0.8522771794705405  0.7815799507985306  1.0000
  C   C18       1.0  0.38851133674592114  0.1477233315117772  0.2184209520553894  1.0000
  C   C19       1.0  0.7519162199423238  0.8023107713807323  0.8630716596673839  1.0000
  C   C20       1.0  0.2480838214436858  0.19768973960158584  0.13692924318652905  1.0000
  N   N1        1.0  0.20983831894218238  0.0196115014142109  0.6520371665431102  1.0000
  N   N2        1.0  0.7901629895412726  0.980389016635236  0.34796301231040877  1.0000
  N   N3        1.0  0.2742350802111986  0.08457748958095831  0.7829916316257199  1.0000
  N   N4        1.0  0.7257652260099337  0.9154241900156708  0.2170095963882731  1.0000
  N   N5        1.0  0.23072198226984145  0.9801921519097833  0.8361054103391725  1.0000
  N   N6        1.0  0.7692783307947906  0.019809530496566207  0.1638949125617871  1.0000
  N   N7        1.0  0.13756211525683432  0.845780387020902  0.7425088561634684  1.0000
  N   N8        1.0  0.8624364078836138  0.1542189538993952  0.25749063530469857  1.0000
  N   N9        1.0  0.08167454788135593  0.6260078559284139  0.4475227240321049  1.0000
  N   N10       1.0  0.9183252355130378  0.373991489249299  0.5524769485487014  1.0000
  N   N11       1.0  0.9574780702487617  0.5506919395965255  0.33640602021135646  1.0000
  N   N12       1.0  0.04252171314563211  0.44930740558118737  0.6635936523694499  1.0000
  N   N13       1.0  0.8366024478680174  0.6295293729245158  0.3226725165415233  1.0000
  N   N14       1.0  0.1633975935179919  0.37047113805779475  0.6773283863123967  1.0000
  N   N15       1.0  0.8805021799457862  0.760881360343646  0.42701851923752815  1.0000
  N   N16       1.0  0.11949660118627752  0.23911914638124898  0.5729822025037523  1.0000
  O   O1        1.0  0.15131391756739282  0.682656448419074  0.961701156711648  1.0000
  O   O2        1.0  0.8486858658270009  0.31734289675863897  0.03829851586915824  1.0000
  O   O3        1.0  0.7907159953932068  0.668282956071991  0.7720683626293412  1.0000
  O   O4        1.0  0.20928278573885714  0.331717550652904  0.22793235911193935  1.0000
  F   F1        1.0  0.17601160224298698  0.008701822788104597  0.427877042558393  1.0000
  F   F2        1.0  0.8239859254786381  0.9912986824890953  0.5721225929572145  1.0000
  F   F3        1.0  0.40636235871673415  0.18833128693891155  0.5851816424572862  1.0000
  F   F4        1.0  0.5936374246776523  0.8116680582388015  0.41481803012352014  1.0000
