data_image0
_chemical_formula_structural       Zn2H56C62N4O8
_chemical_formula_sum              "Zn2 H56 C62 N4 O8"
_cell_length_a       8.51746774189378
_cell_length_b       10.9389485179199
_cell_length_c       14.387946911310188
_cell_angle_alpha    102.29872647843615
_cell_angle_beta     107.21287491570656
_cell_angle_gamma    90.00669236643056

_space_group_name_H-M_alt    "P 1"
_space_group_IT_number       1

loop_
  _space_group_symop_operation_xyz
  'x, y, z'

loop_
  _atom_site_type_symbol
  _atom_site_label
  _atom_site_symmetry_multiplicity
  _atom_site_fract_x
  _atom_site_fract_y
  _atom_site_fract_z
  _atom_site_occupancy
  Zn  Zn1       1.0  0.717348267824249  0.1691800647782316  0.6835466371562972  1.0000
  Zn  Zn2       1.0  0.9662343212611402  0.6691247395334726  0.6835570692808657  1.0000
  H   H1        1.0  0.6983243618404914  0.834275976737352  0.3634992534230363  1.0000
  H   H2        1.0  0.6648519692457313  0.33418094230020756  0.36355746070543654  1.0000
  H   H3        1.0  0.8937326944670474  0.21653168164236544  0.4442960314992773  1.0000
  H   H4        1.0  0.5509015619296631  0.7165482552220651  0.4444528029412495  1.0000
  H   H5        1.0  0.9548121856185504  0.19320252246410513  0.2820878160086123  1.0000
  H   H6        1.0  0.3278010443057582  0.6934706353481487  0.28221704988123253  1.0000
  H   H7        1.0  0.9798569868604758  0.1202007094691666  0.10026715638777968  1.0000
  H   H8        1.0  0.12078454159763649  0.6205672643279029  0.10026292055439968  1.0000
  H   H9        1.0  0.9815808510788314  0.007076155923527901  0.9309404647421926  1.0000
  H   H10       1.0  0.9492760753401157  0.5073391895281245  0.9310724830497462  1.0000
  H   H11       1.0  0.7950415736767055  0.6652363612445383  0.974658572334931  1.0000
  H   H12       1.0  0.17926622987229024  0.16544437073635984  0.9747362842568277  1.0000
  H   H13       1.0  0.8644103072144418  0.5956468277903468  0.1375596841116291  1.0000
  H   H14       1.0  0.27280622735895577  0.09589371747220807  0.13773533746957864  1.0000
  H   H15       1.0  0.010264074753152386  0.7087215087959249  0.22681689054974186  1.0000
  H   H16       1.0  0.2166064330064117  0.2090383906627693  0.2271182502696333  1.0000
  H   H17       1.0  0.7265792605169636  0.5784417102379038  0.26732730853360914  1.0000
  H   H18       1.0  0.5406567909840233  0.07858417108639058  0.2673003395130563  1.0000
  H   H19       1.0  0.8745931654916747  0.6900050523204085  0.35580628867400316  1.0000
  H   H20       1.0  0.4813527203848126  0.19013297239889226  0.35586729116520377  1.0000
  H   H21       1.0  0.9503007797996333  0.4739127691132126  0.37108197936122167  1.0000
  H   H22       1.0  0.42044787353906077  0.9740764792664224  0.371116224001767  1.0000
  H   H23       1.0  0.1011240745933364  0.5501851232657556  0.3357319193424073  1.0000
  H   H24       1.0  0.23450214008555284  0.0506459831854116  0.3357973552677079  1.0000
  H   H25       1.0  0.9556508285022005  0.43632409793298876  0.24532092217715018  1.0000
  H   H26       1.0  0.2893011682869755  0.9366869461101928  0.24535531658279544  1.0000
  H   H27       1.0  0.5393245107084537  0.7007837635827909  0.17907977207883607  1.0000
  H   H28       1.0  0.6395291367099887  0.20089529746250886  0.17909407967109556  1.0000
  H   H29       1.0  0.5767903480534994  0.6501849769907648  0.06314150261992063  1.0000
  H   H30       1.0  0.4860427619828656  0.15004526962233197  0.06321839649628908  1.0000
  H   H31       1.0  0.48052395052737745  0.9121532953440405  0.14617681939625263  1.0000
  H   H32       1.0  0.6650046896920612  0.41216493663187487  0.14588340964066754  1.0000
  H   H33       1.0  0.5422292978247469  0.8752775619717496  0.03826292887374188  1.0000
  H   H34       1.0  0.4956484566304696  0.37485710791806776  0.03786281145445258  1.0000
  H   H35       1.0  0.24234592948491954  0.8631348514796854  0.9860700045827214  1.0000
  H   H36       1.0  0.7438737994112968  0.3627413765579987  0.9861180401649816  1.0000
  H   H37       1.0  0.23243695963246577  0.7643787734370163  0.06643459561427531  1.0000
  H   H38       1.0  0.8338050492340798  0.264146575956417  0.06671845291474905  1.0000
  H   H39       1.0  0.30109364991479026  0.7067570238255171  0.9615018264747375  1.0000
  H   H40       1.0  0.6605189032883417  0.20639493303006157  0.9616204466182763  1.0000
  H   H41       1.0  0.6024485023361024  0.34263593196081377  0.5349856051044809  1.0000
  H   H42       1.0  0.9326587068009857  0.8426943253472741  0.5348972142800574  1.0000
  H   H43       1.0  0.3370295746863193  0.43667421297003267  0.4600114548428137  1.0000
  H   H44       1.0  0.1232929619626475  0.9366295460601037  0.45997911447339834  1.0000
  H   H45       1.0  0.08444763168070318  0.38069942839835136  0.5048490568246817  1.0000
  H   H46       1.0  0.42071187066441945  0.8807426749979969  0.5049790515614346  1.0000
  H   H47       1.0  0.1021641262546424  0.2288553851157857  0.6115995471047667  1.0000
  H   H48       1.0  0.5095417245305427  0.7289592893676583  0.6117999211103962  1.0000
  H   H49       1.0  0.1445644960993704  0.11224673502317731  0.7154306805113035  1.0000
  H   H50       1.0  0.5709616142809038  0.6124684163817022  0.7153747701148274  1.0000
  H   H51       1.0  0.2086927983336295  0.9631711731139561  0.8254450610458263  1.0000
  H   H52       1.0  0.6168935829534448  0.4631243396426825  0.8251391872902686  1.0000
  H   H53       1.0  0.5001134220931504  0.8919521808866835  0.876629254667641  1.0000
  H   H54       1.0  0.3767686272551884  0.39165659862213437  0.8763357937784306  1.0000
  H   H55       1.0  0.7100722909851385  0.9768054455835298  0.8111012365247418  1.0000
  H   H56       1.0  0.10129891857806682  0.47666380248055873  0.8111399917196351  1.0000
  C   C1        1.0  0.760106100014866  0.9092191652156602  0.34553378360251213  1.0000
  C   C2        1.0  0.5853740751301828  0.4092287420937949  0.3455114704782573  1.0000
  C   C3        1.0  0.7995341247630421  0.02539225675383959  0.4143174116970556  1.0000
  C   C4        1.0  0.6147931449086742  0.5253457094748625  0.41432444027000054  1.0000
  C   C5        1.0  0.8706751751723587  0.12642468253739733  0.3912124099601825  1.0000
  C   C6        1.0  0.520803026204014  0.6264902026900713  0.3913001404497577  1.0000
  C   C7        1.0  0.9037133138259748  0.11313199168508697  0.30038214669161784  1.0000
  C   C8        1.0  0.397095886369911  0.613324739988137  0.30042720535878686  1.0000
  C   C9        1.0  0.9402267301917958  0.021049798195470298  0.07393007304022349  1.0000
  C   C10       1.0  0.1340538361558146  0.5214136159292052  0.07395610922207398  1.0000
  C   C11       1.0  0.9423538125888128  0.9578127694299494  0.9795424015906702  1.0000
  C   C12       1.0  0.037239165418661485  0.45811041965902166  0.9796289048790212  1.0000
  C   C13       1.0  0.8928583092962084  0.8293679958808008  0.9446536518765637  1.0000
  C   C14       1.0  0.05157883305535901  0.3296334852126392  0.9447411612460641  1.0000
  C   C15       1.0  0.8359062873306938  0.764144865941297  0.0038385071144019503  1.0000
  C   C16       1.0  0.1677809279649338  0.26439711332757543  0.0038573112015782983  1.0000
  C   C17       1.0  0.7710807402059741  0.7774446266093448  0.17217481572548363  1.0000
  C   C18       1.0  0.4009189718238558  0.27758889070339177  0.17217071201506676  1.0000
  C   C19       1.0  0.7979948828372017  0.8937238951169063  0.25648727482008826  1.0000
  C   C20       1.0  0.4585389118889438  0.3938583625033374  0.2564452242710685  1.0000
  C   C21       1.0  0.8682327745469395  0.9962315356757327  0.2331574046962075  1.0000
  C   C22       1.0  0.3652773285891868  0.4964765583297606  0.23314612016067568  1.0000
  C   C23       1.0  0.8867595481680794  0.9554033228104328  0.13359033808443851  1.0000
  C   C24       1.0  0.24720061024508766  0.4557302102974034  0.13356585137091054  1.0000
  C   C25       1.0  0.8326598772993349  0.8273711694179224  0.0974929123104855  1.0000
  C   C26       1.0  0.2647773954561713  0.3276239079794151  0.09747933305312265  1.0000
  C   C27       1.0  0.7586120950279636  0.0415352359385466  0.5103975695436346  1.0000
  C   C28       1.0  0.7517529591809619  0.5413712240588706  0.5103705608236948  1.0000
  C   C29       1.0  0.9081285423657305  0.7603746918626512  0.8468542027242518  1.0000
  C   C30       1.0  0.9384272234814972  0.2605720049773693  0.846965250222979  1.0000
  C   C31       1.0  0.880884018489752  0.6715465610475277  0.20446385554834018  1.0000
  C   C32       1.0  0.3234529635062842  0.17181195365110108  0.20460227484173288  1.0000
  C   C33       1.0  0.8548443508252959  0.6160321667591332  0.2877096151199367  1.0000
  C   C34       1.0  0.4328628823029775  0.1162153303567024  0.2877576392562347  1.0000
  C   C35       1.0  0.9718447597376566  0.5131469250833405  0.31139682532188556  1.0000
  C   C36       1.0  0.33938066148387236  0.013436040068256697  0.3114569882304607  1.0000
  C   C37       1.0  0.5864800483097171  0.732896782560587  0.12433082614063544  1.0000
  C   C38       1.0  0.53756257227446  0.23286362098028948  0.12429949498005032  1.0000
  C   C39       1.0  0.48171797020444973  0.8346828712367084  0.08363391745474753  1.0000
  C   C40       1.0  0.601531551206172  0.3344735274769376  0.08343578132502215  1.0000
  C   C41       1.0  0.3055083825183686  0.7895959202267236  0.021171278325866173  1.0000
  C   C42       1.0  0.7156424002296902  0.2892858451278569  0.021254891943392803  1.0000
  C   C43       1.0  0.48826566703750984  0.3209035965600293  0.5497555630706115  1.0000
  C   C44       1.0  0.06159974662351428  0.8209338849781105  0.5497215267931209  1.0000
  C   C45       1.0  0.3408396190503638  0.37218872625611243  0.5087052168334337  1.0000
  C   C46       1.0  0.16810586803349278  0.8721736686150549  0.5087082191749913  1.0000
  C   C47       1.0  0.2013665156661304  0.3398980478838211  0.5324999231432557  1.0000
  C   C48       1.0  0.33138634382320475  0.8399687236559359  0.532614549994612  1.0000
  C   C49       1.0  0.212103917661409  0.2562774851228155  0.594807763922283  1.0000
  C   C50       1.0  0.3828165688196775  0.7563937076649123  0.5949593047744342  1.0000
  C   C51       1.0  0.36458754115792397  0.20943652092658743  0.6340259564218724  1.0000
  C   C52       1.0  0.26947439055165745  0.7095966530271554  0.6341432817713153  1.0000
  C   C53       1.0  0.39258570519024255  0.12295866550746837  0.7031167794779377  1.0000
  C   C54       1.0  0.3106445589605186  0.6231354335898017  0.7032100807673201  1.0000
  C   C55       1.0  0.2691221172842049  0.081385755954571  0.7374179592427763  1.0000
  C   C56       1.0  0.4684079732815647  0.5815391377477467  0.7373579006197273  1.0000
  C   C57       1.0  0.3060985475537876  0.997795682401296  0.8005848846045465  1.0000
  C   C58       1.0  0.4946374503100657  0.4977936625989442  0.8004052089451646  1.0000
  C   C59       1.0  0.46575360864174087  0.9580129942354461  0.828193472413403  1.0000
  C   C60       1.0  0.36266068349026875  0.45787425177824986  0.8280262486207304  1.0000
  C   C61       1.0  0.5833975291417559  0.004063705555694199  0.7921959136642867  1.0000
  C   C62       1.0  0.20899934125343117  0.503966516497506  0.792168058940099  1.0000
  N   N1        1.0  0.4990729118536237  0.24290511497872555  0.611181553024103  1.0000
  N   N2        1.0  0.11213917966298938  0.743008824069129  0.6112262878384056  1.0000
  N   N3        1.0  0.5475248496322109  0.0845483719346944  0.7316526466684861  1.0000
  N   N4        1.0  0.18426689371904093  0.5845852336199114  0.7317326435972689  1.0000
  O   O1        1.0  0.6637968177929565  0.9621206642223042  0.5218391859657883  1.0000
  O   O2        1.0  0.8579111216959419  0.46185535981513237  0.5217676228005885  1.0000
  O   O3        1.0  0.8264036209350962  0.14149228246467518  0.5784570005505997  1.0000
  O   O4        1.0  0.7521877071911831  0.6413311207879387  0.5784399582089674  1.0000
  O   O5        1.0  0.870530586763614  0.6432174991846008  0.8171299983411016  1.0000
  O   O6        1.0  0.946225843601887  0.14338032481870036  0.8173491812415462  1.0000
  O   O7        1.0  0.9639847598324424  0.8221468968916739  0.7948345476393185  1.0000
  O   O8        1.0  0.830706401749886  0.3223099133110238  0.7948656596176347  1.0000
