data_image0
_chemical_formula_structural       Cu4H28C12N4Cl8O8
_chemical_formula_sum              "Cu4 H28 C12 N4 Cl8 O8"
_cell_length_a       6.906174888134136
_cell_length_b       7.828675638547935
_cell_length_c       12.124777522070138
_cell_angle_alpha    89.99998584949697
_cell_angle_beta     89.99961517155309
_cell_angle_gamma    95.02154389885689

_space_group_name_H-M_alt    "P 1"
_space_group_IT_number       1

loop_
  _space_group_symop_operation_xyz
  'x, y, z'

loop_
  _atom_site_type_symbol
  _atom_site_label
  _atom_site_symmetry_multiplicity
  _atom_site_fract_x
  _atom_site_fract_y
  _atom_site_fract_z
  _atom_site_occupancy
  Cu  Cu1       1.0  0.1346721212910751  0.2640658343603377  0.2290826932534742  1.0000
  Cu  Cu2       1.0  0.3653254927605828  0.7359331051800166  0.7290815018813459  1.0000
  Cu  Cu3       1.0  0.8653250792542481  0.7359336130241231  0.7709180180226765  1.0000
  Cu  Cu4       1.0  0.6346746056485983  0.26406636229717145  0.2709192093892838  1.0000
  H   H1        1.0  0.9570359005252626  0.390000665776  0.6027432326668957  1.0000
  H   H2        1.0  0.5429584381543364  0.6099982110302804  0.10274390564231338  1.0000
  H   H3        1.0  0.04296900820741458  0.6100039607901377  0.39725747859424126  1.0000
  H   H4        1.0  0.4570356327583339  0.3899986517859445  0.8972576303973623  1.0000
  H   H5        1.0  0.15634717341406199  0.0584188888325841  0.559530789915172  1.0000
  H   H6        1.0  0.34364824050959436  0.9415815386730412  0.0595335749349175  1.0000
  H   H7        1.0  0.8436543739418665  0.9415805886926873  0.4404674470804935  1.0000
  H   H8        1.0  0.6563459462899459  0.058416606381221876  0.9404671363470525  1.0000
  H   H9        1.0  0.1691505291586637  0.17426848267550094  0.684424596340996  1.0000
  H   H10       1.0  0.3308431570937883  0.8257292066120953  0.1844257950606547  1.0000
  H   H11       1.0  0.8308512499611141  0.8257335593247034  0.3155736406540655  1.0000
  H   H12       1.0  0.6691525945245475  0.1742702307265773  0.81557409146086  1.0000
  H   H13       1.0  0.8443015450386112  0.18179072085290926  0.6095072958507827  1.0000
  H   H14       1.0  0.655695842264663  0.8182107311127705  0.10950586383325599  1.0000
  H   H15       1.0  0.1557003499482761  0.8182126033830383  0.3904934154161808  1.0000
  H   H16       1.0  0.3443013582757147  0.18178871627111443  0.8904956722002949  1.0000
  H   H17       1.0  0.3171329214363395  0.3076104279014941  0.4671551648699007  1.0000
  H   H18       1.0  0.18287099820997807  0.6923933696747822  0.9671554988805722  1.0000
  H   H19       1.0  0.6828746533963468  0.6923916542824456  0.5328455463863193  1.0000
  H   H20       1.0  0.8171289843271553  0.30760481556608704  0.0328435628755557  1.0000
  H   H21       1.0  0.34903408593593344  0.40764371336815935  0.5893528039524724  1.0000
  H   H22       1.0  0.15096531761007265  0.5923567027924219  0.08935224284792298  1.0000
  H   H23       1.0  0.650970591037826  0.5923583487236213  0.4106470825518684  1.0000
  H   H24       1.0  0.8490317670582641  0.40764146235514415  0.910647643671126  1.0000
  H   H25       1.0  0.4469856661935907  0.22191012424176643  0.5666016959957147  1.0000
  H   H26       1.0  0.05301244504796899  0.7780890312857665  0.06659983546445149  1.0000
  H   H27       1.0  0.5530186631245186  0.7780880911364745  0.43339984002432885  1.0000
  H   H28       1.0  0.9469831906983117  0.22190912381658018  0.9333984015425542  1.0000
  C   C1        1.0  0.9626165117541846  0.2607926693442835  0.5681298114644875  1.0000
  C   C2        1.0  0.5373812552636608  0.7392075579452992  0.0681288400904521  1.0000
  C   C3        1.0  0.037383702536928395  0.7392080803703678  0.4318708998058369  1.0000
  C   C4        1.0  0.46261594528660044  0.26079188943973713  0.9318710464282913  1.0000
  C   C5        1.0  0.9161760973669572  0.2642522601596794  0.4458645635294189  1.0000
  C   C6        1.0  0.5838285050204136  0.7357449575456414  0.9458636200003595  1.0000
  C   C7        1.0  0.08382191435677559  0.7357561628876182  0.5541353229872213  1.0000
  C   C8        1.0  0.4161728105716663  0.26425195550469743  0.05413461699590269  1.0000
  C   C9        1.0  0.1518194496507945  0.1860106081132429  0.5951083506144456  1.0000
  C   C10       1.0  0.34817553815708635  0.8139897699008997  0.0951086600012729  1.0000
  C   C11       1.0  0.8481823294591065  0.8139914338858102  0.4048915358954162  1.0000
  C   C12       1.0  0.6518203293481121  0.18601094967581125  0.9048904017625359  1.0000
  N   N1        1.0  0.32722770555587033  0.2893891774676405  0.5516985537046821  1.0000
  N   N2        1.0  0.17277081595477028  0.7106125632674248  0.0516962452727157  1.0000
  N   N3        1.0  0.6727768555310336  0.7106116023861017  0.44830215755736447  1.0000
  N   N4        1.0  0.8272263846004292  0.28938688411817987  0.9483028164886276  1.0000
  Cl  Cl1       1.0  0.8550199623580425  0.47592109068668964  0.19611740390773486  1.0000
  Cl  Cl2       1.0  0.6449790536750297  0.5240776964107708  0.6961154289747282  1.0000
  Cl  Cl3       1.0  0.14498013606101517  0.5240783767916425  0.8038816578480946  1.0000
  Cl  Cl4       1.0  0.3550193640433079  0.4759191965456963  0.30388445754186216  1.0000
  Cl  Cl5       1.0  0.9581220809244826  0.030477837458327894  0.15666331542006867  1.0000
  Cl  Cl6       1.0  0.5418788565805029  0.9695210145689471  0.6566649768793907  1.0000
  Cl  Cl7       1.0  0.04187645267084859  0.9695203377350339  0.8433373958536164  1.0000
  Cl  Cl8       1.0  0.458122574873748  0.030477180716559398  0.3433365591461737  1.0000
  O   O1        1.0  0.04521174312009179  0.21459846708918914  0.38158545880427397  1.0000
  O   O2        1.0  0.45477778507477506  0.7853950911640765  0.8815839204240916  1.0000
  O   O3        1.0  0.9547854574301694  0.7854009802958469  0.6184144277144766  1.0000
  O   O4        1.0  0.5452248635574294  0.2146005496940119  0.11841596608451968  1.0000
  O   O5        1.0  0.7510848273352552  0.3137370523235602  0.41845406273344565  1.0000
  O   O6        1.0  0.7489076423975333  0.6862665242851234  0.9184508468419491  1.0000
  O   O7        1.0  0.24892042903331194  0.6862714209538366  0.5815482980415964  1.0000
  O   O8        1.0  0.2510921083658744  0.313729096479669  0.0815498644295829  1.0000
