data_image0
_chemical_formula_structural       Ag4P4H24C32N8O18
_chemical_formula_sum              "Ag4 P4 H24 C32 N8 O18"
_cell_length_a       7.734095599180516
_cell_length_b       10.12036637904946
_cell_length_c       13.904596954018317
_cell_angle_alpha    107.1371907269871
_cell_angle_beta     97.98149022510458
_cell_angle_gamma    106.32944015653202

_space_group_name_H-M_alt    "P 1"
_space_group_IT_number       1

loop_
  _space_group_symop_operation_xyz
  'x, y, z'

loop_
  _atom_site_type_symbol
  _atom_site_label
  _atom_site_symmetry_multiplicity
  _atom_site_fract_x
  _atom_site_fract_y
  _atom_site_fract_z
  _atom_site_occupancy
  Ag  Ag1       1.0  0.8279820511500516  0.5791982702205443  0.549486500706422  1.0000
  Ag  Ag2       1.0  0.17202481283612062  0.42080177269309627  0.4505090577441422  1.0000
  Ag  Ag3       1.0  0.4549737129553435  0.0791713888315186  0.09806771977326181  1.0000
  Ag  Ag4       1.0  0.5450291207852869  0.9208343329320666  0.9019358928132916  1.0000
  P   P1        1.0  0.08327477396795045  0.21422592990531084  0.1157235769854168  1.0000
  P   P2        1.0  0.9167260947575855  0.7857721170876104  0.8842790412670568  1.0000
  P   P3        1.0  0.6971897753107542  0.23762876624902426  0.3474153807465967  1.0000
  P   P4        1.0  0.30280624991435445  0.7623670940713793  0.6525871507179843  1.0000
  H   H1        1.0  0.29681217240271  0.006397426783095699  0.2367552481173263  1.0000
  H   H2        1.0  0.7031896664640698  0.9936028578028128  0.763249337842936  1.0000
  H   H3        1.0  0.09811307957943421  0.5373663954976563  0.1790780569273522  1.0000
  H   H4        1.0  0.9018860222039747  0.4626337299482444  0.8209205389611895  1.0000
  H   H5        1.0  0.9843727539096391  0.5848125802910856  0.33975281411728286  1.0000
  H   H6        1.0  0.015618288455520667  0.41518091957853187  0.6602431109429219  1.0000
  H   H7        1.0  0.023137488172927906  0.8400398760837644  0.4483198171718854  1.0000
  H   H8        1.0  0.9768496653486594  0.1599536553976293  0.5516772644063934  1.0000
  H   H9        1.0  0.46939680354895313  0.6143757658824922  0.7971437819038768  1.0000
  H   H10       1.0  0.5306094741816311  0.3856320243662026  0.20285547363103973  1.0000
  H   H11       1.0  0.36793783079505726  0.1461177450562658  0.682575252268812  1.0000
  H   H12       1.0  0.6320696916020837  0.8538899702928404  0.31742120308729943  1.0000
  H   H13       1.0  0.22264755190862212  0.12226828042138035  0.8270311773647521  1.0000
  H   H14       1.0  0.777351559123005  0.8777350253005166  0.17296375304044892  1.0000
  H   H15       1.0  0.2060129955250005  0.34040667017656995  0.959736098798537  1.0000
  H   H16       1.0  0.7939870237103007  0.6595987959035199  0.040257901707128986  1.0000
  H   H17       1.0  0.8727624619160607  0.9908446165720474  0.056260626818122654  1.0000
  H   H18       1.0  0.12723843777826  0.009153469038260196  0.9437434402380092  1.0000
  H   H19       1.0  0.31250973600489823  0.2544489278732129  0.2514271390703371  1.0000
  H   H20       1.0  0.6874894741692471  0.7455513327335835  0.7485765276310303  1.0000
  H   H21       1.0  0.8229407006757086  0.11816725975567272  0.22747629895937396  1.0000
  H   H22       1.0  0.17706027020440013  0.8818340833654259  0.7725270002207623  1.0000
  H   H23       1.0  0.6203007329898752  0.24893653230606108  0.49188044535866043  1.0000
  H   H24       1.0  0.3796982883595275  0.7510571553530737  0.5081225838892252  1.0000
  C   C1        1.0  0.1770461350384096  0.08469750680666269  0.4043797908163  1.0000
  C   C2        1.0  0.8229494206004729  0.915297254025951  0.595622481196223  1.0000
  C   C3        1.0  0.16002455510941616  0.9379653608476914  0.3475286698056055  1.0000
  C   C4        1.0  0.8399753589592791  0.0620304678609358  0.6524727051409017  1.0000
  C   C5        1.0  0.2268836787134703  0.9133192342064335  0.25773913036272234  1.0000
  C   C6        1.0  0.7731127386759128  0.0866776290582791  0.7422600385447639  1.0000
  C   C7        1.0  0.2051930241532317  0.7693952756780218  0.1976019992802236  1.0000
  C   C8        1.0  0.7948033777517624  0.2306015682779901  0.8023964452254333  1.0000
  C   C9        1.0  0.11751806370597956  0.6505504839937685  0.22706898920469604  1.0000
  C   C10       1.0  0.8824783536834032  0.34944637927093675  0.7729301797027901  1.0000
  C   C11       1.0  0.053359676306229134  0.6773001446573871  0.317417434012512  1.0000
  C   C12       1.0  0.9466300594548184  0.3226933528770174  0.6825783936191598  1.0000
  C   C13       1.0  0.07355879177013233  0.8199117022927779  0.3780720464312637  1.0000
  C   C14       1.0  0.9264313423913534  0.18007963721863968  0.6219248085284761  1.0000
  C   C15       1.0  0.274035350044727  0.7445302741424485  0.10461759319025532  1.0000
  C   C16       1.0  0.725966896470716  0.2554710326964553  0.8953843546147412  1.0000
  C   C17       1.0  0.332880777314891  0.621620876721785  0.9652966135761717  1.0000
  C   C18       1.0  0.6671213917785933  0.3783803335736238  0.03470171221965759  1.0000
  C   C19       1.0  0.3400773786838868  0.4924533502400975  0.8879160367759484  1.0000
  C   C20       1.0  0.6599293439003232  0.5075523399117046  0.11208641929253103  1.0000
  C   C21       1.0  0.4202004260349455  0.5080251669736385  0.8060217695985941  1.0000
  C   C22       1.0  0.5798086135116237  0.491985981999747  0.1939805349265384  1.0000
  C   C23       1.0  0.4320508368916691  0.38362438487821743  0.7328360773444373  1.0000
  C   C24       1.0  0.5679554563233111  0.6163834246791707  0.2671639025923085  1.0000
  C   C25       1.0  0.36017349713484487  0.24325184095682317  0.7397539826566515  1.0000
  C   C26       1.0  0.6398332501819721  0.7567570487796614  0.26024553233032316  1.0000
  C   C27       1.0  0.2793271200048721  0.23010920641279847  0.8214858836930574  1.0000
  C   C28       1.0  0.7206773195977974  0.7698974047780993  0.1785101173539303  1.0000
  C   C29       1.0  0.2693725923086134  0.3529368877707668  0.8960100719576902  1.0000
  C   C30       1.0  0.7306252430876726  0.6470664542333181  0.10398620982265068  1.0000
  C   C31       1.0  0.5218455323312766  0.4019266339380394  0.6528128294351987  1.0000
  C   C32       1.0  0.47815880511682696  0.5980766811246735  0.3471824906841263  1.0000
  N   N1        1.0  0.3614650211832141  0.8398269022957265  0.06542986281149875  1.0000
  N   N2        1.0  0.6385390479757547  0.16017556429227403  0.9345746150795906  1.0000
  N   N3        1.0  0.3979412621711234  0.7609335778501318  0.9756254239488201  1.0000
  N   N4        1.0  0.6020633013066784  0.23907318781034803  0.024376372312829603  1.0000
  N   N5        1.0  0.5996148822900833  0.4170514749575531  0.588358381540104  1.0000
  N   N6        1.0  0.4003855508300517  0.582951852408243  0.4116373706954661  1.0000
  N   N7        1.0  0.18952917025902136  0.20619301165668696  0.44738189498581704  1.0000
  N   N8        1.0  0.8104628484835529  0.7937995648386219  0.5526203876673463  1.0000
  O   O1        1.0  0.2544860238479316  0.6055217705390064  0.045012668513244626  1.0000
  O   O2        1.0  0.7455179059515088  0.3944805222707046  0.9549852897613536  1.0000
  O   O3        1.0  0.18941852205250598  0.14095274374917474  0.04438020547849671  1.0000
  O   O4        1.0  0.8105818925711927  0.8590442230646431  0.955622877723741  1.0000
  O   O5        1.0  0.9111635358347953  0.0836878989514247  0.12217785819048285  1.0000
  O   O6        1.0  0.08884213617417192  0.91630911582061  0.8778270635295443  1.0000
  O   O7        1.0  0.019312998558078158  0.32779174484686985  0.0889975089189932  1.0000
  O   O8        1.0  0.9806833476455167  0.6722018609070588  0.9110024278644957  1.0000
  O   O9        1.0  0.20406798135662993  0.2851849364021886  0.2336995129382657  1.0000
  O   O10       1.0  0.7959325044528568  0.7148152879224128  0.7663028023879691  1.0000
  O   O11       1.0  0.522908322688579  0.23276377053586114  0.27776195995338065  1.0000
  O   O12       1.0  0.47708997928189223  0.7672343297127425  0.7222426366475219  1.0000
  O   O13       1.0  0.7742365028541085  0.11368104097764588  0.2901163860978285  1.0000
  O   O14       1.0  0.22576090016090689  0.886318079188747  0.7098854749192826  1.0000
  O   O15       1.0  0.6406697403165963  0.17313475551695487  0.4357063398254368  1.0000
  O   O16       1.0  0.35933151132499563  0.8268611141442718  0.5642965813532754  1.0000
  O   O17       1.0  0.8480580793196636  0.3889467464148452  0.3952842648060368  1.0000
  O   O18       1.0  0.1519405281449052  0.611049079958576  0.6047170127119373  1.0000
