data_image0
_chemical_formula_structural       Gd4H24C28O36
_chemical_formula_sum              "Gd4 H24 C28 O36"
_cell_length_a       7.41224010464802
_cell_length_b       9.43369573500443
_cell_length_c       14.613234074203996
_cell_angle_alpha    90.00008566299071
_cell_angle_beta     102.73073748117669
_cell_angle_gamma    90.00004826457882

_space_group_name_H-M_alt    "P 1"
_space_group_IT_number       1

loop_
  _space_group_symop_operation_xyz
  'x, y, z'

loop_
  _atom_site_type_symbol
  _atom_site_label
  _atom_site_symmetry_multiplicity
  _atom_site_fract_x
  _atom_site_fract_y
  _atom_site_fract_z
  _atom_site_occupancy
  Gd  Gd1       1.0  0.6207785008001565  0.44722935745468106  0.35361546949960143  1.0000
  Gd  Gd2       1.0  0.8792227949020486  0.9472315121275157  0.1463844286618183  1.0000
  Gd  Gd3       1.0  0.37922778332139734  0.5527715417800819  0.6463923288798556  1.0000
  Gd  Gd4       1.0  0.1207743664285701  0.052767267026794684  0.853608792762522  1.0000
  H   H1        1.0  0.7219905668541527  0.9612350773385568  0.6356756079594705  1.0000
  H   H2        1.0  0.7780104831078276  0.46124999149892437  0.8643236033657263  1.0000
  H   H3        1.0  0.2780044089136524  0.0387637018268876  0.3643269861895106  1.0000
  H   H4        1.0  0.2219954699152638  0.5387636280882616  0.1356786859718966  1.0000
  H   H5        1.0  0.8318193940780745  0.193339764397976  0.5500621464020555  1.0000
  H   H6        1.0  0.6681879683463946  0.6933510471314577  0.9499353775433337  1.0000
  H   H7        1.0  0.168172444184485  0.8066568946986905  0.4499339819552333  1.0000
  H   H8        1.0  0.33183465748251717  0.3066615124338341  0.050069897720021614  1.0000
  H   H9        1.0  0.19938105391055663  0.4463599421780059  0.2884285227779345  1.0000
  H   H10       1.0  0.3006096645143046  0.9463781191368027  0.2115732117582354  1.0000
  H   H11       1.0  0.8006244438309693  0.5536473172199193  0.7115661916141819  1.0000
  H   H12       1.0  0.699388034882851  0.0536355004480882  0.7884289618784168  1.0000
  H   H13       1.0  0.2675884650481493  0.5575858201384064  0.3668971010603884  1.0000
  H   H14       1.0  0.23241200195280953  0.05759589357494828  0.1330949530389134  1.0000
  H   H15       1.0  0.7324202529647648  0.442410838970666  0.6331054563786864  1.0000
  H   H16       1.0  0.7675822702105249  0.9424071256954959  0.8668959343837699  1.0000
  H   H17       1.0  0.5295377766908089  0.2181259207481929  0.1930000125730444  1.0000
  H   H18       1.0  0.9704755959498214  0.7181274635200835  0.3070015312036817  1.0000
  H   H19       1.0  0.47046402881365884  0.7818749784780364  0.8070018745916203  1.0000
  H   H20       1.0  0.029532956513861605  0.28187555576519696  0.6929982717144726  1.0000
  H   H21       1.0  0.37590653181874245  0.20321450862960688  0.24834345948380596  1.0000
  H   H22       1.0  0.12408858107994548  0.703218913549641  0.2516468397311372  1.0000
  H   H23       1.0  0.6240794039374505  0.7967842705170155  0.7516459349734106  1.0000
  H   H24       1.0  0.8759244913857883  0.2967798656252468  0.7483595630305973  1.0000
  C   C1        1.0  0.6012107191753272  0.7286738438974113  0.4980045892156256  1.0000
  C   C2        1.0  0.8987774974436888  0.2286826165613292  0.0019897326388048186  1.0000
  C   C3        1.0  0.39878848687536816  0.27132281521145524  0.5019997843604216  1.0000
  C   C4        1.0  0.1012142166583629  0.771320402712412  0.9980043298286605  1.0000
  C   C5        1.0  0.6878309866030675  0.8680444806400301  0.49539519525714587  1.0000
  C   C6        1.0  0.8121478828420903  0.36804473459989845  0.00459971725415897  1.0000
  C   C7        1.0  0.3121656200013873  0.1319564185910522  0.5046116647349024  1.0000
  C   C8        1.0  0.1878412318080649  0.631956164616376  0.9953968316258468  1.0000
  C   C9        1.0  0.7315140748096097  0.9717070251439  0.5631142449148926  1.0000
  C   C10       1.0  0.7684674731560506  0.4717115150970698  0.9368803465103073  1.0000
  C   C11       1.0  0.2684723990037057  0.02829599413382771  0.4368841017488663  1.0000
  C   C12       1.0  0.23153148457080158  0.5282946842761049  0.0631198952843661  1.0000
  C   C13       1.0  0.7899562186211924  0.09117932856685229  0.5190261265663736  1.0000
  C   C14       1.0  0.7100386439674794  0.5911843502917263  0.9809721455092132  1.0000
  C   C15       1.0  0.21003700214475174  0.9088183905602846  0.4809701358468389  1.0000
  C   C16       1.0  0.2899687329383056  0.4088197290273213  0.01903096650964641  1.0000
  C   C17       1.0  0.781691621759819  0.05327996097182819  0.4270726578270256  1.0000
  C   C18       1.0  0.7182868127175864  0.5532839688651167  0.07292397777370502  1.0000
  C   C19       1.0  0.2182920870382503  0.9467113979754201  0.5729254207196988  1.0000
  C   C20       1.0  0.2817136102834965  0.4467158703306425  0.9270777753350361  1.0000
  C   C21       1.0  0.8299957176266729  0.1313871221320042  0.34846045556929545  1.0000
  C   C22       1.0  0.6699938328380738  0.6313891810335761  0.15153596027641925  1.0000
  C   C23       1.0  0.16999339701500557  0.8686042368147397  0.6515360933055165  1.0000
  C   C24       1.0  0.3300094793302861  0.36860641804604194  0.8484681268339858  1.0000
  C   C25       1.0  0.9634324080867173  0.46158990335519684  0.5389714508485285  1.0000
  C   C26       1.0  0.5365614402615222  0.9615926651793885  0.9610222701621113  1.0000
  C   C27       1.0  0.03658297410515839  0.5384056957213373  0.4610276450801152  1.0000
  C   C28       1.0  0.46343588662303853  0.0384050539484591  0.038973705786034415  1.0000
  O   O1        1.0  0.7929289811623262  0.4307525058339649  0.5213054068756265  1.0000
  O   O2        1.0  0.707081692153146  0.9307501001251097  0.9786947096293802  1.0000
  O   O3        1.0  0.2070964510507736  0.5692494534337699  0.4787008251237382  1.0000
  O   O4        1.0  0.29291559334362915  0.06924867903180851  0.021300577688251103  1.0000
  O   O5        1.0  0.5636361870323726  0.6549656189884627  0.4236620021249494  1.0000
  O   O6        1.0  0.9363686956231375  0.15497035654399835  0.0763372912722176  1.0000
  O   O7        1.0  0.4363663634615235  0.3450268000138336  0.5763522803948007  1.0000
  O   O8        1.0  0.0636408254529712  0.8450294826432624  0.9236557593886021  1.0000
  O   O9        1.0  0.28127190261428575  0.5282091339616457  0.3029490270652532  1.0000
  O   O10       1.0  0.21872453025812177  0.0282278400918869  0.197045347403332  1.0000
  O   O11       1.0  0.7187367740183814  0.47179706541608357  0.6970528417479187  1.0000
  O   O12       1.0  0.7812699074666867  0.9717825993916804  0.8029482945477684  1.0000
  O   O13       1.0  0.5669027254833026  0.693458678246479  0.5766868717661637  1.0000
  O   O14       1.0  0.9330910604571301  0.19346639990143188  0.9233134435399252  1.0000
  O   O15       1.0  0.4330969358489655  0.30654434105164086  0.4233250767553899  1.0000
  O   O16       1.0  0.06690073642518259  0.8065397994638985  0.07668199619146072  1.0000
  O   O17       1.0  0.46607283131697125  0.2717412111104096  0.2347577211452858  1.0000
  O   O18       1.0  0.03393404277471031  0.7717487832199694  0.26524336598097886  1.0000
  O   O19       1.0  0.5339247439008403  0.728257568052605  0.7652423865900035  1.0000
  O   O20       1.0  0.9660730030194314  0.22825317603222564  0.7347542369879678  1.0000
  O   O21       1.0  0.7210503324606776  0.9160192205570467  0.411954694413872  1.0000
  O   O22       1.0  0.7789134560634635  0.4160154253369868  0.088039484366206  1.0000
  O   O23       1.0  0.2789391132898231  0.08397107836670159  0.5880473635091192  1.0000
  O   O24       1.0  0.22106468133705454  0.5839769936372294  0.9119573693286258  1.0000
  O   O25       1.0  0.8369066085616906  0.2662091603205852  0.35438439393946913  1.0000
  O   O26       1.0  0.6630914764120347  0.7662122608865473  0.1456129730717777  1.0000
  O   O27       1.0  0.1630882016465307  0.7337843186916402  0.6456154456822535  1.0000
  O   O28       1.0  0.33690605741988117  0.23378969836544178  0.8543864460341483  1.0000
  O   O29       1.0  0.8631209913595368  0.060393660170383584  0.28044754074863226  1.0000
  O   O30       1.0  0.636878110515788  0.5604001116955004  0.21954973616882975  1.0000
  O   O31       1.0  0.1368791833035772  0.9395998188404631  0.7195500805700804  1.0000
  O   O32       1.0  0.36312243665334165  0.4396018475627626  0.7804540828343535  1.0000
  O   O33       1.0  0.07834437054845012  0.4353243463875599  0.6150048984818142  1.0000
  O   O34       1.0  0.4216569934857688  0.9353313585691581  0.8849951284824018  1.0000
  O   O35       1.0  0.9216794308129436  0.5646585323353576  0.3849970676652462  1.0000
  O   O36       1.0  0.578337609782622  0.0646663605585047  0.11500126798615183  1.0000
