data_image0
_chemical_formula_structural       Gd6H26C20S4O26
_chemical_formula_sum              "Gd6 H26 C20 S4 O26"
_cell_length_a       7.296044210283632
_cell_length_b       9.304551400483552
_cell_length_c       14.387051496062016
_cell_angle_alpha    76.52756805073312
_cell_angle_beta     76.75401930839676
_cell_angle_gamma    79.18538308702553

_space_group_name_H-M_alt    "P 1"
_space_group_IT_number       1

loop_
  _space_group_symop_operation_xyz
  'x, y, z'

loop_
  _atom_site_type_symbol
  _atom_site_label
  _atom_site_symmetry_multiplicity
  _atom_site_fract_x
  _atom_site_fract_y
  _atom_site_fract_z
  _atom_site_occupancy
  Gd  Gd1       1.0  0.557520211823217  0.14742780500424146  0.058372481807985856  1.0000
  Gd  Gd2       1.0  0.4424777029048883  0.852571100804482  0.941629172197992  1.0000
  Gd  Gd3       1.0  0.2322048936857755  0.4863547425029465  0.05020666877167201  1.0000
  Gd  Gd4       1.0  0.7677968259649859  0.5136464211097121  0.9497928200379704  1.0000
  Gd  Gd5       1.0  0.0720646977287984  0.14646441691486692  0.05717741115931572  1.0000
  Gd  Gd6       1.0  0.9279348292890715  0.8535333829782842  0.9428235227275438  1.0000
  H   H1        1.0  0.5497339818414986  0.395948635822414  0.14663360833232283  1.0000
  H   H2        1.0  0.45026451143280616  0.6040547461350411  0.8533666248853751  1.0000
  H   H3        1.0  0.8651866556643739  0.3929158579664005  0.1471006708545701  1.0000
  H   H4        1.0  0.1348094346344837  0.6070852897117331  0.8528994756461188  1.0000
  H   H5        1.0  0.8847046724619432  0.2215987228982995  0.8988513565218598  1.0000
  H   H6        1.0  0.11529464780721814  0.7784001934077123  0.1011494372311645  1.0000
  H   H7        1.0  0.16332457778301557  0.08896868848871965  0.8552291517424069  1.0000
  H   H8        1.0  0.8366703137235023  0.9110313322792575  0.14477199514507083  1.0000
  H   H9        1.0  0.346516748529183  0.8909634357423355  0.14008929072745252  1.0000
  H   H10       1.0  0.6534823649912553  0.1090365969765372  0.8599113628917368  1.0000
  H   H11       1.0  0.22047997134196606  0.21596104726642548  0.21378545707057137  1.0000
  H   H12       1.0  0.7795187268841276  0.7840412247918279  0.7862142204507665  1.0000
  H   H13       1.0  0.36998317680284754  0.30069906477282865  0.8936046439202913  1.0000
  H   H14       1.0  0.630011917858532  0.6992998526096059  0.10639525144063101  1.0000
  H   H15       1.0  0.984548894994461  0.9584544804489565  0.36722696177649544  1.0000
  H   H16       1.0  0.015452033970611002  0.04154334296881499  0.6327717201970273  1.0000
  H   H17       1.0  0.9599640290583905  0.7929196049296434  0.531869581969744  1.0000
  H   H18       1.0  0.04003810948056239  0.20707930631630936  0.4681322745981404  1.0000
  H   H19       1.0  0.6490195837503377  0.7792259414555998  0.6424225014467739  1.0000
  H   H20       1.0  0.35097609305108796  0.22077743904824831  0.35757736478625907  1.0000
  H   H21       1.0  0.409538302686464  0.6867862000917027  0.3845223750232096  1.0000
  H   H22       1.0  0.5904662244525483  0.3132149975428644  0.6154740016201361  1.0000
  H   H23       1.0  0.38257622480086445  0.6258014875584689  0.5658345193864848  1.0000
  H   H24       1.0  0.6174248746037492  0.3742030252927717  0.4341645490216663  1.0000
  H   H25       1.0  0.12400102003717713  0.49611012514954916  0.6708471234919033  1.0000
  H   H26       1.0  0.8759981024678892  0.5038898750010077  0.329157009278248  1.0000
  C   C1        1.0  0.6893750266884737  0.048189932919662185  0.39081053420389383  1.0000
  C   C2        1.0  0.31062429358068044  0.9518089833863497  0.6091902595491308  1.0000
  C   C3        1.0  0.8491447056141652  0.9586663617212565  0.4182351040141442  1.0000
  C   C4        1.0  0.15085722258222498  0.04133367896488239  0.5817652207595219  1.0000
  C   C5        1.0  0.8335852427045866  0.8637715795170704  0.510677390440634  1.0000
  C   C6        1.0  0.16641688864667262  0.13622735778353245  0.4893216828064767  1.0000
  C   C7        1.0  0.6597347545139769  0.8577079629609796  0.5728910159970512  1.0000
  C   C8        1.0  0.34026477070696604  0.14228984344583032  0.42710922205961327  1.0000
  C   C9        1.0  0.5065600523764999  0.0496131580057337  0.4532807778893401  1.0000
  C   C10       1.0  0.49343707705669004  0.9503823880671118  0.5467221567710895  1.0000
  C   C11       1.0  0.1618679242931124  0.5917509829421161  0.38949211988686744  1.0000
  C   C12       1.0  0.8381368149853828  0.40824907873860633  0.6105064843808921  1.0000
  C   C13       1.0  0.29406850071761437  0.6296648200110365  0.4312210910460906  1.0000
  C   C14       1.0  0.7059323955321374  0.37034079622574007  0.5687792288886088  1.0000
  C   C15       1.0  0.2790832842590519  0.5944512595976831  0.5332132064493251  1.0000
  C   C16       1.0  0.7209126010880098  0.4055509979796452  0.466787495747724  1.0000
  C   C17       1.0  0.13348098825195362  0.5215660706347973  0.5923242778344787  1.0000
  C   C18       1.0  0.8665163062300109  0.4784361844125015  0.4076769557700077  1.0000
  C   C19       1.0  0.006229209464635235  0.5181397043570185  0.4478063485770819  1.0000
  C   C20       1.0  0.9937743274276726  0.4818592434408798  0.5521918644170826  1.0000
  S   S1        1.0  0.712452782683485  0.15341235601903944  0.2706243843070625  1.0000
  S   S2        1.0  0.2875463290400333  0.8465876832134922  0.7293755734819387  1.0000
  S   S3        1.0  0.19016449088367451  0.6465840233118312  0.25975167442290115  1.0000
  S   S4        1.0  0.8098420692302284  0.35341380952679907  0.7402470456897633  1.0000
  O   O1        1.0  0.5807206555473671  0.09863754363041717  0.22656713978651774  1.0000
  O   O2        1.0  0.41927825122436274  0.9013636055013161  0.7734333736988434  1.0000
  O   O3        1.0  0.9131094222736423  0.11485991329899287  0.22432895901254574  1.0000
  O   O4        1.0  0.08689109678785208  0.8851401299171753  0.7756708343536902  1.0000
  O   O5        1.0  0.6619143051237161  0.31333494759086006  0.2714664891969393  1.0000
  O   O6        1.0  0.3380850151454453  0.6866639687151516  0.7285343045560853  1.0000
  O   O7        1.0  0.1940807150649136  0.5098295445798442  0.221916740270558  1.0000
  O   O8        1.0  0.8059230321699572  0.49016827377786126  0.778083004517818  1.0000
  O   O9        1.0  0.371567442264123  0.7075102577311224  0.22539414880078115  1.0000
  O   O10       1.0  0.6284355232696867  0.29248418786338687  0.7746082683024301  1.0000
  O   O11       1.0  0.02515584138661352  0.758607856502209  0.23935041387244382  1.0000
  O   O12       1.0  0.9748526938299095  0.24139449555076437  0.7606425460480255  1.0000
  O   O13       1.0  0.5447133359247045  0.4011085131245621  0.07855389710109516  1.0000
  O   O14       1.0  0.4552853640983089  0.5988937524200322  0.921446476250438  1.0000
  O   O15       1.0  0.9365826204279274  0.4051806382404947  0.08014901002402308  1.0000
  O   O16       1.0  0.06341930776846284  0.5948194024456438  0.919851314749643  1.0000
  O   O17       1.0  0.8370132265335852  0.2559200541281399  0.9606629721230748  1.0000
  O   O18       1.0  0.16298369076012162  0.7440766278985433  0.03933773491294802  1.0000
  O   O19       1.0  0.1567416445449865  0.02587728059562979  0.9201009676528076  1.0000
  O   O20       1.0  0.8432590848590706  0.9741216331803525  0.07990035750764696  1.0000
  O   O21       1.0  0.35132189997770524  0.966561760211327  0.07913444149924233  1.0000
  O   O22       1.0  0.6486770085909512  0.0334393824067405  0.9208667678163069  1.0000
  O   O23       1.0  0.2527836224022053  0.23323275031556526  0.14331802296383245  1.0000
  O   O24       1.0  0.7472150758238881  0.7667695217426881  0.8566816545575053  1.0000
  O   O25       1.0  0.3238226655214688  0.28269638645180345  0.9639222885271367  1.0000
  O   O26       1.0  0.6761750388640737  0.7173036487970986  0.03607783368462242  1.0000
