data_image0
_chemical_formula_structural       Cd2H28C16O12
_chemical_formula_sum              "Cd2 H28 C16 O12"
_cell_length_a       5.3578108241477915
_cell_length_b       6.531302591794103
_cell_length_c       16.175721050036024
_cell_angle_alpha    79.2807598524856
_cell_angle_beta     80.45442565203595
_cell_angle_gamma    65.76657989991146

_space_group_name_H-M_alt    "P 1"
_space_group_IT_number       1

loop_
  _space_group_symop_operation_xyz
  'x, y, z'

loop_
  _atom_site_type_symbol
  _atom_site_label
  _atom_site_symmetry_multiplicity
  _atom_site_fract_x
  _atom_site_fract_y
  _atom_site_fract_z
  _atom_site_occupancy
  Cd  Cd1       1.0  0.43118728708719106  0.25014989171170743  0.7499394237308651  1.0000
  Cd  Cd2       1.0  0.5687458485333823  0.7498738766809651  0.2500495586932132  1.0000
  H   H1        1.0  0.8776856920881357  0.050715180044726096  0.620218578117921  1.0000
  H   H2        1.0  0.5485572107057807  0.44905216348118426  0.8798366550364634  1.0000
  H   H3        1.0  0.12230005657245598  0.9493271340371622  0.37977243678165  1.0000
  H   H4        1.0  0.4514396702854382  0.5509476197822635  0.1201636082722572  1.0000
  H   H5        1.0  0.16424000924045848  0.23262116954406054  0.4620590092908331  1.0000
  H   H6        1.0  0.8592997464871602  0.26773194247005694  0.0378671474765753  1.0000
  H   H7        1.0  0.8357383349870844  0.7673940118225385  0.5379346833183761  1.0000
  H   H8        1.0  0.14067066543518056  0.7322829773300157  0.9621365548823564  1.0000
  H   H9        1.0  0.8715358410123315  0.3969096040583082  0.5239245054181296  1.0000
  H   H10       1.0  0.7928900676716638  0.10311779628715095  0.9760808708798906  1.0000
  H   H11       1.0  0.12849927253802934  0.6031004244779011  0.4760718840707412  1.0000
  H   H12       1.0  0.20711270364272868  0.8968869854506492  0.02392225572926782  1.0000
  H   H13       1.0  0.25093449386997685  0.6784603995488608  0.6049495683663509  1.0000
  H   H14       1.0  0.5337194404289816  0.8215317861152015  0.8949909970892024  1.0000
  H   H15       1.0  0.7490973143815864  0.3215274976870646  0.39505225928159154  1.0000
  H   H16       1.0  0.46627142731085774  0.17846793837309594  0.1050115372421629  1.0000
  H   H17       1.0  0.40252625684376403  0.7929424534322819  0.5129406204944331  1.0000
  H   H18       1.0  0.7082524912042627  0.7072596999294092  0.9869235095458322  1.0000
  H   H19       1.0  0.5975062740281556  0.20705388677549055  0.48706175067049884  1.0000
  H   H20       1.0  0.2917128710067303  0.2927485792377311  0.013075445961582902  1.0000
  H   H21       1.0  0.8251890338023387  0.43604788015375123  0.6789020010308634  1.0000
  H   H22       1.0  0.9401185653125947  0.06390537470109339  0.8210889492288376  1.0000
  H   H23       1.0  0.1748443966771517  0.5639417753302212  0.321097273048956  1.0000
  H   H24       1.0  0.0598890155370313  0.9361333817154716  0.1789086127212087  1.0000
  H   H25       1.0  0.546002881104286  0.6623870579187852  0.6893375737356919  1.0000
  H   H26       1.0  0.8973505401705992  0.8378491845940916  0.810609009555165  1.0000
  H   H27       1.0  0.45397975146410363  0.33759746687525893  0.31066410734636923  1.0000
  H   H28       1.0  0.1026203356914408  0.16213876119119416  0.1893912815527301  1.0000
  C   C1        1.0  0.232483899057627  0.09531835373438469  0.6337567843663691  1.0000
  C   C2        1.0  0.9613606662680785  0.40480019062626127  0.8661652538481591  1.0000
  C   C3        1.0  0.7675700780626471  0.9047046327663466  0.3662613754477705  1.0000
  C   C4        1.0  0.03867721238339785  0.595159065450197  0.1338322067318813  1.0000
  C   C5        1.0  0.06575364163672497  0.0455283804871769  0.5785938988103041  1.0000
  C   C6        1.0  0.689773507702924  0.4545364870964689  0.9213763843256331  1.0000
  C   C7        1.0  0.9342606264610465  0.9544797325802963  0.42141113528243324  1.0000
  C   C8        1.0  0.3102202517606401  0.5454548399716684  0.07862385179625163  1.0000
  C   C9        1.0  0.9783535678628111  0.22999032367282976  0.5025646922546231  1.0000
  C   C10       1.0  0.7112909207717455  0.2700646978226828  0.9974184905712562  1.0000
  C   C11       1.0  0.02161337054332072  0.770016535231875  0.4974239189424452  1.0000
  C   C12       1.0  0.2887031914239486  0.7299385431617225  0.002578936623862704  1.0000
  C   C13       1.0  0.20455896518337352  0.8103544445277747  0.5501883084954572  1.0000
  C   C14       1.0  0.564835050305895  0.6897155198666948  0.9497674705310788  1.0000
  C   C15       1.0  0.7954528782199043  0.18961658000691273  0.4498120227895015  1.0000
  C   C16       1.0  0.4351619536135232  0.31027932369755007  0.05022765845455981  1.0000
  O   O1        1.0  0.15378216888877455  0.3027934256014646  0.6472546356813283  1.0000
  O   O2        1.0  0.10367679991851027  0.1973993528020016  0.8525329746810328  1.0000
  O   O3        1.0  0.8461591889403054  0.6972537635611714  0.3527442042683121  1.0000
  O   O4        1.0  0.896330772299997  0.8025869434445527  0.14746552950159503  1.0000
  O   O5        1.0  0.4393217845626154  0.942382820179489  0.6672360627326698  1.0000
  O   O6        1.0  0.048915865135107726  0.557691882139643  0.8328266513540895  1.0000
  O   O7        1.0  0.5606832320069655  0.05758469374040939  0.3327691699864985  1.0000
  O   O8        1.0  0.9511051111999936  0.44226399999610067  0.16717055358384414  1.0000
  O   O9        1.0  0.6347229710924437  0.49585535686388477  0.708224158001542  1.0000
  O   O10       1.0  0.8384610710843391  0.004364798360008095  0.7918018385187084  1.0000
  O   O11       1.0  0.36530374745532146  0.504139214813037  0.2917811802106414  1.0000
  O   O12       1.0  0.1615457655508764  0.9956212759903946  0.20820512642318081  1.0000
