data_image0
_chemical_formula_structural       Zr6H46C88Cl10O32
_chemical_formula_sum              "Zr6 H46 C88 Cl10 O32"
_cell_length_a       19.282614516443548
_cell_length_b       19.23304262145535
_cell_length_c       19.23248278883682
_cell_angle_alpha    59.389805713178895
_cell_angle_beta     59.91570049195823
_cell_angle_gamma    59.91184207331846

_space_group_name_H-M_alt    "P 1"
_space_group_IT_number       1

loop_
  _space_group_symop_operation_xyz
  'x, y, z'

loop_
  _atom_site_type_symbol
  _atom_site_label
  _atom_site_symmetry_multiplicity
  _atom_site_fract_x
  _atom_site_fract_y
  _atom_site_fract_z
  _atom_site_occupancy
  Zr  Zr1       1.0  0.9081768954334277  0.4075883706992728  0.592347642862215  1.0000
  Zr  Zr2       1.0  0.0918821863386725  0.5932493126660888  0.4066699518242202  1.0000
  Zr  Zr3       1.0  0.09150090928483925  0.40721094783532413  0.5928078830025996  1.0000
  Zr  Zr4       1.0  0.9085145738625826  0.593677052574165  0.4063204413997921  1.0000
  Zr  Zr5       1.0  0.9085747904000456  0.5918299169210216  0.5910399152108141  1.0000
  Zr  Zr6       1.0  0.09147722711208661  0.4089035526041585  0.4081562624564866  1.0000
  H   H1        1.0  0.9277866617247456  0.42605433636165924  0.7177867910841939  1.0000
  H   H2        1.0  0.9284224877991891  0.7186748172763303  0.4250996197541921  1.0000
  H   H3        1.0  0.2164847479995018  0.42801871229755767  0.4276958315482701  1.0000
  H   H4        1.0  0.9278031467736837  0.4285403294952489  0.42718062223247694  1.0000
  H   H5        1.0  0.317693211984988  0.613418467157196  0.1786377296052705  1.0000
  H   H6        1.0  0.6794453360111135  0.3903076164327146  0.81741781868773  1.0000
  H   H7        1.0  0.6777905248145614  0.6127287884369682  0.8195120966437485  1.0000
  H   H8        1.0  0.5539726436089152  0.6077576793467544  0.9473991434742856  1.0000
  H   H9        1.0  0.31992597613147217  0.39030925543315936  0.17734139480372593  1.0000
  H   H10       1.0  0.4477872516887586  0.39110351986461483  0.05355702883539236  1.0000
  H   H11       1.0  0.11292977738234097  0.8179977780312697  0.3899910968761304  1.0000
  H   H12       1.0  0.8902720471026268  0.17920693179030409  0.6131389641156842  1.0000
  H   H13       1.0  0.11250324378044495  0.17773117424106036  0.39008534931026156  1.0000
  H   H14       1.0  0.10775697663235911  0.05375445877665901  0.3911569854071075  1.0000
  H   H15       1.0  0.890122053386001  0.819850901110087  0.6124569767177941  1.0000
  H   H16       1.0  0.8910853018178955  0.9475798687663398  0.6077917503140213  1.0000
  H   H17       1.0  0.31622265749977163  0.1804821913268171  0.38993828601997643  1.0000
  H   H18       1.0  0.6804435912870516  0.816593496065586  0.6130152474626482  1.0000
  H   H19       1.0  0.676248856363017  0.8211488133919503  0.3902031354549747  1.0000
  H   H20       1.0  0.5520042560898588  0.9486998322253583  0.3912025639252476  1.0000
  H   H21       1.0  0.320722791383062  0.17654551139155927  0.6122956650705831  1.0000
  H   H22       1.0  0.44865363342064773  0.05277467839403732  0.6075834170975368  1.0000
  H   H23       1.0  0.8898066666014585  0.613296348656398  0.8162273866534234  1.0000
  H   H24       1.0  0.11330107556733537  0.3902331881252509  0.18003802093362956  1.0000
  H   H25       1.0  0.8903614228068689  0.6125787049382795  0.17603126159990976  1.0000
  H   H26       1.0  0.890729643527223  0.6075786577323543  0.052520034356000105  1.0000
  H   H27       1.0  0.11223553047388887  0.3904593686951969  0.8206908292541185  1.0000
  H   H28       1.0  0.10784046466368859  0.3912397637353564  0.9484034084797058  1.0000
  H   H29       1.0  0.8792654604776827  0.8330792266727942  0.18798199513674493  1.0000
  H   H30       1.0  0.12328810481631797  0.8097419358207317  0.1640010137183551  1.0000
  H   H31       1.0  0.09956123486277603  0.1891721845384282  0.8320142033666186  1.0000
  H   H32       1.0  0.9031074827253393  0.16499777147642172  0.8084851783572304  1.0000
  H   H33       1.0  0.8141432740423369  0.03560268949171071  0.07362403320693998  1.0000
  H   H34       1.0  0.8187816007835521  0.9417791845069418  0.07275844638663626  1.0000
  H   H35       1.0  0.18638425473443465  0.9268161476901895  0.9642457121262281  1.0000
  H   H36       1.0  0.1808937844482514  0.927872132266842  0.05835198477679166  1.0000
  H   H37       1.0  0.07659741834600448  0.07489118895316692  0.03445110137450769  1.0000
  H   H38       1.0  0.16661593867069505  0.07395609653801229  0.9405928305628989  1.0000
  H   H39       1.0  0.9225188547645188  0.9653930647677813  0.9255544531831531  1.0000
  H   H40       1.0  0.8328922243911377  0.05954514038423035  0.9266715667566956  1.0000
  H   H41       1.0  0.3174710559801924  0.3889181971270759  0.6142296749305556  1.0000
  H   H42       1.0  0.679238871923921  0.6149023332432436  0.38826994711131124  1.0000
  H   H43       1.0  0.6771581998492664  0.38992532352579445  0.6127201918313716  1.0000
  H   H44       1.0  0.5535128703701702  0.3904661320825226  0.6085349233670883  1.0000
  H   H45       1.0  0.3203322247474035  0.6133768209407152  0.3892559994308583  1.0000
  H   H46       1.0  0.44759537573852265  0.6090242899444152  0.38995891080024586  1.0000
  C   C1        1.0  0.7644298216698643  0.5020536387100522  0.7308076560196922  1.0000
  C   C2        1.0  0.002730078452437262  0.7315009531893893  0.5014262145405154  1.0000
  C   C3        1.0  0.2309769688005687  0.5034819200521029  0.26351996161867663  1.0000
  C   C4        1.0  0.0019251531623965838  0.26426807401144703  0.5028829912432684  1.0000
  C   C5        1.0  0.001950419101071086  0.26215205896050975  0.7339427543396368  1.0000
  C   C6        1.0  0.7644086602348992  0.5034871408762457  0.5009304687085674  1.0000
  C   C7        1.0  0.0019073694801221754  0.7350245140815376  0.261168448906318  1.0000
  C   C8        1.0  0.23116977091461868  0.5017337452161287  0.5026719824983417  1.0000
  C   C9        1.0  0.0015909301111137254  0.502473106770168  0.7311786709212952  1.0000
  C   C10       1.0  0.23052009169843748  0.2639247728559938  0.5024209452227381  1.0000
  C   C11       1.0  0.00322348613049439  0.5030331538232318  0.26318623269688857  1.0000
  C   C12       1.0  0.7646739469836062  0.7318122354190849  0.5018769511728747  1.0000
  C   C13       1.0  0.3090979671678157  0.5025905380158378  0.18677792342284488  1.0000
  C   C14       1.0  0.6874180373936555  0.5017260625002894  0.8087214692303417  1.0000
  C   C15       1.0  0.3467179172938373  0.5644060725069409  0.1503842420479415  1.0000
  C   C16       1.0  0.4204531989383042  0.5651743905793579  0.07911092878155998  1.0000
  C   C17       1.0  0.6510751064006611  0.43860622875799055  0.846385478529676  1.0000
  C   C18       1.0  0.5797847843651593  0.43532318914158447  0.9201682593066066  1.0000
  C   C19       1.0  0.650689731315879  0.5627096232631387  0.8470573054374596  1.0000
  C   C20       1.0  0.5798512519943841  0.5591793847341294  0.9201682832804252  1.0000
  C   C21       1.0  0.34748973658349774  0.43987047165889964  0.15019706452126502  1.0000
  C   C22       1.0  0.4205949584137158  0.44106365998290203  0.07940428253336045  1.0000
  C   C23       1.0  0.46169533056083634  0.5024465010113275  0.03885416418122385  1.0000
  C   C24       1.0  0.5393526025785533  0.4971996831010588  0.9612763172692167  1.0000
  C   C25       1.0  0.002224158467861283  0.8092260486083943  0.5013840729057364  1.0000
  C   C26       1.0  0.001548256682760011  0.1873145343388174  0.5022811294020996  1.0000
  C   C27       1.0  0.06404769439610898  0.8468769432225757  0.43836572819844116  1.0000
  C   C28       1.0  0.06489258884475632  0.920555580633689  0.4352386642980761  1.0000
  C   C29       1.0  0.9385556495423942  0.1508695124187798  0.564204322563178  1.0000
  C   C30       1.0  0.9354106485659841  0.07946437466257082  0.5651361287789668  1.0000
  C   C31       1.0  0.06254330643359658  0.1505820153232733  0.43969463952813465  1.0000
  C   C32       1.0  0.05910259874830357  0.0796828238509377  0.44104214422608123  1.0000
  C   C33       1.0  0.9396912065043562  0.8474197014149781  0.562498675199535  1.0000
  C   C34       1.0  0.940995380738421  0.9204355640854447  0.5591301860608268  1.0000
  C   C35       1.0  0.002358847245922501  0.9615749964336616  0.49719636989215127  1.0000
  C   C36       1.0  0.9971830440366245  0.03914199268933784  0.5024691007429709  1.0000
  C   C37       1.0  0.30870095768985106  0.18722819857517695  0.5015359245376771  1.0000
  C   C38       1.0  0.6873138886936658  0.8093504540818232  0.5019963030012845  1.0000
  C   C39       1.0  0.3456330845587132  0.15171663366225374  0.4383527458855098  1.0000
  C   C40       1.0  0.4193766653787421  0.08046244012367518  0.43515998309505477  1.0000
  C   C41       1.0  0.651596715498172  0.8460275320759651  0.5640019605046828  1.0000
  C   C42       1.0  0.5801083955092636  0.9196117920504038  0.5649250675162419  1.0000
  C   C43       1.0  0.6495852760763154  0.8482793125765726  0.43963545203391147  1.0000
  C   C44       1.0  0.5785975158272263  0.9211448040287495  0.44102141006293744  1.0000
  C   C45       1.0  0.3478520992134052  0.14985169359804473  0.5624220478676064  1.0000
  C   C46       1.0  0.42092056139912165  0.07909783247544062  0.558956196774588  1.0000
  C   C47       1.0  0.4612483940430465  0.03927856427146286  0.49707169315116306  1.0000
  C   C48       1.0  0.5389065381675735  0.9615351663959687  0.5023184957349542  1.0000
  C   C49       1.0  0.0012056741895987964  0.5023175598120561  0.8089003479948714  1.0000
  C   C50       1.0  0.002529153067037167  0.5019015315153156  0.18667095828709526  1.0000
  C   C51       1.0  0.9382082033145449  0.5642277945596987  0.8456819262332825  1.0000
  C   C52       1.0  0.9351403884450918  0.5650269713993553  0.9193506403974111  1.0000
  C   C53       1.0  0.06422082328397487  0.4386106832908041  0.15128064941821853  1.0000
  C   C54       1.0  0.06482696440377815  0.4352710997404117  0.08015351575218688  1.0000
  C   C55       1.0  0.9397855736425101  0.5626692665872923  0.14937875608573833  1.0000
  C   C56       1.0  0.9408340037891918  0.5590367319061826  0.07877992394272586  1.0000
  C   C57       1.0  0.0623192492153705  0.43984977449535034  0.8478673507200227  1.0000
  C   C58       1.0  0.05901038626792137  0.4411025830043513  0.9208363860600742  1.0000
  C   C59       1.0  0.9970142977415791  0.5023653818932418  0.9612759343328816  1.0000
  C   C60       1.0  0.0021978905093931176  0.4971267740227461  0.03899666952381149  1.0000
  C   C61       1.0  0.8564453333894235  0.9822060490457358  0.048597675879242824  1.0000
  C   C62       1.0  0.1436103393974265  0.9518056417085885  0.017627901924555368  1.0000
  C   C63       1.0  0.11267723552166596  0.04980380281180176  0.981097820415485  1.0000
  C   C64       1.0  0.8869833297850391  0.018738046495883592  0.9505941234192646  1.0000
  C   C65       1.0  0.9321287812242788  0.8576872414958244  0.15360251073595776  1.0000
  C   C66       1.0  0.9305368656856389  0.9318017683921979  0.08157793174071055  1.0000
  C   C67       1.0  0.06985172709023862  0.8446046857826416  0.140151166350158  1.0000
  C   C68       1.0  0.07000982977071848  0.9181666006523912  0.06752980044455373  1.0000
  C   C69       1.0  0.05654137235031701  0.1547149171062118  0.8566046481379315  1.0000
  C   C70       1.0  0.056023463752225756  0.0827227676607763  0.9307194666232235  1.0000
  C   C71       1.0  0.9454776979862133  0.14116978345141729  0.8434033969317551  1.0000
  C   C72       1.0  0.944341621421664  0.0685921622477821  0.9169800232311471  1.0000
  C   C73       1.0  0.0014121733825262271  0.8136982842138211  0.18343986776947926  1.0000
  C   C74       1.0  7.460540132263568e-06  0.9621396192974317  0.03792435626249347  1.0000
  C   C75       1.0  0.001479250818334966  0.18446615623667378  0.8125898283394973  1.0000
  C   C76       1.0  0.9999005198307527  0.03905031322857877  0.9610120330523484  1.0000
  C   C77       1.0  0.3089876887431162  0.5013631937894943  0.502322895919775  1.0000
  C   C78       1.0  0.6873028437854245  0.5030144203584829  0.5007030295485393  1.0000
  C   C79       1.0  0.3463739037345164  0.43787494276304545  0.5646730061189799  1.0000
  C   C80       1.0  0.4199295666139662  0.4349073332178434  0.5653658335957488  1.0000
  C   C81       1.0  0.6509920990837087  0.5653096943506811  0.4372637975082155  1.0000
  C   C82       1.0  0.579713621239435  0.5659077712976455  0.4343866143269323  1.0000
  C   C83       1.0  0.6502142126414795  0.4398743199942957  0.562385600719871  1.0000
  C   C84       1.0  0.5793964784991559  0.44096960629632787  0.5592458627299521  1.0000
  C   C85       1.0  0.34759437967086626  0.5630024299964093  0.4392369689810493  1.0000
  C   C86       1.0  0.42045263846733155  0.5597673821418212  0.4404213841975491  1.0000
  C   C87       1.0  0.46135658344370245  0.4973873957604341  0.502217879541881  1.0000
  C   C88       1.0  0.5390065728518965  0.5027178401025126  0.49690121783778807  1.0000
  Cl  Cl1       1.0  0.45131668978921624  0.6505165590369801  0.050174716907221896  1.0000
  Cl  Cl2       1.0  0.5511533251674552  0.347715670781973  0.9513862986722187  1.0000
  Cl  Cl3       1.0  0.14996191264762637  0.9517565500343395  0.347681016480088  1.0000
  Cl  Cl4       1.0  0.8482458029218235  0.050425150796691284  0.6505644953999693  1.0000
  Cl  Cl5       1.0  0.4495419858448315  0.05276925255157748  0.34765655611879237  1.0000
  Cl  Cl6       1.0  0.5521599505757064  0.9495599532589551  0.6501611916706977  1.0000
  Cl  Cl7       1.0  0.847852256603467  0.6502123692315539  0.9493546143527922  1.0000
  Cl  Cl8       1.0  0.14975546208191295  0.34766850750417433  0.05256622110881886  1.0000
  Cl  Cl9       1.0  0.450798549196719  0.346826577965814  0.6511218347541287  1.0000
  Cl  Cl10      1.0  0.5511767042780632  0.6516639397514865  0.3462588258633445  1.0000
  O   O1        1.0  0.794771890197289  0.4426770369579599  0.7010547667958419  1.0000
  O   O2        1.0  0.06145145451827719  0.7018930181797033  0.44193031587728626  1.0000
  O   O3        1.0  0.2011124112250328  0.5624864479439325  0.29362029800802947  1.0000
  O   O4        1.0  0.9425530120908121  0.29455948952089966  0.5617096148859133  1.0000
  O   O5        1.0  0.06022210002274873  0.2939256534183698  0.703567956613135  1.0000
  O   O6        1.0  0.7951919168822384  0.5627233344115226  0.4408619078753658  1.0000
  O   O7        1.0  0.9422753084038791  0.7045909820552365  0.29292935455047325  1.0000
  O   O8        1.0  0.20114280836354229  0.4417211539075226  0.5619240700047213  1.0000
  O   O9        1.0  0.9420665221569418  0.5611761550288319  0.700898473115053  1.0000
  O   O10       1.0  0.20033126389973427  0.2951690944744954  0.44276641603024564  1.0000
  O   O11       1.0  0.06182453567635092  0.44341697382579076  0.2944421879734874  1.0000
  O   O12       1.0  0.7958770470508442  0.701564150756532  0.5604914668602562  1.0000
  O   O13       1.0  0.20051353389926865  0.2934756093032718  0.5618220001793972  1.0000
  O   O14       1.0  0.9443703435630368  0.5625616767325425  0.2925848727649551  1.0000
  O   O15       1.0  0.7946975713081199  0.7024001323398821  0.44238105190551374  1.0000
  O   O16       1.0  0.06053274300283811  0.44308336359995354  0.7016280544160407  1.0000
  O   O17       1.0  0.9434170321723485  0.29302117630697927  0.7024251246973561  1.0000
  O   O18       1.0  0.20130085820854765  0.5612922882355704  0.44272313462605684  1.0000
  O   O19       1.0  0.0610904785102448  0.7035069906889292  0.2920486781736002  1.0000
  O   O20       1.0  0.7946987654999874  0.44357684945904213  0.5604773141860304  1.0000
  O   O21       1.0  0.06091585996144022  0.2949435318901622  0.4434751652663421  1.0000
  O   O22       1.0  0.7950906702114794  0.5610377779250015  0.7005805435924229  1.0000
  O   O23       1.0  0.943298757241834  0.7012685510162697  0.560351947954359  1.0000
  O   O24       1.0  0.20069430952369757  0.44408746870001187  0.29423839884901787  1.0000
  O   O25       1.0  0.9482728000718338  0.4490554561531397  0.4477392729894589  1.0000
  O   O26       1.0  0.15494368677526899  0.4486024622081289  0.4481894450901293  1.0000
  O   O27       1.0  0.9485869679789117  0.6566286448248493  0.4467112509603197  1.0000
  O   O28       1.0  0.9480730114372378  0.44761338657962585  0.6557442122177689  1.0000
  O   O29       1.0  0.03830909915814122  0.5381156420336666  0.537586848771106  1.0000
  O   O30       1.0  0.8860103284103642  0.5384958208391808  0.5371956691670119  1.0000
  O   O31       1.0  0.0381545672496698  0.5395681861075659  0.384397302811763  1.0000
  O   O32       1.0  0.037888995779304914  0.38522687381773574  0.5387360880840291  1.0000
