data_image0
_chemical_formula_structural       La2H32C48N4O14
_chemical_formula_sum              "La2 H32 C48 N4 O14"
_cell_length_a       10.315872007467101
_cell_length_b       10.715542785233504
_cell_length_c       11.339515154636153
_cell_angle_alpha    109.13943413219424
_cell_angle_beta     93.49068792585219
_cell_angle_gamma    110.42697080928177

_space_group_name_H-M_alt    "P 1"
_space_group_IT_number       1

loop_
  _space_group_symop_operation_xyz
  'x, y, z'

loop_
  _atom_site_type_symbol
  _atom_site_label
  _atom_site_symmetry_multiplicity
  _atom_site_fract_x
  _atom_site_fract_y
  _atom_site_fract_z
  _atom_site_occupancy
  La  La1       1.0  0.5909800649165362  0.49176636725345463  0.33631431144615936  1.0000
  La  La2       1.0  0.4090220145049486  0.5082322467412937  0.6636857805860217  1.0000
  H   H1        1.0  0.04211442382118241  0.1507923284489223  0.11937783504611589  1.0000
  H   H2        1.0  0.9578830498412075  0.8492095656832676  0.8806177890428443  1.0000
  H   H3        1.0  0.8281415378501649  0.9246782807790198  0.06188334965175092  1.0000
  H   H4        1.0  0.17185208405536656  0.07532366512855053  0.9381130041497557  1.0000
  H   H5        1.0  0.9685558797758418  0.8664463800188715  0.39679863400316856  1.0000
  H   H6        1.0  0.0314431023879038  0.13355441605509807  0.6031967128746061  1.0000
  H   H7        1.0  0.1793904450590631  0.09690447796293711  0.4591771246169499  1.0000
  H   H8        1.0  0.8206076488471793  0.9030941644118401  0.5408148644998079  1.0000
  H   H9        1.0  0.3911258726056772  0.16770752582576165  0.6129240376837544  1.0000
  H   H10       1.0  0.6088751976788984  0.8322835547480666  0.38707541974493853  1.0000
  H   H11       1.0  0.6614216042592104  0.0650768658516085  0.3563768169107817  1.0000
  H   H12       1.0  0.3385817312551892  0.9349174270632117  0.6436255073900126  1.0000
  H   H13       1.0  0.40412255773887307  0.19602431191314199  0.06314538108389199  1.0000
  H   H14       1.0  0.5958815639819051  0.8039818348412312  0.9368598002533234  1.0000
  H   H15       1.0  0.4148418471504413  0.025881943372290602  0.8545218199004266  1.0000
  H   H16       1.0  0.5851606077882748  0.9741274534612502  0.145481658444659  1.0000
  H   H17       1.0  0.651094772310003  0.0560397512271251  0.7943107257515435  1.0000
  H   H18       1.0  0.3489061312736157  0.943963197884756  0.20569243358880132  1.0000
  H   H19       1.0  0.9127524648287849  0.18667768466743692  0.8545094474477607  1.0000
  H   H20       1.0  0.08724992050450464  0.8133241617071507  0.14549166815580616  1.0000
  H   H21       1.0  0.12606899425565393  0.36445537872771894  0.017092432783229587  1.0000
  H   H22       1.0  0.8739321483605663  0.6355507910663292  0.9829073338145233  1.0000
  H   H23       1.0  0.23339434711843418  0.5442303323930064  0.23920397265159465  1.0000
  H   H24       1.0  0.7666098526280152  0.4557736483032144  0.7607978893121654  1.0000
  H   H25       1.0  0.19424960139288322  0.6821873094449914  0.4523363853646458  1.0000
  H   H26       1.0  0.805753895128447  0.3178123702101558  0.5476658655670121  1.0000
  H   H27       1.0  0.9485679128621527  0.6500350379413645  0.48161213833924416  1.0000
  H   H28       1.0  0.05143755635304363  0.3499646240144685  0.5183928391559292  1.0000
  H   H29       1.0  0.5236356445775739  0.5797790308931569  0.12141575870660401  1.0000
  H   H30       1.0  0.47636053236752207  0.4202218186344453  0.878585655848056  1.0000
  H   H31       1.0  0.3914744716754939  0.43266690603693564  0.07385737035525611  1.0000
  H   H32       1.0  0.6085241154043004  0.5673350014711716  0.926148008012035  1.0000
  C   C1        1.0  0.24800875744783474  0.28078822920844  0.3405308851994846  1.0000
  C   C2        1.0  0.7519850494900808  0.719211569357249  0.6594692153309296  1.0000
  C   C3        1.0  0.12358112900456322  0.13894414804436653  0.2938572418497358  1.0000
  C   C4        1.0  0.8764150724628479  0.861054526066937  0.7061373202802769  1.0000
  C   C5        1.0  0.02581201153355292  0.08903735909258613  0.18071942601675056  1.0000
  C   C6        1.0  0.9741837792447112  0.9109602440179572  0.8192756653897459  1.0000
  C   C7        1.0  0.9056115067949976  0.9628734025202448  0.14878458981323914  1.0000
  C   C8        1.0  0.09438220651204429  0.03712637966869891  0.8512093278775978  1.0000
  C   C9        1.0  0.883424092480425  0.8834780719770163  0.227792684654112  1.0000
  C   C10       1.0  0.1165700582674489  0.1165227858917603  0.7722024702858405  1.0000
  C   C11       1.0  0.7538905729908124  0.7496761574059647  0.19873562958795785  1.0000
  C   C12       1.0  0.24610499485690704  0.2503257661232112  0.8012616842514717  1.0000
  C   C13       1.0  0.9850017521710797  0.9306905799966002  0.33782699984236325  1.0000
  C   C14       1.0  0.01499390707815  0.0693091798139633  0.6621678778864036  1.0000
  C   C15       1.0  0.10299529648038691  0.057907422491979305  0.3714513662902377  1.0000
  C   C16       1.0  0.8970033663957153  0.9420901388626107  0.6285420737533585  1.0000
  C   C17       1.0  0.5569770279605138  0.26374196922571974  0.4576933385208476  1.0000
  C   C18       1.0  0.4430216990685595  0.7362480650652686  0.5423065714091919  1.0000
  C   C19       1.0  0.5286725684942296  0.12887920110383536  0.48192325499422856  1.0000
  C   C20       1.0  0.4713314273915401  0.8711118470721715  0.5180780841227488  1.0000
  C   C21       1.0  0.43835157005563724  0.0938403279212423  0.5638674838819071  1.0000
  C   C22       1.0  0.561650506639623  0.906150747312225  0.4361346617227325  1.0000
  C   C23       1.0  0.5905819531722613  0.0349131416385902  0.41878360381289775  1.0000
  C   C24       1.0  0.40942204271351573  0.9650779065374168  0.5812177353040795  1.0000
  C   C25       1.0  0.5052363268178864  0.20426836656610453  0.03526726709438321  1.0000
  C   C26       1.0  0.4947677280236961  0.7957377684905966  0.9647334979288544  1.0000
  C   C27       1.0  0.5116946555244083  0.10975409588019151  0.9178194362095127  1.0000
  C   C28       1.0  0.4883064737159728  0.890252071574331  0.08217944712543368  1.0000
  C   C29       1.0  0.6416549052267654  0.1258622961142919  0.8853127200211972  1.0000
  C   C30       1.0  0.35834484704128766  0.8741428126984233  0.11468665420266422  1.0000
  C   C31       1.0  0.7650336479368461  0.23297816323750456  0.972614849465721  1.0000
  C   C32       1.0  0.2349654011060949  0.767022644534137  0.027384913726038483  1.0000
  C   C33       1.0  0.9033584265011997  0.2530623523404216  0.9469693324516301  1.0000
  C   C34       1.0  0.0966439722079358  0.7469394963736988  0.053032666414729576  1.0000
  C   C35       1.0  0.020762934299014515  0.3512124153110819  0.036545098983708585  1.0000
  C   C36       1.0  0.979237545219611  0.6487894604604991  0.9634577063703206  1.0000
  C   C37       1.0  0.008632880230088342  0.4364997062627651  0.15906140295669496  1.0000
  C   C38       1.0  0.991369094414054  0.5635010691110695  0.8409402419233487  1.0000
  C   C39       1.0  0.12759855839141215  0.532868888303078  0.2566982317201223  1.0000
  C   C40       1.0  0.8724028740345415  0.4671329727700098  0.7433037287586758  1.0000
  C   C41       1.0  0.10676068088817206  0.6091471439364469  0.3731766219597503  1.0000
  C   C42       1.0  0.8932422734149837  0.39085362141795343  0.6268259445706619  1.0000
  C   C43       1.0  0.9686944518093412  0.5909044158088648  0.3909987016963186  1.0000
  C   C44       1.0  0.03130854262133207  0.4090963565641418  0.6090065146224788  1.0000
  C   C45       1.0  0.8724925254295994  0.4233517154227612  0.18636161806046658  1.0000
  C   C46       1.0  0.1275108663143883  0.5766501256114723  0.8136421857190541  1.0000
  C   C47       1.0  0.7485731203476859  0.32068174759154294  0.09090556423236507  1.0000
  C   C48       1.0  0.2514316483686231  0.6793211520844906  0.9090977486582403  1.0000
  N   N1        1.0  0.619097831401632  0.30771062294621043  0.11864508180611473  1.0000
  N   N2        1.0  0.38090651324968416  0.6922912033895303  0.8813578770981749  1.0000
  N   N3        1.0  0.8544594456404511  0.5013494642701063  0.30092386203067184  1.0000
  N   N4        1.0  0.14554504391573897  0.49865020770514706  0.6990801938141402  1.0000
  O   O1        1.0  0.33793398370558947  0.3049590895600502  0.270636011886495  1.0000
  O   O2        1.0  0.6620658889450226  0.6950460403084763  0.7293713117025433  1.0000
  O   O3        1.0  0.44998646944952014  0.5145165601385814  0.1517437020327677  1.0000
  O   O4        1.0  0.5500156500994892  0.485482060874766  0.8482590397877985  1.0000
  O   O5        1.0  0.6736287852782469  0.6907100689916776  0.08949049496920482  1.0000
  O   O6        1.0  0.3263674429408425  0.309288609798692  0.9105058336864005  1.0000
  O   O7        1.0  0.7296052722837558  0.703441035395045  0.2892271449071089  1.0000
  O   O8        1.0  0.2703933905923392  0.2965565259595451  0.7107662951364871  1.0000
  O   O9        1.0  0.6220522020208888  0.2806514805167382  0.3689793972419793  1.0000
  O   O10       1.0  0.3779464068549957  0.7193407128138035  0.6310211822731303  1.0000
  O   O11       1.0  0.2541970178370009  0.3662097452282112  0.45161692127821595  1.0000
  O   O12       1.0  0.7457901566477361  0.6337879831501922  0.5483831242169757  1.0000
  O   O13       1.0  0.5136009285573735  0.3570797898969503  0.5253760775850509  1.0000
  O   O14       1.0  0.4863934825223382  0.6429092158105121  0.4746215582828199  1.0000
