data_image0
_chemical_formula_structural       Ag8H24C28N8O20
_chemical_formula_sum              "Ag8 H24 C28 N8 O20"
_cell_length_a       7.6210878092072205
_cell_length_b       8.3660081007936
_cell_length_c       15.275499783174421
_cell_angle_alpha    101.90671616218309
_cell_angle_beta     89.9998538203864
_cell_angle_gamma    90.00085199256404

_space_group_name_H-M_alt    "P 1"
_space_group_IT_number       1

loop_
  _space_group_symop_operation_xyz
  'x, y, z'

loop_
  _atom_site_type_symbol
  _atom_site_label
  _atom_site_symmetry_multiplicity
  _atom_site_fract_x
  _atom_site_fract_y
  _atom_site_fract_z
  _atom_site_occupancy
  Ag  Ag1       1.0  0.3315767874060284  0.6631472809590733  0.2936981320957699  1.0000
  Ag  Ag2       1.0  0.8315766196032399  0.8368471182120631  0.20630153448561123  1.0000
  Ag  Ag3       1.0  0.6684252060127206  0.33685210425861817  0.7062989354891229  1.0000
  Ag  Ag4       1.0  0.16842143735482298  0.1631510476226481  0.7936973596456196  1.0000
  Ag  Ag5       1.0  0.042786847151667494  0.007625319182437802  0.41314880114279606  1.0000
  Ag  Ag6       1.0  0.5427767381041875  0.49238289484669207  0.0868526031407129  1.0000
  Ag  Ag7       1.0  0.957225643417395  0.9923691797228362  0.5868477159035024  1.0000
  Ag  Ag8       1.0  0.45721738250284016  0.5076287137413474  0.9131523880661233  1.0000
  H   H1        1.0  0.5800080486927685  0.30395976318914825  0.34454710751266754  1.0000
  H   H2        1.0  0.08000553809068829  0.19603185063903797  0.15545107059060828  1.0000
  H   H3        1.0  0.4199926325870464  0.6960408436155207  0.6554500977070531  1.0000
  H   H4        1.0  0.9199885823729446  0.8039602071897606  0.8445471353650474  1.0000
  H   H5        1.0  0.051164169190080586  0.40356389597661774  0.4404052012729521  1.0000
  H   H6        1.0  0.551162114751385  0.09642244720121343  0.059597656232760685  1.0000
  H   H7        1.0  0.9488378242134556  0.5964354959596109  0.559597758857592  1.0000
  H   H8        1.0  0.4488385665798731  0.9035854921646167  0.9404029937061792  1.0000
  H   H9        1.0  0.12400819318342121  0.29829369540779294  0.5766693563532924  1.0000
  H   H10       1.0  0.6239954899309268  0.20169054049513593  0.9233327188543823  1.0000
  H   H11       1.0  0.8759964244688874  0.7016995885668964  0.4233329156025718  1.0000
  H   H12       1.0  0.37600256706888047  0.7983137363048841  0.07666948236106212  1.0000
  H   H13       1.0  0.4213689601337265  0.18456684108251414  0.5942783484834209  1.0000
  H   H14       1.0  0.9213516601860545  0.3154165322822422  0.9057239121066303  1.0000
  H   H15       1.0  0.5786409061797996  0.8154337687703052  0.40572147564672895  1.0000
  H   H16       1.0  0.07864377245656577  0.6845804156713768  0.0942781180257057  1.0000
  H   H17       1.0  0.13061128196937227  0.41291939815049283  0.2968230079822476  1.0000
  H   H18       1.0  0.6306109537042843  0.08707779342871191  0.2031816270244562  1.0000
  H   H19       1.0  0.8693920236072754  0.5870824347468117  0.7031782632366016  1.0000
  H   H20       1.0  0.3693857911354854  0.9129252625130776  0.7968210912830995  1.0000
  H   H21       1.0  0.31858529410394  0.34131909308149494  0.24896201741309906  1.0000
  H   H22       1.0  0.8185885211711932  0.15867819478393133  0.25103912001478074  1.0000
  H   H23       1.0  0.6814153871657281  0.6586815182021938  0.7510391161703893  1.0000
  H   H24       1.0  0.1814108479692393  0.8413248596826012  0.7489622888385411  1.0000
  C   C1        1.0  0.47932279359473284  0.30111051471949685  0.3947462748654829  1.0000
  C   C2        1.0  0.9793169411111647  0.19887917276930983  0.10525184118933588  1.0000
  C   C3        1.0  0.5206805120030111  0.6988937606230226  0.6052546168960901  1.0000
  C   C4        1.0  0.020677179362166995  0.8011141066553479  0.8947465024013255  1.0000
  C   C5        1.0  0.3106059191164405  0.35950830844846143  0.3835923254550906  1.0000
  C   C6        1.0  0.8106016714707778  0.1404827604444847  0.11640550270874428  1.0000
  C   C7        1.0  0.6893895135620555  0.6404923013067151  0.6164074986730909  1.0000
  C   C8        1.0  0.18939113686700182  0.8595117390741437  0.8835916690621557  1.0000
  C   C9        1.0  0.1830439048526031  0.35945596066132174  0.4498494907607622  1.0000
  C   C10       1.0  0.6830413135973928  0.14053460772635878  0.0501517138433769  1.0000
  C   C11       1.0  0.8169554642410117  0.6405409850794188  0.5501505751902299  1.0000
  C   C12       1.0  0.316956743389767  0.85946722289593  0.9498475931928708  1.0000
  C   C13       1.0  0.22478922301554854  0.29956813576932023  0.5261421902116722  1.0000
  C   C14       1.0  0.7247814855118833  0.20041746442635852  0.9738605672427026  1.0000
  C   C15       1.0  0.7752140825155321  0.7004288137305681  0.47386114937632573  1.0000
  C   C16       1.0  0.27521919580335213  0.7995880302547537  0.02613849797163684  1.0000
  C   C17       1.0  0.3920850215578682  0.23874288111585434  0.5368995699376029  1.0000
  C   C18       1.0  0.8920744050529875  0.2612486442833061  0.9631010271931186  1.0000
  C   C19       1.0  0.6079235325876126  0.761255285536379  0.4630999789223508  1.0000
  C   C20       1.0  0.1079315247901462  0.7387495245906878  0.0369004858483706  1.0000
  C   C21       1.0  0.5197756295670501  0.2392290135033406  0.47079405726225326  1.0000
  C   C22       1.0  0.019770902756810895  0.2607617898769163  0.029208032757743797  1.0000
  C   C23       1.0  0.48022636387403844  0.7607740394879344  0.5292060421368346  1.0000
  C   C24       1.0  0.9802258420618629  0.7392388236196583  0.9707950650070883  1.0000
  C   C25       1.0  0.6967707336226496  0.16592317032544204  0.4794166476012335  1.0000
  C   C26       1.0  0.19676201012325834  0.3340736894770729  0.020583284743395307  1.0000
  C   C27       1.0  0.3032312598171956  0.8340786573374575  0.5205800405263759  1.0000
  C   C28       1.0  0.8032334225176712  0.6659232592230497  0.9794194001162352  1.0000
  N   N1        1.0  0.2651366973620668  0.4153767866827566  0.3044664931492491  1.0000
  N   N2        1.0  0.7651350560766161  0.0846173363205125  0.19553566386814936  1.0000
  N   N3        1.0  0.7348639838717332  0.5846201627993823  0.6955368464383935  1.0000
  N   N4        1.0  0.23485906448234317  0.9153869382133597  0.8044645731648714  1.0000
  N   N5        1.0  0.32717341313443166  0.9869363144459273  0.23393518513566391  1.0000
  N   N6        1.0  0.8271754765438715  0.5130629108019633  0.26606437605639843  1.0000
  N   N7        1.0  0.6728272681483176  0.013065516940614003  0.7660647766282407  1.0000
  N   N8        1.0  0.17282520473593618  0.4869376960027127  0.7339328291633224  1.0000
  O   O1        1.0  0.7417823245233777  0.14729285762469857  0.5576115264959967  1.0000
  O   O2        1.0  0.24177303392310984  0.3527100665983769  0.9423859604880745  1.0000
  O   O3        1.0  0.25822360538685973  0.8527114110170333  0.4423834727202801  1.0000
  O   O4        1.0  0.7582184623271787  0.6472929870683901  0.05761479363687984  1.0000
  O   O5        1.0  0.7878140061038081  0.12404889084965735  0.4084455271414455  1.0000
  O   O6        1.0  0.28781216500397017  0.3759357572390415  0.09154767826048271  1.0000
  O   O7        1.0  0.21218798734448543  0.8759529330807259  0.591547887349698  1.0000
  O   O8        1.0  0.7121832675450152  0.624048973262994  0.9084516660671935  1.0000
  O   O9        1.0  0.43376089643572163  0.8712497747973135  0.2425984180009593  1.0000
  O   O10       1.0  0.9337649097957339  0.6287484515823895  0.2574028612074386  1.0000
  O   O11       1.0  0.5662384726966961  0.1287520573268566  0.7574021984900553  1.0000
  O   O12       1.0  0.06623445929663768  0.37124726882997555  0.7425937934720677  1.0000
  O   O13       1.0  0.16957771911675928  0.9846911732328041  0.2583185147850743  1.0000
  O   O14       1.0  0.6695812579978836  0.5153059213338338  0.24168231282953903  1.0000
  O   O15       1.0  0.8304203378590103  0.015309436540128707  0.7416813093434624  1.0000
  O   O16       1.0  0.330419423242681  0.4846910251622846  0.7583184078489253  1.0000
  O   O17       1.0  0.3852235293147359  0.09989130743021243  0.19875330672379474  1.0000
  O   O18       1.0  0.8852225990077969  0.4001093229384694  0.3012461599875209  1.0000
  O   O19       1.0  0.6147758398159978  0.9001105254404609  0.8012479644945215  1.0000
  O   O20       1.0  0.114783330900309  0.5998961725246519  0.6987535599548236  1.0000
