data_image0
_chemical_formula_structural       Zn8H8C80O26F32
_chemical_formula_sum              "Zn8 H8 C80 O26 F32"
_cell_length_a       23.851375366197505
_cell_length_b       23.853000035990306
_cell_length_c       23.85125813026646
_cell_angle_alpha    66.14190896548216
_cell_angle_beta     72.68279107146337
_cell_angle_gamma    107.32687109603839

_space_group_name_H-M_alt    "P 1"
_space_group_IT_number       1

loop_
  _space_group_symop_operation_xyz
  'x, y, z'

loop_
  _atom_site_type_symbol
  _atom_site_label
  _atom_site_symmetry_multiplicity
  _atom_site_fract_x
  _atom_site_fract_y
  _atom_site_fract_z
  _atom_site_occupancy
  Zn  Zn1       1.0  0.05647391110961328  0.9559455731884515  0.48759544089396933  1.0000
  Zn  Zn2       1.0  0.05647180613348009  0.10052927253110511  0.4559448589306855  1.0000
  Zn  Zn3       1.0  0.9435223835523625  0.9875927645511524  0.4559360699954386  1.0000
  Zn  Zn4       1.0  0.9435414382297151  0.9559423821172288  0.6005307135037585  1.0000
  Zn  Zn5       1.0  0.9435291427769527  0.5440574957193434  0.01240427054533213  1.0000
  Zn  Zn6       1.0  0.056478829321122095  0.5124105556705985  0.04406283527239201  1.0000
  Zn  Zn7       1.0  0.9435293342214662  0.39947152772499817  0.04405873003489817  1.0000
  Zn  Zn8       1.0  0.056457922727226106  0.5440548470832739  0.8994692558979127  1.0000
  H   H1        1.0  0.924038244224974  0.7984492570700823  0.7775074764482571  1.0000
  H   H2        1.0  0.07596346233452764  0.7015518846719074  0.7224923208890176  1.0000
  H   H3        1.0  0.9240363905874814  0.7015465159055908  0.8744119689759421  1.0000
  H   H4        1.0  0.07596375972368453  0.798453589080367  0.6255882905195594  1.0000
  H   H5        1.0  0.9240367051060189  0.1255954426415188  0.29843589083979094  1.0000
  H   H6        1.0  0.07596614514720555  0.374408133854125  0.20156355924267202  1.0000
  H   H7        1.0  0.92403915073308  0.22250032248086876  0.20153497731739384  1.0000
  H   H8        1.0  0.07596302005872245  0.27750309056887806  0.29846558046463667  1.0000
  C   C1        1.0  0.18050219794478292  0.09025820408718495  0.409743125621894  1.0000
  C   C2        1.0  0.9999982260689818  0.13921717797254024  0.3607833752351653  1.0000
  C   C3        1.0  0.9999921846347064  0.9097458625110664  0.4097573190082072  1.0000
  C   C4        1.0  0.8195013068945015  0.9097369594068285  0.5902694900828253  1.0000
  C   C5        1.0  3.219248867395593e-06  0.8607832941105756  0.6392180916436204  1.0000
  C   C6        1.0  0.9999894926264759  0.09024553482426981  0.5902571844582384  1.0000
  C   C7        1.0  0.9999978507684659  0.5902402524686254  0.09025781396773185  1.0000
  C   C8        1.0  3.506324468136426e-06  0.3607857950163409  0.1392174900452474  1.0000
  C   C9        1.0  0.8195001265752495  0.40974700293873695  0.0902436711305158  1.0000
  C   C10       1.0  0.9999954409049537  0.409736635651889  0.9097611057704924  1.0000
  C   C11       1.0  0.9999971721123088  0.6392165251782986  0.8607830483681416  1.0000
  C   C12       1.0  0.18049899455125024  0.5902439484004631  0.9097371446707359  1.0000
  C   C13       1.0  1.4474345277980722e-06  0.8034738058944841  0.6965249348325103  1.0000
  C   C14       1.0  0.9999994260495128  0.6965254578939197  0.8034750249562207  1.0000
  C   C15       1.0  0.9569347663885424  0.7766876909968305  0.7663745400446872  1.0000
  C   C16       1.0  0.04306606338077747  0.723312575164485  0.7336250319306076  1.0000
  C   C17       1.0  0.9569343801098497  0.7233100269076901  0.8197528750125262  1.0000
  C   C18       1.0  0.04306669071274181  0.7766899558270739  0.6802471572996679  1.0000
  C   C19       1.0  0.9999984853692752  0.19652464068284584  0.3034748609417478  1.0000
  C   C20       1.0  3.0059611118774386e-06  0.30347860892100437  0.19652680453985752  1.0000
  C   C21       1.0  0.9569344854340256  0.18025183712344983  0.27668070781927423  1.0000
  C   C22       1.0  0.043067444297982024  0.31975185481179846  0.22332022998459425  1.0000
  C   C23       1.0  0.9569350253300185  0.23363121799080502  0.22330289792018476  1.0000
  C   C24       1.0  0.04306622494708995  0.2663723150396039  0.276698307224521  1.0000
  C   C25       1.0  0.9999968586441881  0.6277890154264085  0.12781979431350285  1.0000
  C   C26       1.0  0.9572731637290984  0.6575219550822596  0.13536136589348077  1.0000
  C   C27       1.0  0.9573462301367502  0.6922765082349974  0.17019458564503503  1.0000
  C   C28       1.0  0.9999942560733928  0.6996421494082911  0.19966947521086123  1.0000
  C   C29       1.0  0.04264359124346118  0.6701759574159355  0.1923129800729912  1.0000
  C   C30       1.0  0.042718697729675514  0.6353441794584854  0.15755718980380362  1.0000
  C   C31       1.0  0.9999905209921707  0.734759964445033  0.23478922204197514  1.0000
  C   C32       1.0  0.9999847836670954  0.7652071381041172  0.26524548036098855  1.0000
  C   C33       1.0  0.9999773440539528  0.8003207091665417  0.30036845501436477  1.0000
  C   C34       1.0  0.9573401505672904  0.8298029726947365  0.3077105637917014  1.0000
  C   C35       1.0  0.9572628520925689  0.8646325526184029  0.34246747137339667  1.0000
  C   C36       1.0  0.9999737110463013  0.8721712303547733  0.37222116709526915  1.0000
  C   C37       1.0  0.04267780677164278  0.8424161667910258  0.3647004879007838  1.0000
  C   C38       1.0  0.04261059319253466  0.8076690739130185  0.32985959394547876  1.0000
  C   C39       1.0  8.921794375200422e-06  0.37217490457491914  0.8722134401911107  1.0000
  C   C40       1.0  0.04273651269564026  0.40734583802910157  0.7997588728393199  1.0000
  C   C41       1.0  0.042659328851733756  0.3724386149738166  0.7650789338229345  1.0000
  C   C42       1.0  2.713963844780832e-06  0.30032445597345975  0.8003615542007694  1.0000
  C   C43       1.0  0.9573587511019497  0.2650419927143803  0.8724764582156654  1.0000
  C   C44       1.0  0.9572897189996254  0.2997234820713218  0.9073819392867578  1.0000
  C   C45       1.0  0.9999952741455616  0.26521041095578823  0.7652408400456354  1.0000
  C   C46       1.0  0.9999877958702896  0.23476726650260835  0.7347810639974668  1.0000
  C   C47       1.0  0.9999789510815515  0.19965463513792517  0.6996584048210157  1.0000
  C   C48       1.0  0.04261057513654978  0.23494200545410854  0.6275397882595826  1.0000
  C   C49       1.0  0.042679147625044274  0.20026582047041333  0.5926302270669552  1.0000
  C   C50       1.0  0.9999752862117147  0.12780883164748494  0.6278038982135571  1.0000
  C   C51       1.0  0.9572619188484027  0.09263173971985618  0.7002629519174234  1.0000
  C   C52       1.0  0.9573400669086779  0.12753783133944566  0.7349443121020299  1.0000
  C   C53       1.0  0.7443906167961885  0.37218931448130405  0.12780280507747932  1.0000
  C   C54       1.0  0.7071085774583777  0.40736241917085897  0.13533790110262342  1.0000
  C   C55       1.0  0.6375212040552112  0.37245550650204245  0.1701684263783749  1.0000
  C   C56       1.0  0.600689443593751  0.30033864131204524  0.19965078951125298  1.0000
  C   C57       1.0  0.6375202361333336  0.2650515170852544  0.1923054415779434  1.0000
  C   C58       1.0  0.7071067278084228  0.2997321541582352  0.15755143021138468  1.0000
  C   C59       1.0  0.5304537103232648  0.2652260795358715  0.2347601224805089  1.0000
  C   C60       1.0  0.4695504341835742  0.23478475230081847  0.26519872242035103  1.0000
  C   C61       1.0  0.3993152267082679  0.19967060313440055  0.3003127253117412  1.0000
  C   C62       1.0  0.3624838857600849  0.234954493221764  0.307672109407129  1.0000
  C   C63       1.0  0.2928971530512925  0.20027415319850675  0.342423139360605  1.0000
  C   C64       1.0  0.2556125634584063  0.12782262381526985  0.3721592406281645  1.0000
  C   C65       1.0  0.2928948003044027  0.09265035613952932  0.36460236779954874  1.0000
  C   C66       1.0  0.3624812532059281  0.12755739787112222  0.3297708091690197  1.0000
  C   C67       1.0  0.25560911632009453  0.6277875922844203  0.8721855410087189  1.0000
  C   C68       1.0  0.292897676160905  0.6353175454224812  0.9073608680269347  1.0000
  C   C69       1.0  0.36248403370031207  0.6701539198132878  0.872451527819692  1.0000
  C   C70       1.0  0.39931180210182754  0.6996403363700311  0.8003308240921856  1.0000
  C   C71       1.0  0.3624737513426267  0.6922931898858736  0.7650441131896673  1.0000
  C   C72       1.0  0.2928874702856276  0.6575348529679985  0.7997259989291269  1.0000
  C   C73       1.0  0.46954740422488306  0.7347559029944221  0.7652207478619817  1.0000
  C   C74       1.0  0.5304515795626582  0.7652027842965551  0.7347901384998325  1.0000
  C   C75       1.0  0.6006865684382632  0.8003219271633314  0.6996775579761663  1.0000
  C   C76       1.0  0.6375263527841425  0.8076870125982155  0.7349599279642547  1.0000
  C   C77       1.0  0.7071139702777812  0.8424409434287983  0.7002781459146733  1.0000
  C   C78       1.0  0.744391423732104  0.8721721431152363  0.6278227822980468  1.0000
  C   C79       1.0  0.707101107831463  0.8646195271294704  0.592652434565828  1.0000
  C   C80       1.0  0.6375146191446319  0.829786157586881  0.6275610315121228  1.0000
  O   O1        1.0  1.1570048029969184e-07  1.9190141315997187e-06  0.4999990725047284  1.0000
  O   O2        1.0  0.15188970794747544  0.024997860515704007  0.4348489107677125  1.0000
  O   O3        1.0  0.04030098466298429  0.15731437636822682  0.382987985589466  1.0000
  O   O4        1.0  0.9598146720011866  0.9348347888741629  0.41327637285908053  1.0000
  O   O5        1.0  0.15189020536116263  0.12690275102729498  0.4132747094107999  1.0000
  O   O6        1.0  0.04017191221387159  0.9132895780343874  0.43483172362830663  1.0000
  O   O7        1.0  0.959691368111848  0.07671391612540647  0.38298120997315277  1.0000
  O   O8        1.0  0.8481103167280465  0.9348382097367178  0.5249982247345104  1.0000
  O   O9        1.0  0.9597064110913041  0.8829868077471236  0.6573173757850485  1.0000
  O   O10       1.0  0.8481182933581477  0.9132639609461962  0.6269071746586407  1.0000
  O   O11       1.0  0.04030577047017656  0.8829848918293738  0.5767137346229987  1.0000
  O   O12       1.0  0.04016998039608671  0.12689238893725735  0.5249967712960953  1.0000
  O   O13       1.0  0.9598327818795127  0.024990462558669442  0.6269012956890805  1.0000
  O   O14       1.0  1.4285846744412905e-06  0.49999945022095454  1.993768014523881e-08  1.0000
  O   O15       1.0  0.9598339257062279  0.5867178661810332  0.06516330645458625  1.0000
  O   O16       1.0  0.040312205327296485  0.4232888282547974  0.11701625968508737  1.0000
  O   O17       1.0  0.8481119218039977  0.37310172569962663  0.08671411571496898  1.0000
  O   O18       1.0  0.04017336639304136  0.5651505670257322  0.08673953878071941  1.0000
  O   O19       1.0  0.8481127913042172  0.4750032484679567  0.06515582423363489  1.0000
  O   O20       1.0  0.9596987530674569  0.3426871084511165  0.11701575024437007  1.0000
  O   O21       1.0  0.9598262604464765  0.3730934795437407  0.9750173631674103  1.0000
  O   O22       1.0  0.04029757489267636  0.617014531823884  0.8426812395078613  1.0000
  O   O23       1.0  0.04015116386761257  0.4749993083359811  0.8731099342206861  1.0000
  O   O24       1.0  0.9596953440834497  0.6170140998851112  0.9232845846058099  1.0000
  O   O25       1.0  0.15189000970620006  0.5651683586297056  0.9749977196645362  1.0000
  O   O26       1.0  0.1518814598258089  0.5867138148954255  0.8730945881856231  1.0000
  F   F1        1.0  0.914328895045429  0.6538627675302067  0.1094620266574325  1.0000
  F   F2        1.0  0.08566492209418189  0.6094489878167125  0.15391092455209332  1.0000
  F   F3        1.0  0.08445246193267744  0.6758210936483876  0.2196020498752349  1.0000
  F   F4        1.0  0.9155350279286693  0.7195569773478496  0.175833451887762  1.0000
  F   F5        1.0  0.9155452649661767  0.8241729593818194  0.28040412317886904  1.0000
  F   F6        1.0  0.08440403955031417  0.7803654868653923  0.32424703922546183  1.0000
  F   F7        1.0  0.08560256601811024  0.8460504807059053  0.39062652829431954  1.0000
  F   F8        1.0  0.9143303280481657  0.8905441529791744  0.34609551766417485  1.0000
  F   F9        1.0  0.08568926999368634  0.4761822225021534  0.7604730970669848  1.0000
  F   F10       1.0  0.9143476732777316  0.26043425885732346  0.9762224698507896  1.0000
  F   F11       1.0  0.9155448062409306  0.19595187550906706  0.9086413612235732  1.0000
  F   F12       1.0  0.08446817494251488  0.40860037650769954  0.6959894233327617  1.0000
  F   F13       1.0  0.08440554028187816  0.30403717334005625  0.5913714299267598  1.0000
  F   F14       1.0  0.9155460363747849  0.09137207044172885  0.804038106335291  1.0000
  F   F15       1.0  0.9143301358866436  0.02379176321883123  0.7395547747929785  1.0000
  F   F16       1.0  0.08560306795155267  0.2395562483192819  0.5237866847321868  1.0000
  F   F17       1.0  0.7366594395104543  0.4762041970234777  0.10942465541857882  1.0000
  F   F18       1.0  0.7366554176665119  0.2604376866343543  0.15391918500495919  1.0000
  F   F19       1.0  0.6045918879745003  0.19595672917279938  0.21960580917541261  1.0000
  F   F20       1.0  0.6045959160251969  0.40862569378210634  0.17579175156767957  1.0000
  F   F21       1.0  0.39540984447440763  0.30404628241505816  0.2803879130558116  1.0000
  F   F22       1.0  0.39540934790247917  0.09139642105153456  0.3241215754629111  1.0000
  F   F23       1.0  0.2633434788211844  0.023814009809733274  0.3904880033176782  1.0000
  F   F24       1.0  0.26334659956670947  0.23956405050667237  0.3460732844797789  1.0000
  F   F25       1.0  0.2633522631080396  0.6094010210812757  0.9762054067667806  1.0000
  F   F26       1.0  0.2633321473480733  0.6538997192443717  0.7604328186294611  1.0000
  F   F27       1.0  0.39539537190179175  0.7195953657442973  0.6959471645069686  1.0000
  F   F28       1.0  0.3954165314593894  0.6757757936278425  0.9086227631338563  1.0000
  F   F29       1.0  0.6046075399371419  0.7804043679470356  0.804053253797328  1.0000
  F   F30       1.0  0.6045806937953984  0.8241393236701244  0.5913976921651668  1.0000
  F   F31       1.0  0.7366442165333422  0.8905102362225534  0.5238117848169425  1.0000
  F   F32       1.0  0.7366712903414906  0.846098465655686  0.7395651265477885  1.0000
