data_image0
_chemical_formula_structural       Cd4H40C60O28
_chemical_formula_sum              "Cd4 H40 C60 O28"
_cell_length_a       6.564241409
_cell_length_b       7.55042752745177
_cell_length_c       28.5057
_cell_angle_alpha    90.0
_cell_angle_beta     90.0
_cell_angle_gamma    105.1869757522833

_space_group_name_H-M_alt    "P 1"
_space_group_IT_number       1

loop_
  _space_group_symop_operation_xyz
  'x, y, z'

loop_
  _atom_site_type_symbol
  _atom_site_label
  _atom_site_symmetry_multiplicity
  _atom_site_fract_x
  _atom_site_fract_y
  _atom_site_fract_z
  _atom_site_occupancy
  Cd  Cd1       1.0  0.3145250086863527  0.7862490526143517  0.5221604801846667  1.0000
  Cd  Cd2       1.0  0.1854721681491398  0.213749997715027  0.0221615326057574  1.0000
  Cd  Cd3       1.0  0.6854679041376315  0.2137513700714209  0.4778395198153334  1.0000
  Cd  Cd4       1.0  0.8145236607777946  0.7862449355451702  0.9778388182012707  1.0000
  H   H1        1.0  0.3410466901402316  0.2634059691014627  0.1814514290124407  1.0000
  H   H2        1.0  0.15894800552595  0.7365848470895529  0.681450727398378  1.0000
  H   H3        1.0  0.6589567558130868  0.7365889641587344  0.8185478693734964  1.0000
  H   H4        1.0  0.8410480848161869  0.2634210650217881  0.3185492726016221  1.0000
  H   H5        1.0  0.47692055935532096  0.7937736827199728  0.11476301230981531  1.0000
  H   H6        1.0  0.023089501071225996  0.2062226228966182  0.6147623106957526  1.0000
  H   H7        1.0  0.5230859334085523  0.2062212505402243  0.8852376893042477  1.0000
  H   H8        1.0  0.9769180801642818  0.7937860339275176  0.3852387417253382  1.0000
  H   H9        1.0  0.5491611196048609  0.9512241317475727  0.19244922945235746  1.0000
  H   H10       1.0  0.9508425018451804  0.0487666844434429  0.6924478262242317  1.0000
  H   H11       1.0  0.45083997588674424  0.0487680567998297  0.8075507705476428  1.0000
  H   H12       1.0  0.04916231540040169  0.9512378553115113  0.3075528753898311  1.0000
  H   H13       1.0  0.574761841897292  0.0417017937296436  0.282137256759171  1.0000
  H   H14       1.0  0.925256447964273  0.9582972565997352  0.782136555145108  1.0000
  H   H15       1.0  0.4252449122817765  0.9583041183817044  0.7178609892056687  1.0000
  H   H16       1.0  0.0747476729324674  0.041710027867999586  0.217862743240822  1.0000
  H   H17       1.0  0.5648558685899161  0.0514414070543907  0.3697043047530855  1.0000
  H   H18       1.0  0.9351597879893134  0.9485590156313748  0.8697021999108969  1.0000
  H   H19       1.0  0.4351400910446159  0.9485590156313748  0.6302953444398867  1.0000
  H   H20       1.0  0.06484156891748681  0.0514441517671784  0.1302960460539495  1.0000
  H   H21       1.0  0.3767591758226417  0.4597297853316746  0.3757837906102992  1.0000
  H   H22       1.0  0.1232351063153203  0.5402596585029471  0.875780984154048  1.0000
  H   H23       1.0  0.623242333197183  0.5402637755721287  0.6242179634248615  1.0000
  H   H24       1.0  0.8767790034749368  0.4597352747572501  0.12421936665298723  1.0000
  H   H25       1.0  0.6498605813638536  0.6038985691828742  0.5492533072332932  1.0000
  H   H26       1.0  0.8501344438903402  0.3960991087901107  0.0492547104614189  1.0000
  H   H27       1.0  0.3501366188553376  0.3961059705720799  0.4507456403456161  1.0000
  H   H28       1.0  0.1498594481031006  0.6038944521136926  0.9507452895385813  1.0000
  H   H29       1.0  0.7100740578133723  0.8029122039443661  0.5731737862953707  1.0000
  H   H30       1.0  0.7899201403843821  0.1970827293158237  0.07317413710240572  1.0000
  H   H31       1.0  0.2899242522828729  0.19709096345418683  0.4268244596694686  1.0000
  H   H32       1.0  0.21007111832672354  0.8029122039443661  0.9268251612835317  1.0000
  H   H33       1.0  0.9543419631717  0.707796927022855  0.4643169611691676  1.0000
  H   H34       1.0  0.5456511251489999  0.2921993785937289  0.9643169611691678  1.0000
  H   H35       1.0  0.0456509496522841  0.2922034956629105  0.5356823372167697  1.0000
  H   H36       1.0  0.4543384794492269  0.7077900652408928  0.0356833896378603  1.0000
  H   H37       1.0  0.8971833945245251  0.8166892897788358  0.506521151909972  1.0000
  H   H38       1.0  0.6028124577861149  0.1833111329069368  0.0065215027169998  1.0000
  H   H39       1.0  0.1028091047712394  0.1833097605505429  0.4934777956689374  1.0000
  H   H40       1.0  0.3971833711408266  0.8166838003532604  0.9934784972830002  1.0000
  C   C1        1.0  0.38425978181537357  0.4124219157345408  0.1842585868791176  1.0000
  C   C2        1.0  0.11574224805657  0.5875730175256564  0.6842582360720826  1.0000
  C   C3        1.0  0.6157449047226038  0.5875771345948378  0.8157431671560433  1.0000
  C   C4        1.0  0.884256475567895  0.4124315222292977  0.3157428163490082  1.0000
  C   C5        1.0  0.40719055527219433  0.5207914107045895  0.143596543849128  1.0000
  C   C6        1.0  0.0928063601480957  0.4791966607736384  0.6435954914280304  1.0000
  C   C7        1.0  0.592810126691191  0.4791994054864261  0.8564034561508722  1.0000
  C   C8        1.0  0.9071927770045889  0.5208092513377025  0.3564048593790048  1.0000
  C   C9        1.0  0.4641275314167146  0.7132136177080497  0.14687588798030052  1.0000
  C   C10       1.0  0.03588100560455839  0.2867826879085413  0.6468755371732655  1.0000
  C   C11       1.0  0.5358778514701044  0.2867826879085413  0.8531237612126716  1.0000
  C   C12       1.0  0.9641200684816269  0.7132245965591935  0.3531241120196996  1.0000
  C   C13       1.0  0.501463463006786  0.8018705854416908  0.19030299203317474  1.0000
  C   C14       1.0  0.998546252064358  0.1981202307493248  0.6903015888050492  1.0000
  C   C15       1.0  0.498547882793531  0.1981202307493248  0.8096963063527625  1.0000
  C   C16       1.0  0.0014624390482112092  0.8018870537184171  0.30969770958088827  1.0000
  C   C17       1.0  0.47304961829758696  0.6940308200395435  0.23060440543470415  1.0000
  C   C18       1.0  0.02695434850785721  0.3059654855770475  0.7306033530136062  1.0000
  C   C19       1.0  0.5269593556355971  0.3059723473590168  0.7693955945652962  1.0000
  C   C20       1.0  0.9730533848406749  0.6940335647523311  0.2693955945652959  1.0000
  C   C21       1.0  0.48748395779870185  0.7449617105155468  0.2805224919928265  1.0000
  C   C22       1.0  0.01251918195030299  0.2550318503882565  0.7805214395717357  1.0000
  C   C23       1.0  0.5125304134067575  0.2550442015957941  0.7194785604282643  1.0000
  C   C24       1.0  0.9874892477470638  0.7449644552283345  0.21947785881420157  1.0000
  C   C25       1.0  0.535700980834136  0.915199776417893  0.3025107259249893  1.0000
  C   C26       1.0  0.9643035983799351  0.0847992739114858  0.8025103751179616  1.0000
  C   C27       1.0  0.4642984391391706  0.0848020186242735  0.6974889232679757  1.0000
  C   C28       1.0  0.03569194772637729  0.915199776417893  0.1974896248820386  1.0000
  C   C29       1.0  0.5267357238266399  0.9199975343696067  0.3515514440971472  1.0000
  C   C30       1.0  0.973269268915658  0.08000288831615879  0.8515510932901122  1.0000
  C   C31       1.0  0.4732556655920633  0.08000288831615879  0.6484482050958249  1.0000
  C   C32       1.0  0.026732087991149553  0.9200002790823945  0.14844890670988783  1.0000
  C   C33       1.0  0.4703055650625032  0.7579936068283359  0.3782282140063203  1.0000
  C   C34       1.0  0.029701448553495897  0.2420026987882551  0.8782278631992926  1.0000
  C   C35       1.0  0.5296956611367065  0.2420040711446489  0.6217721368007076  1.0000
  C   C36       1.0  0.9703073946720979  0.7579949791847298  0.12177283841477053  1.0000
  C   C37       1.0  0.4237760725052979  0.586379067463298  0.3557060517721028  1.0000
  C   C38       1.0  0.07622291055609048  0.413615865796892  0.8557057009650679  1.0000
  C   C39       1.0  0.5762312473150146  0.4136186105096797  0.6442950006489951  1.0000
  C   C40       1.0  0.9237848227924346  0.5863831845324796  0.14429429903493235  1.0000
  C   C41       1.0  0.4337407352854328  0.5819353774611071  0.307483064790553  1.0000
  C   C42       1.0  0.06625713789890139  0.4180609281554766  0.8074806091413296  1.0000
  C   C43       1.0  0.5662647783089838  0.418066417581052  0.6925204432797687  1.0000
  C   C44       1.0  0.9337504647420262  0.5819326327483196  0.19251939085867062  1.0000
  C   C45       1.0  0.3847089830799747  0.4203788381041207  0.2754178988763627  1.0000
  C   C46       1.0  0.11529013068901146  0.5796215845816448  0.7754150924201113  1.0000
  C   C47       1.0  0.61529015407271  0.5796270740072201  0.7245835043517631  1.0000
  C   C48       1.0  0.8847162099618373  0.4203829551733023  0.2245842059658258  1.0000
  C   C49       1.0  0.4135245587912024  0.5001127445671543  0.2272805088105159  1.0000
  C   C50       1.0  0.08647512061902768  0.4998794439802552  0.7272791055823902  1.0000
  C   C51       1.0  0.5864781908132813  0.4998849334058306  0.7727194911894844  1.0000
  C   C52       1.0  0.9135258227595529  0.5001223510619042  0.27272159603167273  1.0000
  C   C53       1.0  0.3558562667475869  0.4273929516313615  0.09752224993597743  1.0000
  C   C54       1.0  0.1441320524768699  0.5726019816288357  0.5975208467078517  1.0000
  C   C55       1.0  0.644135819019958  0.5726047263416234  0.9024781008710505  1.0000
  C   C56       1.0  0.8558625144599857  0.4274039304825052  0.4024784516780855  1.0000
  C   C57       1.0  0.4412972336872514  0.7645822898735872  0.4298042145956772  1.0000
  C   C58       1.0  0.0587068638257904  0.2354195051685792  0.9298045654027123  1.0000
  C   C59       1.0  0.5586987259472806  0.2354181328121854  0.5701961362113509  1.0000
  C   C60       1.0  0.9412978227121869  0.7645795451607995  0.0701961362113508  1.0000
  O   O1        1.0  0.3277650983855054  0.2569531493391679  0.28642306626394304  1.0000
  O   O2        1.0  0.17223458102472478  0.7430390392082413  0.7864213122287824  1.0000
  O   O3        1.0  0.6722387396906129  0.7430582521977485  0.7135758813149664  1.0000
  O   O4        1.0  0.8277745450214837  0.2569545216955618  0.21358009099934355  1.0000
  O   O5        1.0  0.3250885043208882  0.5173193490290018  0.06148173873997111  1.0000
  O   O6        1.0  0.17490479864761  0.4826769565875892  0.5614789322837197  1.0000
  O   O7        1.0  0.6749046913237109  0.4826769565875892  0.9385193136811267  1.0000
  O   O8        1.0  0.8250870042993128  0.5173248384545772  0.43852106771628035  1.0000
  O   O9        1.0  0.3308693243141149  0.2534783429507996  0.09599694096268512  1.0000
  O   O10       1.0  0.16911359763806638  0.7465138455966097  0.5959976425767479  1.0000
  O   O11       1.0  0.6691204109917095  0.7465165903093975  0.9040030590373151  1.0000
  O   O12       1.0  0.8308752892058991  0.253493438871125  0.4040020066162171  1.0000
  O   O13       1.0  0.48115299048904336  0.9195748486004047  0.451083818324051  1.0000
  O   O14       1.0  0.0188465368081694  0.0804269464417544  0.9510866247803094  1.0000
  O   O15       1.0  0.5188338287138379  0.0804255740853606  0.5489147784478163  1.0000
  O   O16       1.0  0.9811512290522658  0.9195693591748366  0.0489140768337535  1.0000
  O   O17       1.0  0.36201899947581506  0.6163801505818611  0.4524119737456048  1.0000
  O   O18       1.0  0.1379754133697446  0.383614782678336  0.9524123245526328  1.0000
  O   O19       1.0  0.6379776565075588  0.3836175273911238  0.5475880262543953  1.0000
  O   O20       1.0  0.862018892151916  0.6163801505818611  0.047589078675493106  1.0000
  O   O21       1.0  0.6584414394718294  0.7378515320407644  0.5442753554552269  1.0000
  O   O22       1.0  0.8415505389718163  0.2621461459322205  0.04427675868335261  1.0000
  O   O23       1.0  0.3415527139368066  0.2621530077141827  0.4557228905096197  1.0000
  O   O24       1.0  0.15844335302162452  0.7378474149715828  0.9557228905096198  1.0000
  O   O25       1.0  0.013554882286932452  0.8184431612497391  0.4843392724963778  1.0000
  O   O26       1.0  0.48643966126622473  0.1815572614360264  0.9843403249174758  1.0000
  O   O27       1.0  0.9864380305370518  0.1815572614360264  0.5156596750825244  1.0000
  O   O28       1.0  0.5135542307272161  0.8184362994677699  0.0156607275036222  1.0000
