data_image0
_chemical_formula_structural       Nd4P8H48C24N4O44
_chemical_formula_sum              "Nd4 P8 H48 C24 N4 O44"
_cell_length_a       8.97896112
_cell_length_b       12.669662676612854
_cell_length_c       14.5674
_cell_angle_alpha    113.86901816295732
_cell_angle_beta     90.0
_cell_angle_gamma    90.0

_space_group_name_H-M_alt    "P 1"
_space_group_IT_number       1

loop_
  _space_group_symop_operation_xyz
  'x, y, z'

loop_
  _atom_site_type_symbol
  _atom_site_label
  _atom_site_symmetry_multiplicity
  _atom_site_fract_x
  _atom_site_fract_y
  _atom_site_fract_z
  _atom_site_occupancy
  Nd  Nd1       1.0  0.7525959751566449  0.9097033128133987  0.8299116582947477  1.0000
  Nd  Nd2       1.0  0.25259826495383925  0.09029641815647689  0.6700877664997762  1.0000
  Nd  Nd3       1.0  0.24740055896355528  0.0902972812624299  0.1700915025763834  1.0000
  Nd  Nd4       1.0  0.7474060651684837  0.9097033128133987  0.32990753950896584  1.0000
  P   P1        1.0  0.6042436232311061  0.1806446226698881  0.8136234712275724  1.0000
  P   P2        1.0  0.1042447993137117  0.8193568345118862  0.6863758746128995  1.0000
  P   P3        1.0  0.3957540246036828  0.8193551082999874  0.1863752671026546  1.0000
  P   P4        1.0  0.8957539622356663  0.18064721198773978  0.31362506895723646  1.0000
  P   P5        1.0  0.1097309573827374  0.39149881665537817  0.7262890987956825  1.0000
  P   P6        1.0  0.6097286675855431  0.6084991881025985  0.7737110914171835  1.0000
  P   P7        1.0  0.8902700315958185  0.6084974618907069  0.27371048390693886  1.0000
  P   P8        1.0  0.3902689802492461  0.3915005428672771  0.22629176569881793  1.0000
  H   H1        1.0  0.22635580807593672  0.4113217709825463  0.8619795577887855  1.0000
  H   H2        1.0  0.7263557457079202  0.5886779599873293  0.6380219263986221  1.0000
  H   H3        1.0  0.7736440671880302  0.5886779599873293  0.13802192639862204  1.0000
  H   H4        1.0  0.2736407884122798  0.4113209078766005  0.36198062696225725  1.0000
  H   H5        1.0  0.5638814927845459  0.87509103805273  0.6383751976124474  1.0000
  H   H6        1.0  0.06388044143797342  0.12491128223498998  0.8616230790545529  1.0000
  H   H7        1.0  0.4361239510523661  0.1249138715528346  0.36162399031992015  1.0000
  H   H8        1.0  0.9361227749697605  0.8750875856289395  0.13837398259195774  1.0000
  H   H9        1.0  0.702238256267222  0.7927196587185676  0.6078607000080894  1.0000
  H   H10       1.0  0.20223609120606062  0.2072826615691596  0.8921382631232079  1.0000
  H   H11       1.0  0.2977660738551009  0.20728438778105124  0.39214504881213236  1.0000
  H   H12       1.0  0.7977648977724954  0.7927162062947701  0.10785605266610794  1.0000
  H   H13       1.0  0.9131245686917495  0.22208665480378187  0.7615416068007121  1.0000
  H   H14       1.0  0.413126858488944  0.7779122130601477  0.7384568277743853  1.0000
  H   H15       1.0  0.08687307914303231  0.7779113499541949  0.23845583755496597  1.0000
  H   H16       1.0  0.5868752442042009  0.22208579169782888  0.2615419895098867  1.0000
  H   H17       1.0  0.7018440013024616  0.1915007692944855  0.6618906070043453  1.0000
  H   H18       1.0  0.2018474048142451  0.8085015509932347  0.8381097290555389  1.0000
  H   H19       1.0  0.29815141910314946  0.8085015509932347  0.338108356126945  1.0000
  H   H20       1.0  0.7981558115934888  0.1915024955063842  0.16189190097889394  1.0000
  H   H21       1.0  0.6263541989810975  0.3286776501685438  0.7477117290839814  1.0000
  H   H22       1.0  0.126354261349114  0.6713238070132305  0.7522896761493741  1.0000
  H   H23       1.0  0.3736445625682806  0.6713229439072776  0.25228937239425164  1.0000
  H   H24       1.0  0.873644500200264  0.32868110259234123  0.24771363056877505  1.0000
  H   H25       1.0  0.8446455997127629  0.4417600653745878  0.7460343179180029  1.0000
  H   H26       1.0  0.3446434346516014  0.5582396655952876  0.7539671662694121  1.0000
  H   H27       1.0  0.1553553892657931  0.5582405287012406  0.25396815648883125  1.0000
  H   H28       1.0  0.6553519857540024  0.4417609284805336  0.2460353081374222  1.0000
  H   H29       1.0  0.885776193226235  0.31010447325530777  0.6415912199521047  1.0000
  H   H30       1.0  0.38577736930884754  0.6898969839264665  0.8584094988169542  1.0000
  H   H31       1.0  0.11422145460854691  0.6898978470324195  0.3584091161077795  1.0000
  H   H32       1.0  0.6142213922405304  0.3101053363612536  0.1415922101715239  1.0000
  H   H33       1.0  0.9585607828091369  0.3968431686906371  0.9124121625810063  1.0000
  H   H34       1.0  0.45855973146256457  0.6031548360673398  0.587587341167563  1.0000
  H   H35       1.0  0.041437978740241  0.603153972961394  0.08758635094814343  1.0000
  H   H36       1.0  0.5414368026576355  0.3968431686906371  0.41241284904530323  1.0000
  H   H37       1.0  0.7733043842381591  0.4420837301054021  0.8990505971368778  1.0000
  H   H38       1.0  0.2733044466061827  0.5579142746525747  0.6009489066116913  1.0000
  H   H39       1.0  0.2266943773112118  0.5579151377585205  0.10094783743821982  1.0000
  H   H40       1.0  0.7266943149431954  0.442084593211355  0.39905296028489096  1.0000
  H   H41       1.0  0.8523547321029028  0.2263849224290411  0.939041099741111  1.0000
  H   H42       1.0  0.3523559081855083  0.7736130823289358  0.5609590904717622  1.0000
  H   H43       1.0  0.1476406883027011  0.7736130823289358  0.06095909047176214  1.0000
  H   H44       1.0  0.6476428533638625  0.2263849224290411  0.4390410997411109  1.0000
  H   H45       1.0  0.7909422821957861  0.36245443837072594  0.030057577518022103  1.0000
  H   H46       1.0  0.2909423445638026  0.6375444294932038  0.46994154352137235  1.0000
  H   H47       1.0  0.2090531382098249  0.6375461557051025  0.9699414645673272  1.0000
  H   H48       1.0  0.7090530758418083  0.36245357526477306  0.5300586466914936  1.0000
  C   C1        1.0  0.6916490579480339  0.2524783414745855  0.7407451961095648  1.0000
  C   C2        1.0  0.1916513477452284  0.7475213894952901  0.7592569745421474  1.0000
  C   C3        1.0  0.3083474761721661  0.7475205263893442  0.2592552978584308  1.0000
  C   C4        1.0  0.8083485275187386  0.2524800676864842  0.24074443069121543  1.0000
  C   C5        1.0  0.9086652554744533  0.3613021919290133  0.7215051061518665  1.0000
  C   C6        1.0  0.4086664315570587  0.6386984021468081  0.7784953088620696  1.0000
  C   C7        1.0  0.0913346197895137  0.638699265252761  0.2784969855457859  1.0000
  C   C8        1.0  0.5913334437069012  0.3613013288230675  0.22150411593244715  1.0000
  C   C9        1.0  0.844351579061076  0.3678514398688647  0.8900174220785859  1.0000
  C   C10       1.0  0.3443538688582706  0.632146564889112  0.6099820816699835  1.0000
  C   C11       1.0  0.1556460687737129  0.6321457017831662  0.10998040498626692  1.0000
  C   C12       1.0  0.6556448926911074  0.3678514398688647  0.3900187950071797  1.0000
  C   C13       1.0  0.7861599917474607  0.3036760601482911  0.9505243980142526  1.0000
  C   C14       1.0  0.28616005411548434  0.6963228077156315  0.549475409489439  1.0000
  C   C15       1.0  0.2138354286581432  0.6963228077156315  0.04947403656084504  1.0000
  C   C16       1.0  0.7138364800047158  0.3036760601482911  0.45052577094284646  1.0000
  C   C17       1.0  0.9809731752129451  0.9493034768524494  0.014781975838445802  1.0000
  C   C18       1.0  0.48097546501014676  0.050697117223378996  0.4852163797826067  1.0000
  C   C19       1.0  0.0190300411947888  0.0506919385876827  0.985215930180459  1.0000
  C   C20       1.0  0.5190310925413613  0.9493112448059831  0.5147840231702574  1.0000
  C   C21       1.0  0.5583574684194659  0.0387871182352342  0.038934990931991806  1.0000
  C   C22       1.0  0.05836755421879051  0.961215202052486  0.46107015037797794  1.0000
  C   C23       1.0  0.4416379519861451  0.9612126127346414  0.961069239112611  1.0000
  C   C24       1.0  0.9416445719056626  0.038790570659031694  0.5389341465595906  1.0000
  N   N1        1.0  0.8467249048517972  0.2946764544196654  0.7784272038909352  1.0000
  N   N2        1.0  0.3467249672198136  0.7053224134442642  0.7215719171484595  1.0000
  N   N3        1.0  0.1532738566975809  0.7053224134442642  0.2215712306841624  1.0000
  N   N4        1.0  0.6532749080441533  0.2946773175256112  0.2784281941103544  1.0000
  O   O1        1.0  0.4381397744597848  0.1748997894743667  0.7970239213167218  1.0000
  O   O2        1.0  0.9381385983771794  0.8251008046014618  0.7029771801615186  1.0000
  O   O3        1.0  0.5618612145187711  0.8250964890717184  0.20297428845730542  1.0000
  O   O4        1.0  0.0618590494576026  0.17490410500410997  0.2970274994852247  1.0000
  O   O5        1.0  0.6893904447600505  0.0704769162531065  0.7927363178784292  1.0000
  O   O6        1.0  0.1893882796988891  0.9295228147167691  0.7072617339875009  1.0000
  O   O7        1.0  0.3106138853622724  0.9295236778227219  0.20726547006410817  1.0000
  O   O8        1.0  0.8106127092796671  0.0704760531471536  0.2927339547304157  1.0000
  O   O9        1.0  0.6307478030376004  0.2717066158029978  0.9276960878826515  1.0000
  O   O10       1.0  0.1307489791202059  0.7282922520609317  0.5723037196210471  1.0000
  O   O11       1.0  0.3692487310825996  0.7282939782728306  0.07230295420269786  1.0000
  O   O12       1.0  0.8692497824291721  0.2717066158029978  0.42769746081124543  1.0000
  O   O13       1.0  0.1951617761320676  0.2788643534367877  0.6888302560464867  1.0000
  O   O14       1.0  0.6951594863348731  0.7211362406390405  0.8111701589674567  1.0000
  O   O15       1.0  0.8048380991318994  0.7211362406390405  0.3111694725031597  1.0000
  O   O16       1.0  0.3048359340707307  0.2788643534367877  0.1888309425107835  1.0000
  O   O17       1.0  0.151887282033357  0.4574280276640081  0.8459578194345101  1.0000
  O   O18       1.0  0.6518872196653406  0.5425717033058673  0.6540443512172018  1.0000
  O   O19       1.0  0.84811259323061  0.5425717033058673  0.15404366475290493  1.0000
  O   O20       1.0  0.34811154188403753  0.4574263014521094  0.3459585848528591  1.0000
  O   O21       1.0  0.1263163950530597  0.4731624491114914  0.6765574003490827  1.0000
  O   O22       1.0  0.6263174463996322  0.5268398711762359  0.8234449951036995  1.0000
  O   O23       1.0  0.8736823664963185  0.5268390080702828  0.323443318419983  1.0000
  O   O24       1.0  0.3736824288643348  0.4731624491114914  0.17656014620627053  1.0000
  O   O25       1.0  0.031074864482761196  0.9581520390400298  0.09973360099154147  1.0000
  O   O26       1.0  0.5310803706876968  0.04184682882389979  0.4002634606549621  1.0000
  O   O27       1.0  0.9689261244957946  0.04184337640010229  0.9002677373488484  1.0000
  O   O28       1.0  0.4689339828659342  0.9581563545697732  0.5997282551241909  1.0000
  O   O29       1.0  0.9049554721760488  0.8670244498548099  0.9550380664443879  1.0000
  O   O30       1.0  0.4049599894024283  0.1329701024793764  0.5449561034979099  1.0000
  O   O31       1.0  0.0950488579462743  0.1329683762674776  0.044960987702040704  1.0000
  O   O32       1.0  0.5950510230074357  0.8670261760667015  0.4550359280974448  1.0000
  O   O33       1.0  0.5153157406700046  0.0881800823699095  0.1295088087118756  1.0000
  O   O34       1.0  0.0153202578963842  0.9118196485999661  0.3704906160826483  1.0000
  O   O35       1.0  0.4846785660210103  0.9118213748118646  0.8704960288429718  1.0000
  O   O36       1.0  0.9846807310821717  0.0881792192639566  0.6295023267780807  1.0000
  O   O37       1.0  0.6859156552400805  0.04672941917652909  0.0058644454506194005  1.0000
  O   O38       1.0  0.18592017246645307  0.9532729011111911  0.49413863646645956  1.0000
  O   O39       1.0  0.3140775377363454  0.9532685855814477  0.9941412364766294  1.0000
  O   O40       1.0  0.814081930226692  0.04672941917652909  0.5058582672719467  1.0000
  O   O41       1.0  0.6243472852903977  0.8207740544798909  0.6587474524202294  1.0000
  O   O42       1.0  0.12434512022922918  0.1792274027018834  0.8412512069559457  1.0000
  O   O43       1.0  0.3756548174027543  0.17922999201972795  0.3412528046856167  1.0000
  O   O44       1.0  0.8756514138909639  0.8207697389501475  0.1587459336446102  1.0000
