data_image0
_chemical_formula_structural       CdH10C14S2N6
_chemical_formula_sum              "Cd1 H10 C14 S2 N6"
_cell_length_a       3.821535530982287
_cell_length_b       12.588649912075098
_cell_length_c       9.172501129280585
_cell_angle_alpha    118.2616080138897
_cell_angle_beta     94.4448420822164
_cell_angle_gamma    91.14423439878502

_space_group_name_H-M_alt    "P 1"
_space_group_IT_number       1

loop_
  _space_group_symop_operation_xyz
  'x, y, z'

loop_
  _atom_site_type_symbol
  _atom_site_label
  _atom_site_symmetry_multiplicity
  _atom_site_fract_x
  _atom_site_fract_y
  _atom_site_fract_z
  _atom_site_occupancy
  Cd  Cd1       1.0  0.9999873619071239  0.9999998232352781  0.999999901055354  1.0000
  H   H1        1.0  0.2949216915187805  0.9975260065342507  0.33543354870080566  1.0000
  H   H2        1.0  0.7050169589624744  0.0024614490297096936  0.6645595316362503  1.0000
  H   H3        1.0  0.3309076573161747  0.12934134794014798  0.6473001335921111  1.0000
  H   H4        1.0  0.6690857488952915  0.8706549084358168  0.3526942842632507  1.0000
  H   H5        1.0  0.08429297088843411  0.33127622071357615  0.7620480630215312  1.0000
  H   H6        1.0  0.9157543932402844  0.6687293120155144  0.23795228285189302  1.0000
  H   H7        1.0  0.8070068669750015  0.2601872158537333  0.2576423695420615  1.0000
  H   H8        1.0  0.19295834482883828  0.7398099496515368  0.7423616126054284  1.0000
  H   H9        1.0  0.80018421124516  0.4943445439350923  0.7053087961459639  1.0000
  H   H10       1.0  0.19985457863523953  0.505660366065122  0.2946939790797529  1.0000
  C   C1        1.0  0.19017415528136897  0.08663494269803348  0.3921920147884066  1.0000
  C   C2        1.0  0.8097751234748359  0.9133554300436086  0.60780429776252  1.0000
  C   C3        1.0  0.20863645682143073  0.15970313970364455  0.5635359830046482  1.0000
  C   C4        1.0  0.7913488064470188  0.8402941659935051  0.43646059644876106  1.0000
  C   C5        1.0  0.07117266503185961  0.273143361908609  0.6278080662757333  1.0000
  C   C6        1.0  0.9288474371577847  0.7268586658821473  0.37219205077387574  1.0000
  C   C7        1.0  0.9147121593529023  0.30967840187798856  0.5171903969420271  1.0000
  C   C8        1.0  0.08529948451445084  0.690323898651563  0.48281258939521615  1.0000
  C   C9        1.0  0.9161629907825882  0.23182244761272125  0.3458427600046292  1.0000
  C   C10       1.0  0.08382444243852659  0.7681780480009122  0.6541599209502778  1.0000
  C   C11       1.0  0.7565803498784334  0.42520904707882295  0.5737158940270604  1.0000
  C   C12       1.0  0.2434504965121889  0.5747967933572935  0.426287895171761  1.0000
  C   C13       1.0  0.5585787727396581  0.21138471020794464  0.9815640748458279  1.0000
  C   C14       1.0  0.4414278954035424  0.7886212351328795  0.01844143646627579  1.0000
  S   S1        1.0  0.6391103923074866  0.34389396321406435  0.004598555881258845  1.0000
  S   S2        1.0  0.3609442521536368  0.6561071760937125  0.9954001639026302  1.0000
  N   N1        1.0  0.04852095524603331  0.1232465454898843  0.2850761892839273  1.0000
  N   N2        1.0  0.9514421190039714  0.8767493399195342  0.7149237188576831  1.0000
  N   N3        1.0  0.5644751554709444  0.4433549134945238  0.4658624854416972  1.0000
  N   N4        1.0  0.4355216121091985  0.5566434831466012  0.5341442309898383  1.0000
  N   N5        1.0  0.5054808769932821  0.11143584068992846  0.9655189894476451  1.0000
  N   N6        1.0  0.494500157235585  0.8885675584509513  0.03447913953676347  1.0000
