data_image0
_chemical_formula_structural       AlH24C45N3O12
_chemical_formula_sum              "Al1 H24 C45 N3 O12"
_cell_length_a       3.9949325458823775
_cell_length_b       23.594591672259526
_cell_length_c       23.552581275767785
_cell_angle_alpha    60.03664981317524
_cell_angle_beta     87.84707781350522
_cell_angle_gamma    88.11894334999566

_space_group_name_H-M_alt    "P 1"
_space_group_IT_number       1

loop_
  _space_group_symop_operation_xyz
  'x, y, z'

loop_
  _atom_site_type_symbol
  _atom_site_label
  _atom_site_symmetry_multiplicity
  _atom_site_fract_x
  _atom_site_fract_y
  _atom_site_fract_z
  _atom_site_occupancy
  Al  Al1       1.0  0.04161360597931459  0.4996236404152158  0.49908629835172064  1.0000
  H   H1        1.0  0.5826976177363933  0.32006317417209124  0.6751164506387468  1.0000
  H   H2        1.0  0.5593754418906158  0.2546714941377958  0.7942894259430843  1.0000
  H   H3        1.0  0.7404342405309309  0.15479062803807153  0.019458736169021097  1.0000
  H   H4        1.0  0.48765218708491886  0.6860908830335433  0.3167480484280249  1.0000
  H   H5        1.0  0.5319393030109297  0.8058467554156082  0.2613561270149347  1.0000
  H   H6        1.0  0.2722372764341898  0.8892537014146953  0.23548769914425807  1.0000
  H   H7        1.0  0.23646169226010022  0.0075625908019106005  0.17066904512177675  1.0000
  H   H8        1.0  0.4629844328034877  0.10332887082721946  0.10844611989109156  1.0000
  H   H9        1.0  0.5779126123509215  0.6750762457316739  0.5033566283418126  1.0000
  H   H10       1.0  0.5528116960759917  0.7940098278479154  0.45038859005777715  1.0000
  H   H11       1.0  0.7316634798354189  0.019660763522424  0.3236309764335061  1.0000
  H   H12       1.0  0.5665136724060034  0.3170795210102995  0.49594303286752267  1.0000
  H   H13       1.0  0.612874395163864  0.2613319949937817  0.4309429920219687  1.0000
  H   H14       1.0  0.3022879837059165  0.23726189739617348  0.37690357709429645  1.0000
  H   H15       1.0  0.24934045560697626  0.1720494845003842  0.3239404040976198  1.0000
  H   H16       1.0  0.4879771731982459  0.10834289876358129  0.28828331947585895  1.0000
  H   H17       1.0  0.5837378567941514  0.5036088363849557  0.31807050584267677  1.0000
  H   H18       1.0  0.5708381893273755  0.4489970574813287  0.2531125782049344  1.0000
  H   H19       1.0  0.7842810551221362  0.3196016469406189  0.15453631451527636  1.0000
  H   H20       1.0  0.4751508003087396  0.4965119621069219  0.6857480393468621  1.0000
  H   H21       1.0  0.517109785912176  0.43201609638637006  0.8057410649231971  1.0000
  H   H22       1.0  0.251773367523846  0.3759856630583869  0.8900201741562628  1.0000
  H   H23       1.0  0.2181532146436425  0.3223973589775966  0.008937921865218388  1.0000
  H   H24       1.0  0.4867296541621684  0.2877705209388708  0.10345358844588762  1.0000
  C   C1        1.0  0.5298546848241301  0.4499969357371043  0.5996294390972284  1.0000
  C   C2        1.0  0.5619047185015874  0.44914525266209887  0.4489759643401215  1.0000
  C   C3        1.0  0.5333214332685045  0.5999722718580642  0.44857790477611564  1.0000
  C   C4        1.0  0.562216741839123  0.3443039777877033  0.7042079001716673  1.0000
  C   C5        1.0  0.5579186602020911  0.3074494646005448  0.7720782658911461  1.0000
  C   C6        1.0  0.6562148281122121  0.23554848795351555  0.9243525883067962  1.0000
  C   C7        1.0  0.6310157390720619  0.2037414158107396  0.9924173559701404  1.0000
  C   C8        1.0  0.5111693088317608  0.7102232969439015  0.3455670263736651  1.0000
  C   C9        1.0  0.5302157617861809  0.7780450178133408  0.314753998595009  1.0000
  C   C10       1.0  0.38857841198652204  0.917616040950506  0.25410949943477595  1.0000
  C   C11       1.0  0.36459846581406924  0.9853939140971092  0.21720963834219728  1.0000
  C   C12       1.0  0.5289691303543479  0.4124813382931549  0.6725138971140866  1.0000
  C   C13       1.0  0.5429101172041301  0.3375005957943671  0.8108480694288575  1.0000
  C   C14       1.0  0.5346121698560256  0.3000512830115056  0.8834972323324596  1.0000
  C   C15       1.0  0.483225520068629  0.23403301001735594  0.02530980635113883  1.0000
  C   C16       1.0  0.4721530047809496  0.1995847234920802  0.09768896854197352  1.0000
  C   C17       1.0  0.46747858338165577  0.1309861468428863  0.13412856725980052  1.0000
  C   C18       1.0  0.5614886026321811  0.7042343681771042  0.45020610456972326  1.0000
  C   C19       1.0  0.5567589554015129  0.7719790528827701  0.4195520465185325  1.0000
  C   C20       1.0  0.6533629248846822  0.9245873466910768  0.33868611189770104  1.0000
  C   C21       1.0  0.6285373094886069  0.9924818243062816  0.3024383014512608  1.0000
  C   C22       1.0  0.5757132960349834  0.34569521991996777  0.4425598511372686  1.0000
  C   C23       1.0  0.5965523484015167  0.31461753120099434  0.4054844567944402  1.0000
  C   C24       1.0  0.4221716453327744  0.25437865047793196  0.3289015667544676  1.0000
  C   C25       1.0  0.38876375434477245  0.21744954874892394  0.2984550104833517  1.0000
  C   C26       1.0  0.5335849357479746  0.6726836963520241  0.41371824483744046  1.0000
  C   C27       1.0  0.5483034040722785  0.8108100806346953  0.3508454862834613  1.0000
  C   C28       1.0  0.5408738045603416  0.8833646866359148  0.3159144137989431  1.0000
  C   C29       1.0  0.48828397586761696  0.025003105197221497  0.2404069751294884  1.0000
  C   C30       1.0  0.47457346482185164  0.09726233219035409  0.20274498900474924  1.0000
  C   C31       1.0  0.4815261050989932  0.1336963493363967  0.23495030840541636  1.0000
  C   C32       1.0  0.5859742563615029  0.45033845792799815  0.342602124975521  1.0000
  C   C33       1.0  0.5865359202996175  0.4190941693274154  0.3059402154663787  1.0000
  C   C34       1.0  0.7101516632928621  0.3361549413404957  0.2348765006611445  1.0000
  C   C35       1.0  0.6749766326179768  0.2999283216249964  0.20363266230449986  1.0000
  C   C36       1.0  0.5014185840310716  0.44340420867889924  0.7099905119368587  1.0000
  C   C37       1.0  0.5195868470132511  0.4063932641542749  0.7779530981771645  1.0000
  C   C38       1.0  0.3739256361071029  0.32832134721490996  0.9181561028573173  1.0000
  C   C39       1.0  0.3509681252249521  0.2974552646838546  0.9861452170530643  1.0000
  C   C40       1.0  0.5752836614555649  0.4140043748856074  0.41114841914551203  1.0000
  C   C41       1.0  0.5973161282310429  0.35043240657704894  0.3364395209462004  1.0000
  C   C42       1.0  0.5881374699253215  0.3148977024855952  0.2994953065483302  1.0000
  C   C43       1.0  0.5162819943871922  0.23953985657032456  0.2344999916856879  1.0000
  C   C44       1.0  0.48808345771244904  0.20214574525028442  0.19999558639575812  1.0000
  C   C45       1.0  0.480538448269108  0.23449251704326451  0.13131112371173972  1.0000
  N   N1        1.0  0.8934108009796164  0.3976230984349058  0.1942268739099049  1.0000
  N   N2        1.0  0.8285775507196718  0.19499140019161837  0.900170240240499  1.0000
  N   N3        1.0  0.8130075183669379  0.9012132350255372  0.4024620307742097  1.0000
  O   O1        1.0  0.3059226642426935  0.5717789386729422  0.4354945617947338  1.0000
  O   O2        1.0  0.2916820955052373  0.491004200552318  0.5714693859337602  1.0000
  O   O3        1.0  0.3210923928519237  0.4363627399922691  0.49054450704832697  1.0000
  O   O4        1.0  0.7625368487991011  0.5707500676569095  0.49032560917719803  1.0000
  O   O5        1.0  0.7913834487062061  0.49046051053955614  0.43627267070760223  1.0000
  O   O6        1.0  0.7710248535399842  0.43732588033545733  0.570361595441753  1.0000
  O   O7        1.0  0.08674330818252682  0.41574760520830967  0.22168394486088522  1.0000
  O   O8        1.0  0.8490966323086442  0.4264893044418016  0.1343196710406148  1.0000
  O   O9        1.0  0.0507128365347356  0.22037855175553742  0.8572443560860991  1.0000
  O   O10       1.0  0.7449966470768675  0.13701092525825231  0.9263501442448432  1.0000
  O   O11       1.0  0.031718217483458454  0.8577710060003911  0.41963505160433817  1.0000
  O   O12       1.0  0.7228873640421015  0.9285235478850852  0.43391993120031475  1.0000
