data_image0
_chemical_formula_structural       Co2Ni2H16C28N12
_chemical_formula_sum              "Co2 Ni2 H16 C28 N12"
_cell_length_a       6.538795846347751
_cell_length_b       8.975541655252018
_cell_length_c       11.48225391127883
_cell_angle_alpha    90.77770686762807
_cell_angle_beta     92.10962025225227
_cell_angle_gamma    68.60421481923852

_space_group_name_H-M_alt    "P 1"
_space_group_IT_number       1

loop_
  _space_group_symop_operation_xyz
  'x, y, z'

loop_
  _atom_site_type_symbol
  _atom_site_label
  _atom_site_symmetry_multiplicity
  _atom_site_fract_x
  _atom_site_fract_y
  _atom_site_fract_z
  _atom_site_occupancy
  Co  Co1       1.0  0.3645773850196862  0.2704950881035231  0.7500607906747021  1.0000
  Co  Co2       1.0  0.6351512912755767  0.7298542271943519  0.24992632364804018  1.0000
  Ni  Ni1       1.0  0.9994672754485804  7.266240907460011e-05  7.3869603411985e-06  1.0000
  Ni  Ni2       1.0  0.00019740174676029213  0.00021782138496459998  0.4999864299367971  1.0000
  H   H1        1.0  0.9312446842047137  0.8528909121761145  0.7073127021108194  1.0000
  H   H2        1.0  0.2161480690228147  0.8526807711009636  0.7928693958792082  1.0000
  H   H3        1.0  0.07009298799912497  0.1470666857385083  0.2918846085348505  1.0000
  H   H4        1.0  0.7830206754741411  0.14722130593703037  0.2079908090265761  1.0000
  H   H5        1.0  0.6122255459982713  0.8288498038705967  0.5933476670620479  1.0000
  H   H6        1.0  0.5595006409235594  0.8282521336101214  0.906713014294354  1.0000
  H   H7        1.0  0.38836277258361207  0.1712587675581361  0.40620598547680226  1.0000
  H   H8        1.0  0.4404424971610936  0.17155757168844588  0.0936387432638881  1.0000
  H   H9        1.0  0.6152488498141365  0.5524081213969225  0.5491815106975579  1.0000
  H   H10       1.0  0.8327854873447647  0.5516167714640902  0.9509287921198392  1.0000
  H   H11       1.0  0.38366568832464765  0.4475180030388159  0.45214496614955385  1.0000
  H   H12       1.0  0.16865968960112807  0.447913595622218  0.0477398685407238  1.0000
  H   H13       1.0  0.933915893601828  0.31778971523753086  0.6149780557084696  1.0000
  H   H14       1.0  0.7483491854411782  0.3172866880252556  0.8851559752417518  1.0000
  H   H15       1.0  0.06444427087481594  0.6822598208849655  0.38672073884950464  1.0000
  H   H16       1.0  0.2531752738995934  0.6824984613620798  0.11314377386889872  1.0000
  C   C1        1.0  0.10490893471396838  0.597589702900649  0.7168546391172583  1.0000
  C   C2        1.0  0.29755377777885167  0.5974435044649837  0.7833464173757463  1.0000
  C   C3        1.0  0.8950947977584249  0.4024221599243774  0.2832498810951023  1.0000
  C   C4        1.0  0.702595007588556  0.4025132648248685  0.21658113330416026  1.0000
  C   C5        1.0  0.9290663719692136  0.7357829341630475  0.6832420969748441  1.0000
  C   C6        1.0  0.33544531563050123  0.7355184927688684  0.8168859100783976  1.0000
  C   C7        1.0  0.0714244748200343  0.2642215898485106  0.3164900525844061  1.0000
  C   C8        1.0  0.6644004637267996  0.2643785681520541  0.18339493998500703  1.0000
  C   C9        1.0  0.7500155740859215  0.7225955049778888  0.6211196654090402  1.0000
  C   C10       1.0  0.5278326336195465  0.7220850238200569  0.8789556273523759  1.0000
  C   C11       1.0  0.25013934623459017  0.2774581841971084  0.3788666122127183  1.0000
  C   C12       1.0  0.4723949706061886  0.2777281579261555  0.12102510333541261  1.0000
  C   C13       1.0  0.7516938987953454  0.5698976561804797  0.5965643967438012  1.0000
  C   C14       1.0  0.6787935826700889  0.5693265766763388  0.9035543039515446  1.0000
  C   C15       1.0  0.24765535129807856  0.4301192381495014  0.40428166545584093  1.0000
  C   C16       1.0  0.3221358096749682  0.4304265117517829  0.0955795947372522  1.0000
  C   C17       1.0  0.9312823321969289  0.4369247979486842  0.6325626731928012  1.0000
  C   C18       1.0  0.6319145809625508  0.4365070475686252  0.8675931721005413  1.0000
  C   C19       1.0  0.06779408823895497  0.5630718498791012  0.36852201459957706  1.0000
  C   C20       1.0  0.36909856294512616  0.5632950497196276  0.13132885556493082  1.0000
  C   C21       1.0  0.10362027097740878  0.1464722016186855  0.9380766472008092  1.0000
  C   C22       1.0  0.7494570638288209  0.14661000598815116  0.5619795316940994  1.0000
  C   C23       1.0  0.8959892286729241  0.853310048559763  0.062168328374937715  1.0000
  C   C24       1.0  0.2506750843508315  0.8533551287970836  0.43784078253539604  1.0000
  C   C25       1.0  0.17329828520392712  0.06202479068413418  0.6069821174775569  1.0000
  C   C26       1.0  0.7644148792838836  0.0617520840806236  0.8930767253443648  1.0000
  C   C27       1.0  0.8268130026122761  0.9385230501529521  0.3930089827703043  1.0000
  C   C28       1.0  0.2347265619048784  0.9384358363788294  0.10685032160790803  1.0000
  N   N1        1.0  0.10810761031129353  0.44808578789224646  0.6900806612565944  1.0000
  N   N2        1.0  0.44377576084684006  0.4478833911544697  0.8101256817175939  1.0000
  N   N3        1.0  0.8914235858063152  0.551920254553508  0.31043809764099  1.0000
  N   N4        1.0  0.5567010106248276  0.5520313725787602  0.18938218660462516  1.0000
  N   N5        1.0  0.16982426428960912  0.23816675595127626  0.8961890675097665  1.0000
  N   N6        1.0  0.5915384867275152  0.23831083847545642  0.603981754363339  1.0000
  N   N7        1.0  0.8307270750422757  0.7612826928276988  0.10432659779481672  1.0000
  N   N8        1.0  0.40805255170868554  0.7613588617723577  0.39558407448988225  1.0000
  N   N9        1.0  0.2693639412223519  0.12050695718274804  0.6692786205077752  1.0000
  N   N10       1.0  0.609767800458407  0.12031471578944061  0.8307933269539518  1.0000
  N   N11       1.0  0.7300339382589272  0.8803186569694857  0.3309318201168665  1.0000
  N   N12       1.0  0.389778331789536  0.8803205679315482  0.16896181123686924  1.0000
