data_image0
_chemical_formula_structural       Cd2H44C52O12
_chemical_formula_sum              "Cd2 H44 C52 O12"
_cell_length_a       6.673530296337648
_cell_length_b       7.4030948096219555
_cell_length_c       23.0388
_cell_angle_alpha    90.10908741829138
_cell_angle_beta     98.15574220917011
_cell_angle_gamma    90.00033466954415

_space_group_name_H-M_alt    "P 1"
_space_group_IT_number       1

loop_
  _space_group_symop_operation_xyz
  'x, y, z'

loop_
  _atom_site_type_symbol
  _atom_site_label
  _atom_site_symmetry_multiplicity
  _atom_site_fract_x
  _atom_site_fract_y
  _atom_site_fract_z
  _atom_site_occupancy
  Cd  Cd1       1.0  0.5000049259295735  4.0523667906e-06  0.5000001180909165  1.0000
  Cd  Cd2       1.0  0.9999965052612507  0.5000012762253832  0.5000004431391147  1.0000
  H   H1        1.0  0.2818370859419446  0.8168058562444714  0.3677061389456071  1.0000
  H   H2        1.0  0.9144294049454302  0.6844987821708488  0.6324796103727266  1.0000
  H   H3        1.0  0.7181506148674258  0.1831912930505695  0.6322933973033642  1.0000
  H   H4        1.0  0.08556284222974848  0.31551457659135457  0.3675166502143483  1.0000
  H   H5        1.0  0.8746614789016574  0.7386208422119722  0.3190784403120119  1.0000
  H   H6        1.0  0.5556947522046229  0.7602618316526275  0.6799092017570487  1.0000
  H   H7        1.0  0.1253322744452348  0.2613682023494945  0.6809269823511315  1.0000
  H   H8        1.0  0.44430354160036245  0.2397245113309765  0.3200881588775388  1.0000
  H   H9        1.0  0.1782137905669501  0.08069342907471373  0.011138982286794899  1.0000
  H   H10       1.0  0.1669189993347686  0.4180570166018782  0.9886053413981273  1.0000
  H   H11       1.0  0.8217860191152865  0.9192996678535368  0.9888632193261628  1.0000
  H   H12       1.0  0.833068704428463  0.5819495882156716  0.011389860253210298  1.0000
  H   H13       1.0  0.1495369419618129  0.8994862958345919  0.26585804232967547  1.0000
  H   H14       1.0  0.8839301343426982  0.6024869831008672  0.7345595488347456  1.0000
  H   H15       1.0  0.8504598444055133  0.10052030898295783  0.734141439007594  1.0000
  H   H16       1.0  0.11606059990908338  0.3975290772391916  0.2654375193351726  1.0000
  H   H17       1.0  0.12289089524129788  0.09766339039691732  0.1949733406290619  1.0000
  H   H18       1.0  0.9280078340918008  0.4032442652002076  0.8050029581720749  1.0000
  H   H19       1.0  0.8771240521144391  0.9023297065313329  0.8050312192395522  1.0000
  H   H20       1.0  0.07199197854428967  0.5967582872505588  0.19499187049056133  1.0000
  H   H21       1.0  0.746586647986973  0.8322359181869601  0.21728218579246317  1.0000
  H   H22       1.0  0.5293217141560402  0.6676071666065582  0.7819694535039403  1.0000
  H   H23       1.0  0.2534207301100366  0.1677558279523623  0.7827216281549595  1.0000
  H   H24       1.0  0.47066295363289606  0.3323724224323996  0.2180260409120578  1.0000
  H   H25       1.0  0.5846269087946041  0.7684205967872375  0.1334968934769307  1.0000
  H   H26       1.0  0.4509452672108337  0.731789902595132  0.866044702726498  1.0000
  H   H27       1.0  0.41539712707294985  0.2315914111860309  0.866505881184665  1.0000
  H   H28       1.0  0.5490530295480126  0.268205895910981  0.1339491914112259  1.0000
  H   H29       1.0  0.4706975224807123  0.8694501531966452  0.032609822974833884  1.0000
  H   H30       1.0  0.4377193743872567  0.6296864689867122  0.9669531451468956  1.0000
  H   H31       1.0  0.5293083439588387  0.1305483468873234  0.9673930648851297  1.0000
  H   H32       1.0  0.562284975753073  0.3703039263636826  0.03304142848788421  1.0000
  H   H33       1.0  0.005117872721896799  0.1932681784651678  0.09352784820931248  1.0000
  H   H34       1.0  0.9115108472961423  0.3064899557528876  0.9064556361204623  1.0000
  H   H35       1.0  0.9948879945616154  0.8067330231966638  0.9064763434892953  1.0000
  H   H36       1.0  0.08848442530383947  0.6935166490646623  0.09353857440678578  1.0000
  H   H37       1.0  0.9132139156042527  0.9269937615963715  0.5524432030606263  1.0000
  H   H38       1.0  0.36032211949095216  0.5720374990504737  0.44745484967391747  1.0000
  H   H39       1.0  0.08679951925007148  0.0730033876986695  0.4475560885291898  1.0000
  H   H40       1.0  0.6396776923011771  0.4279623518224227  0.5525495264096847  1.0000
  H   H41       1.0  0.8737282663426668  0.1111847875819265  0.5173449638672665  1.0000
  H   H42       1.0  0.3565953843640414  0.3884139535424467  0.482939492616218  1.0000
  H   H43       1.0  0.1262836564322285  0.8888177648688398  0.48265340079135644  1.0000
  H   H44       1.0  0.6434074570726906  0.6115926512751033  0.5170645780465506  1.0000
  C   C1        1.0  0.382578030510146  0.8159332465959681  0.3343677176503874  1.0000
  C   C2        1.0  0.04837141596008369  0.6848229715139453  0.6656213665921767  1.0000
  C   C3        1.0  0.6174081569538501  0.1840652534880007  0.6656330593880639  1.0000
  C   C4        1.0  0.9516284004738222  0.3151917380371857  0.33437390371454256  1.0000
  C   C5        1.0  0.6707723049149691  0.7148739728301123  0.41072236564026804  1.0000
  C   C6        1.0  0.26058891306334425  0.7847408286343127  0.5888752811421368  1.0000
  C   C7        1.0  0.3292244780765258  0.2851218256760006  0.5892788451485842  1.0000
  C   C8        1.0  0.7394093870713332  0.21526577618323736  0.4111225261990086  1.0000
  C   C9        1.0  0.3635767801195442  0.925967162009897  0.1723832288856997  1.0000
  C   C10       1.0  0.19111404311829006  0.5747201658646048  0.8274148491007978  1.0000
  C   C11       1.0  0.6364306000873653  0.0740313380740716  0.8276184190285321  1.0000
  C   C12       1.0  0.8088766881796374  0.425286438952945  0.1725822131629045  1.0000
  C   C13       1.0  0.4375900982120412  0.8700309924363625  0.23331186459621728  1.0000
  C   C14       1.0  0.20435734652163964  0.6307968174868182  0.7664623825007837  1.0000
  C   C15       1.0  0.5624081985467981  0.1299648060697507  0.7666911445995835  1.0000
  C   C16       1.0  0.7956333860422261  0.3692138396975224  0.23353468229415597  1.0000
  C   C17       1.0  0.5871279507970256  0.7693756045604445  0.34978425598433915  1.0000
  C   C18       1.0  0.23755967341238457  0.7304877420670197  0.649857306790814  1.0000
  C   C19       1.0  0.4128688313505079  0.2306174923678128  0.6502204255200965  1.0000
  C   C20       1.0  0.7624416551009573  0.2695215643283859  0.35014236285018535  1.0000
  C   C21       1.0  0.7161570737695511  0.7746544876972054  0.3067529749117313  1.0000
  C   C22       1.0  0.40960970183258627  0.7249143869436097  0.6925855478131737  1.0000
  C   C23       1.0  0.28384727679275557  0.22533725844211724  0.6932498465240968  1.0000
  C   C24       1.0  0.5903855682355112  0.275084113140359  0.307415168407374  1.0000
  C   C25       1.0  0.23025598935160466  0.0383340390322999  0.056093718102282294  1.0000
  C   C26       1.0  0.17399718950088064  0.4610728900640737  0.9436679959713529  1.0000
  C   C27       1.0  0.7697498762439918  0.9616617594738133  0.9439117723725018  1.0000
  C   C28       1.0  0.825995052610537  0.5389242592309742  0.056328688541164205  1.0000
  C   C29       1.0  0.3092662730924687  0.8643752391882487  0.2768862476916709  1.0000
  C   C30       1.0  0.03254665327308  0.6368821216145335  0.7232043310344878  1.0000
  C   C31       1.0  0.690741105426518  0.1356178577400087  0.7231158308979602  1.0000
  C   C32       1.0  0.967434996686684  0.3631285355697997  0.2767927945783626  1.0000
  C   C33       1.0  0.19860366419050018  0.044940747686830214  0.1595286507309268  1.0000
  C   C34       1.0  0.03897955773847878  0.45564947251184423  0.8403704068740651  1.0000
  C   C35       1.0  0.8014067414412052  0.9550509984524924  0.8404752876273205  1.0000
  C   C36       1.0  0.9610096564162659  0.544346325994269  0.1596265864342641  1.0000
  C   C37       1.0  0.6427323593808367  0.824938956389424  0.2496846787845328  1.0000
  C   C38       1.0  0.3931637328770207  0.6751756369789491  0.7497577504215585  1.0000
  C   C39       1.0  0.35725685308598537  0.1750514389609776  0.7503162176022754  1.0000
  C   C40       1.0  0.606831537191077  0.32482286310502684  0.2502399274462874  1.0000
  C   C41       1.0  0.4594817941270861  0.863880850440026  0.1254164434098826  1.0000
  C   C42       1.0  0.33388608783216256  0.6363161410530438  0.8742408829998992  1.0000
  C   C43       1.0  0.5405331549165666  0.13611764964394985  0.8745859495817853  1.0000
  C   C44       1.0  0.6661167514946696  0.3636837098198599  0.12575710673876017  1.0000
  C   C45       1.0  0.3939274176939803  0.9198480881589435  0.0681194561574614  1.0000
  C   C46       1.0  0.32558961493359106  0.5797234880597344  0.9315254532461735  1.0000
  C   C47       1.0  0.6060799637788676  0.0801544642918159  0.9318843645399182  1.0000
  C   C48       1.0  0.6744011121445368  0.4202696088685158  0.0684707324793052  1.0000
  C   C49       1.0  0.13256169853810457  0.1004081935018064  0.10212624727479638  1.0000
  C   C50       1.0  0.030315376095174398  0.39949447513171793  0.897773822097065  1.0000
  C   C51       1.0  0.8674471941702107  0.8995862542153789  0.8978798008174493  1.0000
  C   C52       1.0  0.9696783818934944  0.6005094281079764  0.10222466504112757  1.0000
  O   O1        1.0  0.5535335576166815  0.7229854603521844  0.4512609435503378  1.0000
  O   O2        1.0  0.10343757950504788  0.7764064609388585  0.5484466000545679  1.0000
  O   O3        1.0  0.4464723084008923  0.27701168894285644  0.5487436796674244  1.0000
  O   O4        1.0  0.8965652644635609  0.22360824861226553  0.451551398965286  1.0000
  O   O5        1.0  0.8215092717796536  0.0334104133840114  0.5470329757497865  1.0000
  O   O6        1.0  0.2746004574921698  0.4652900531021943  0.45309184514917433  1.0000
  O   O7        1.0  0.17849659550385866  0.9665907882778201  0.4529668754449787  1.0000
  O   O8        1.0  0.7254069260905708  0.5347192532932183  0.5469132819180871  1.0000
  O   O9        1.0  0.8523867070494475  0.6620972985628415  0.42048489690905905  1.0000
  O   O10       1.0  0.4324983288176369  0.8378524985561171  0.579073183881043  1.0000
  O   O11       1.0  0.1476206761113161  0.3379106570436434  0.5795150207098416  1.0000
  O   O12       1.0  0.5674984562837507  0.1621500538946421  0.420926294924989  1.0000
