data_image0
_chemical_formula_structural       Ca4H30C32N2O24
_chemical_formula_sum              "Ca4 H30 C32 N2 O24"
_cell_length_a       9.572462962662193
_cell_length_b       10.4511671378376
_cell_length_c       11.429055108188862
_cell_angle_alpha    75.71096520222308
_cell_angle_beta     83.64208050930321
_cell_angle_gamma    81.22119012708315

_space_group_name_H-M_alt    "P 1"
_space_group_IT_number       1

loop_
  _space_group_symop_operation_xyz
  'x, y, z'

loop_
  _atom_site_type_symbol
  _atom_site_label
  _atom_site_symmetry_multiplicity
  _atom_site_fract_x
  _atom_site_fract_y
  _atom_site_fract_z
  _atom_site_occupancy
  Ca  Ca1       1.0  0.5000009532054008  1.2708187568999147e-06  0.49999741092872807  1.0000
  Ca  Ca2       1.0  0.4541815559618171  0.4087003383956472  0.36578715716846943  1.0000
  Ca  Ca3       1.0  0.545813420014717  0.5913023259999974  0.6342112700899635  1.0000
  Ca  Ca4       1.0  0.4999983507979948  0.5000025407779062  0.9999989970547604  1.0000
  H   H1        1.0  0.042545574117326575  0.7227559534302442  0.9571955818071347  1.0000
  H   H2        1.0  0.9574464973757062  0.27724472368642233  0.04280616876000208  1.0000
  H   H3        1.0  0.7600012274308482  0.6838200441519362  0.9958157499590996  1.0000
  H   H4        1.0  0.23999177720109086  0.316181621953021  0.004183945898468277  1.0000
  H   H5        1.0  0.3552000627996748  0.7852657074934299  0.12472500364533094  1.0000
  H   H6        1.0  0.6448108620909777  0.21473599845431582  0.8752688099353989  1.0000
  H   H7        1.0  0.34674528494102924  0.052104018995926496  0.013836630242288091  1.0000
  H   H8        1.0  0.653271955335306  0.9478977051259394  0.9861557762246846  1.0000
  H   H9        1.0  0.19247151984590966  0.19637788878625173  0.7232418829309213  1.0000
  H   H10       1.0  0.8075322246648611  0.8036218464447275  0.2767608577686147  1.0000
  H   H11       1.0  0.2099880729467714  0.0190863963512626  0.7667436763994431  1.0000
  H   H12       1.0  0.7900167220770484  0.9809133428049391  0.23325897558532926  1.0000
  H   H13       1.0  0.03805329528375269  0.1158133115989628  0.7601137097246848  1.0000
  H   H14       1.0  0.9619534587773018  0.8841874312251006  0.23988854848612115  1.0000
  H   H15       1.0  0.10270373949602166  0.2650908746484291  0.33712895079550986  1.0000
  H   H16       1.0  0.8973006903443942  0.734903892249754  0.6628766212765953  1.0000
  H   H17       1.0  0.9544030767306779  0.17389941546692714  0.3600208078235525  1.0000
  H   H18       1.0  0.04560095175784079  0.8260983281291914  0.639982365564869  1.0000
  H   H19       1.0  0.13146345323868047  0.08699650716406641  0.3708752249912309  1.0000
  H   H20       1.0  0.8685384496090052  0.9130012393359764  0.6291298754770692  1.0000
  H   H21       1.0  0.8675689976887923  0.19130675392424476  0.6405684339826581  1.0000
  H   H22       1.0  0.1324321755456807  0.8086889808841848  0.3594345634137709  1.0000
  H   H23       1.0  0.8583784581712093  0.2951890393979184  0.49222040774381537  1.0000
  H   H24       1.0  0.14162194852795545  0.7048046998504205  0.5077831110562628  1.0000
  H   H25       1.0  0.9653248020580205  0.3306444441545011  0.5957734089462151  1.0000
  H   H26       1.0  0.034674115854109316  0.6693522839981014  0.40423042436047046  1.0000
  H   H27       1.0  0.2397978004578079  0.470593500272912  0.5597043609136776  1.0000
  H   H28       1.0  0.7602031134136383  0.5294042154160151  0.4402964541435069  1.0000
  H   H29       1.0  0.18147417249500822  0.45386637320768825  0.43968946482350907  1.0000
  H   H30       1.0  0.8185222307317516  0.5461333291695922  0.5603130220541885  1.0000
  C   C1        1.0  0.20600117200578444  0.5570277718044777  0.16345925290001873  1.0000
  C   C2        1.0  0.7939925745467348  0.4429759006149112  0.8365416712042588  1.0000
  C   C3        1.0  0.0551962121806682  0.5872974551506401  0.13684429231332024  1.0000
  C   C4        1.0  0.944795433345746  0.4127062094183174  0.8631568092204773  1.0000
  C   C5        1.0  0.9896034707943002  0.6630993407527371  0.03614519469252288  1.0000
  C   C6        1.0  0.010388187039481486  0.3369043184390392  0.9638550320160991  1.0000
  C   C7        1.0  0.8450392787732142  0.6425593852696566  0.05533184475221725  1.0000
  C   C8        1.0  0.1549537381660926  0.35744227545811913  0.9446669762801747  1.0000
  C   C9        1.0  0.8304896768542418  0.5554160003391216  0.1669890160253118  1.0000
  C   C10       1.0  0.16950241925351853  0.4445846660231825  0.8330109848914659  1.0000
  C   C11       1.0  0.7090234857929328  0.4928115218833257  0.23450456742545364  1.0000
  C   C12       1.0  0.29097085332981004  0.5071881565119795  0.7654954724062506  1.0000
  C   C13       1.0  0.4462640482923135  0.7429771353207784  0.3862588364897519  1.0000
  C   C14       1.0  0.5537382812755993  0.2570255565513833  0.6137389697653364  1.0000
  C   C15       1.0  0.4192211198857334  0.8503974121798662  0.27732109912660974  1.0000
  C   C16       1.0  0.5807843981434218  0.14960527533640544  0.7226738165086674  1.0000
  C   C17       1.0  0.37787033004613585  0.865056697563425  0.16264946173384934  1.0000
  C   C18       1.0  0.6221387654887991  0.1349430142762031  0.837345836790469  1.0000
  C   C19       1.0  0.3737363630216919  0.0032652180908314997  0.1052373210472908  1.0000
  C   C20       1.0  0.6262779850785094  0.9967345133748821  0.8947575339032169  1.0000
  C   C21       1.0  0.4136945629218047  0.06513745415891492  0.1872565972690623  1.0000
  C   C22       1.0  0.586317671844931  0.9348622748335417  0.8127393099361413  1.0000
  C   C23       1.0  0.4378850257596056  0.20074229910248684  0.19051765645561153  1.0000
  C   C24       1.0  0.5621174704118984  0.7992593861978817  0.8094786164935712  1.0000
  C   C25       1.0  0.15477451819011626  0.10306697221384552  0.5861210485108971  1.0000
  C   C26       1.0  0.8452302522189823  0.896932777696712  0.41388335312422697  1.0000
  C   C27       1.0  0.14625210317527856  0.10817864933697048  0.7173853217114685  1.0000
  C   C28       1.0  0.85374669241682  0.8918260654118342  0.2826193166004245  1.0000
  C   C29       1.0  0.06018655736004059  0.1736295283596334  0.3884674786930873  1.0000
  C   C30       1.0  0.9398185585636225  0.8263682030301639  0.6115329815050501  1.0000
  C   C31       1.0  0.9285984114881033  0.25067149163091784  0.5650272110866725  1.0000
  C   C32       1.0  0.0713995978998483  0.7493242367790387  0.4349769272792159  1.0000
  N   N1        1.0  0.0482509276844496  0.1676633177274027  0.5182646750504318  1.0000
  N   N2        1.0  0.9517512837557117  0.8323324263834166  0.4817391084564094  1.0000
  O   O1        1.0  0.29329703137295127  0.6073326665529918  0.07854605818421591  1.0000
  O   O2        1.0  0.7066962449293753  0.3926670132942718  0.9214549451874207  1.0000
  O   O3        1.0  0.23741242694163836  0.4069858971811867  0.5081178059535247  1.0000
  O   O4        1.0  0.7625872944278809  0.593012810399955  0.491882881473984  1.0000
  O   O5        1.0  0.23729015590966904  0.4823347027020901  0.2655455425901892  1.0000
  O   O6        1.0  0.7627016439129829  0.5176679606722558  0.7344549004628789  1.0000
  O   O7        1.0  0.9580943119281996  0.5224746340081339  0.218264979063207  1.0000
  O   O8        1.0  0.04189865578165101  0.47752704822835307  0.7817373412698957  1.0000
  O   O9        1.0  0.7136625419614687  0.43662009721960965  0.3467003057895326  1.0000
  O   O10       1.0  0.2863320811390224  0.5633775895408348  0.6533001667310573  1.0000
  O   O11       1.0  0.6001120398549772  0.49834839627831673  0.17700760484942896  1.0000
  O   O12       1.0  0.39988136612886643  0.5016502931286979  0.8229944896918298  1.0000
  O   O13       1.0  0.4775449310250293  0.7806710973515578  0.4777024398356744  1.0000
  O   O14       1.0  0.5224544259146809  0.21933057079597518  0.5222932244326159  1.0000
  O   O15       1.0  0.4383352568733159  0.62419115256192  0.38574589058696773  1.0000
  O   O16       1.0  0.5616652556462326  0.3758095398249425  0.614252525786533  1.0000
  O   O17       1.0  0.4405198692716822  0.9721018468466551  0.29260750380434086  1.0000
  O   O18       1.0  0.5594868658741275  0.027899838023046193  0.7073857898102606  1.0000
  O   O19       1.0  0.46743411827950615  0.2131636458803357  0.2930814756042395  1.0000
  O   O20       1.0  0.5325650597492454  0.7868390342161788  0.7069165967951393  1.0000
  O   O21       1.0  0.42835668674092625  0.2904657031373716  0.09358851736156029  1.0000
  O   O22       1.0  0.5716391977597864  0.7095379610009189  0.9064096048376626  1.0000
  O   O23       1.0  0.26184630614429233  0.0394092982293301  0.5416751832108347  1.0000
  O   O24       1.0  0.7381574383664783  0.9605904370016491  0.4583275574887081  1.0000
