data_image0
_chemical_formula_structural       Mg6H60C64N8O40
_chemical_formula_sum              "Mg6 H60 C64 N8 O40"
_cell_length_a       13.319001684000488
_cell_length_b       14.482166703005518
_cell_length_c       14.708308099946333
_cell_angle_alpha    91.77579986130428
_cell_angle_beta     89.99999670578296
_cell_angle_gamma    90.0000308654686

_space_group_name_H-M_alt    "P 1"
_space_group_IT_number       1

loop_
  _space_group_symop_operation_xyz
  'x, y, z'

loop_
  _atom_site_type_symbol
  _atom_site_label
  _atom_site_symmetry_multiplicity
  _atom_site_fract_x
  _atom_site_fract_y
  _atom_site_fract_z
  _atom_site_occupancy
  Mg  Mg1       1.0  7.508070254000001e-07  1.8470016415876832e-13  0.9999999999999861  1.0000
  Mg  Mg2       1.0  0.49999931646542  0.5000004812140943  0.5000002112565769  1.0000
  Mg  Mg3       1.0  0.05072381214871059  0.24386567262635597  0.9884297069276473  1.0000
  Mg  Mg4       1.0  0.5507237673363433  0.2561340266759374  0.5115695933006776  1.0000
  Mg  Mg5       1.0  0.949276322395974  0.7561345989681317  0.011570696189615102  1.0000
  Mg  Mg6       1.0  0.44927636720816366  0.7438655523744019  0.48843011048277435  1.0000
  H   H1        1.0  0.18572796302031952  0.3705354065845939  0.9399738233375035  1.0000
  H   H2        1.0  0.6857285920113085  0.1294643613375968  0.5600261516947145  1.0000
  H   H3        1.0  0.8142714207171764  0.6294641707554977  0.06002520050802222  1.0000
  H   H4        1.0  0.3142722933402027  0.8705352194229976  0.4399742320266712  1.0000
  H   H5        1.0  0.19122915064298238  0.35987926796060077  0.049484551247587716  1.0000
  H   H6        1.0  0.6912282599688383  0.14011992465066214  0.4505149340071101  1.0000
  H   H7        1.0  0.8087717347087705  0.640121000213938  0.9505144919937651  1.0000
  H   H8        1.0  0.3087711237684658  0.8598789618553511  0.549484070442553  1.0000
  H   H9        1.0  0.44901872878262594  0.34593146993777435  0.34026600912084615  1.0000
  H   H10       1.0  0.9490193659470166  0.15406854127152772  0.15973348572625676  1.0000
  H   H11       1.0  0.5509814057616609  0.6540674199885644  0.6597343552046909  1.0000
  H   H12       1.0  0.0509807685976682  0.8459317303229599  0.8402669173910058  1.0000
  H   H13       1.0  0.4235259691209096  0.8658864914452383  0.657872855495228  1.0000
  H   H14       1.0  0.9235265832904318  0.6341142200420579  0.8421264019109034  1.0000
  H   H15       1.0  0.5764734146167783  0.13411377843899433  0.3421268676840939  1.0000
  H   H16       1.0  0.076474302061122  0.36588535729840305  0.15787262193458676  1.0000
  H   H17       1.0  0.3454142444022991  0.8246664575722421  0.7369099413359097  1.0000
  H   H18       1.0  0.8454141367559986  0.6753342186219129  0.7630906789166263  1.0000
  H   H19       1.0  0.6545858901421866  0.17533312318816746  0.26309044238549023  1.0000
  H   H20       1.0  0.1545859977884874  0.32466536213849656  0.23690970480477355  1.0000
  H   H21       1.0  0.2715070738098362  0.8446328281013039  0.2713298210593181  1.0000
  H   H22       1.0  0.7715062058332336  0.655367231716319  0.22866963249754246  1.0000
  H   H23       1.0  0.7284930607348699  0.1553674417831203  0.7286699021199967  1.0000
  H   H24       1.0  0.2284931779044683  0.344633036457843  0.7713294107438319  1.0000
  H   H25       1.0  0.3842505151727381  0.8715026221608327  0.3175885680051209  1.0000
  H   H26       1.0  0.8842496343769142  0.6284988752019278  0.18241092005595766  1.0000
  H   H27       1.0  0.6157496193719681  0.1284976477235844  0.6824111551741866  1.0000
  H   H28       1.0  0.1157497493607877  0.3715013929722346  0.8175881231854236  1.0000
  H   H29       1.0  0.2354503229935929  0.9233476996494832  0.8294021943037466  1.0000
  H   H30       1.0  0.735449412647725  0.5766529237551128  0.6705991100685439  1.0000
  H   H31       1.0  0.7645490607440453  0.0766525736548829  0.17059888875147072  1.0000
  H   H32       1.0  0.2645507218967609  0.4233466570052969  0.329401273652856  1.0000
  H   H33       1.0  0.4337870055909008  0.030057118952989004  0.6255063480209844  1.0000
  H   H34       1.0  0.933787063108916  0.4699448444122965  0.8744936757654359  1.0000
  H   H35       1.0  0.566213128953784  0.9699431526414986  0.3744940550962711  1.0000
  H   H36       1.0  0.06621307143561242  0.5300547329279723  0.12550534808007544  1.0000
  H   H37       1.0  0.26902770880217025  0.21580954233259328  0.8041553412878957  1.0000
  H   H38       1.0  0.7690284197296365  0.2841909594181047  0.6958453299103413  1.0000
  H   H39       1.0  0.7309716749355317  0.7841907258415688  0.19584370195348555  1.0000
  H   H40       1.0  0.2309709640078665  0.7158086179219867  0.3041536939351843  1.0000
  H   H41       1.0  0.2648209612317772  0.23504094535670111  0.20701627853816268  1.0000
  H   H42       1.0  0.7648216548868589  0.2649596671061474  0.292983922647565  1.0000
  H   H43       1.0  0.7351784225058823  0.7649593262375948  0.7929841245791067  1.0000
  H   H44       1.0  0.2351784796580247  0.7350412953224181  0.7070164998655601  1.0000
  H   H45       1.0  0.411199737194643  0.03811691266647442  0.37709892586190114  1.0000
  H   H46       1.0  0.911199805645083  0.46188376892315136  0.12289990988133333  1.0000
  H   H47       1.0  0.5888003973498783  0.9618826646738016  0.622900097983603  1.0000
  H   H48       1.0  0.0888003288994028  0.5381158118372582  0.8771004738400666  1.0000
  H   H49       1.0  0.1643196444199262  0.9525725431278931  0.20474368960640998  1.0000
  H   H50       1.0  0.6643194600600852  0.5474267727324574  0.29525574863078674  1.0000
  H   H51       1.0  0.8356797393175552  0.04742703592226861  0.7952560141770564  1.0000
  H   H52       1.0  0.3356791728705772  0.45257349715159023  0.7047439745485564  1.0000
  H   H53       1.0  0.9060093632971586  0.15686760039680792  0.905169969791935  1.0000
  H   H54       1.0  0.4060094905627238  0.34313227669934326  0.5948299968632542  1.0000
  H   H55       1.0  0.09399002044030169  0.8431319803634172  0.09483041392947912  1.0000
  H   H56       1.0  0.5939898931747579  0.6568673023508182  0.40516970692021204  1.0000
  H   H57       1.0  0.8742157075059608  0.12410842723768671  0.005629498613721802  1.0000
  H   H58       1.0  0.3742150782619191  0.37589154860809515  0.4943706790160222  1.0000
  H   H59       1.0  0.1257851778453443  0.8758904626888296  0.9943708657118011  1.0000
  H   H60       1.0  0.6257850562829718  0.6241094138204701  0.505629743497096  1.0000
  C   C1        1.0  0.16612355984708668  0.08823389670523345  0.8934165797084932  1.0000
  C   C2        1.0  0.6661236000370819  0.4117665540447818  0.6065840954030719  1.0000
  C   C3        1.0  0.8338765746975979  0.9117663748892539  0.10658382340876933  1.0000
  C   C4        1.0  0.3338765345074179  0.5882330250055648  0.39341560838038003  1.0000
  C   C5        1.0  0.2458232240741793  0.0710462913407994  0.8235743667760504  1.0000
  C   C6        1.0  0.7458232699620594  0.42895420061938694  0.6764269852425784  1.0000
  C   C7        1.0  0.754176159663686  0.9289546710875812  0.17642605573708894  1.0000
  C   C8        1.0  0.2541768645826252  0.5710460709751005  0.3235734178746768  1.0000
  C   C9        1.0  0.2715574013981765  0.9810654534952122  0.7966657991130364  1.0000
  C   C10       1.0  0.7715557044956185  0.5189351878042956  0.703335503886166  1.0000
  C   C11       1.0  0.728443483953555  0.018934816389396796  0.20333392406626424  1.0000
  C   C12       1.0  0.2284436792418632  0.48106439124586603  0.2966641998973075  1.0000
  C   C13       1.0  0.3396946378606245  0.965033817395103  0.7252902549572369  1.0000
  C   C14       1.0  0.839693696692656  0.534967546798221  0.77471038490868  1.0000
  C   C15       1.0  0.6603054966838826  0.034965761655243524  0.274709448826215  1.0000
  C   C16       1.0  0.16030643785182963  0.4650320339621887  0.22528999881271977  1.0000
  C   C17       1.0  0.38296412874426267  0.04071736026698152  0.6829327182014069  1.0000
  C   C18       1.0  0.8829641836050898  0.4592838904959465  0.8170686479977792  1.0000
  C   C19       1.0  0.6170360058004434  0.9592829096174429  0.31706700497790763  1.0000
  C   C20       1.0  0.117035950939389  0.5407156902644631  0.18293173572362068  1.0000
  C   C21       1.0  0.35846006546065456  0.13109342385938316  0.7111985123872987  1.0000
  C   C22       1.0  0.8584600692877017  0.3689085055931046  0.7888028741396058  1.0000
  C   C23       1.0  0.6415400690838452  0.8689061551909633  0.2888011913961536  1.0000
  C   C24       1.0  0.1415400652569829  0.631091766001383  0.21119752897765665  1.0000
  C   C25       1.0  0.4042097649467494  0.2092297486928061  0.6615669767077679  1.0000
  C   C26       1.0  0.9042112216606314  0.29077151088998926  0.8384337087454983  1.0000
  C   C27       1.0  0.5957903695979568  0.7907705211916113  0.3384327464715471  1.0000
  C   C28       1.0  0.09578891288405339  0.7092287607045052  0.16156669437176427  1.0000
  C   C29       1.0  0.2895419895154633  0.14638570300316192  0.7813893268066398  1.0000
  C   C30       1.0  0.7895404871591933  0.35361549803811704  0.7186106830694144  1.0000
  C   C31       1.0  0.7104581450292571  0.8536145651711922  0.21860971643472746  1.0000
  C   C32       1.0  0.2104596473855125  0.6463847718463003  0.28138904010990023  1.0000
  C   C33       1.0  0.12319995535938941  0.12061603599635624  0.13598058776926797  1.0000
  C   C34       1.0  0.6231999606301811  0.3793845028571426  0.3640182589262509  1.0000
  C   C35       1.0  0.876800179185338  0.8793842321779975  0.864018455472092  1.0000
  C   C36       1.0  0.3767986723004952  0.6206157653168418  0.6359807843151446  1.0000
  C   C37       1.0  0.2047954010563089  0.09639904496961552  0.20156478206681783  1.0000
  C   C38       1.0  0.7047946737426757  0.40360015265521565  0.2984340227340213  1.0000
  C   C39       1.0  0.7952047334884185  0.9036012232047386  0.7984342611745492  1.0000
  C   C40       1.0  0.2952047099946284  0.5963987338507977  0.7015649817156346  1.0000
  C   C41       1.0  0.270492536468943  0.16588392243807704  0.23321051078643518  1.0000
  C   C42       1.0  0.7704925213419854  0.3341166911254307  0.2667890102456739  1.0000
  C   C43       1.0  0.7295075980757633  0.8341163474463401  0.7667892123928797  1.0000
  C   C44       1.0  0.2295061115884565  0.6658828896346023  0.7332113734757544  1.0000
  C   C45       1.0  0.34254447501643165  0.14479386122611265  0.2986941675106892  1.0000
  C   C46       1.0  0.8425444762796842  0.3552067880471981  0.20130535078137515  1.0000
  C   C47       1.0  0.6574564103350795  0.8552057195344889  0.7013062162106964  1.0000
  C   C48       1.0  0.15745640907200453  0.6447934852575445  0.7986957322738137  1.0000
  C   C49       1.0  0.4050927261080659  0.21689514541236582  0.3442334772624563  1.0000
  C   C50       1.0  0.9050934388930116  0.28310553486078055  0.15576603865095964  1.0000
  C   C51       1.0  0.5949074084366403  0.7831051244720585  0.6557662459168584  1.0000
  C   C52       1.0  0.0949081972654966  0.7168940476100689  0.8442350250083596  1.0000
  C   C53       1.0  0.35502436180643576  0.05338707010999851  0.3258811731789707  1.0000
  C   C54       1.0  0.855023667346046  0.44661358534832374  0.17411834463851517  1.0000
  C   C55       1.0  0.6449765235452958  0.9466131997746104  0.6741185500003299  1.0000
  C   C56       1.0  0.1449764671988589  0.5533873753701714  0.8258813979366624  1.0000
  C   C57       1.0  0.2952476315647914  0.9823431961105699  0.28818003523397817  1.0000
  C   C58       1.0  0.7952474350022953  0.517656873763258  0.2118187374821049  1.0000
  C   C59       1.0  0.7047525029797087  0.017656382939776408  0.7118196685494811  1.0000
  C   C60       1.0  0.204752699542226  0.48234270357701803  0.7881802863634066  1.0000
  C   C61       1.0  0.2161047799021745  0.005805934825289702  0.22982506262437852  1.0000
  C   C62       1.0  0.7161041072635541  0.49419395923869314  0.27017376114223884  1.0000
  C   C63       1.0  0.7838961054493508  0.9941936442252343  0.7701746411590593  1.0000
  C   C64       1.0  0.2838945256669092  0.5058056198112838  0.7298259426412416  1.0000
  N   N1        1.0  0.35823729379804803  0.8756011951519798  0.6925623156378367  1.0000
  N   N2        1.0  0.8582371536426053  0.624400178231497  0.8074383235229163  1.0000
  N   N3        1.0  0.6417628407466367  0.12439907644250783  0.3074380874794259  1.0000
  N   N4        1.0  0.14176373170889892  0.37559940252909757  0.19256206019846905  1.0000
  N   N5        1.0  0.3104161582668965  0.8904625529355956  0.31208142670373473  1.0000
  N   N6        1.0  0.8104152660534824  0.6095382169999085  0.18791804476931878  1.0000
  N   N7        1.0  0.6895839762778309  0.10953771523875842  0.6879176165376323  1.0000
  N   N8        1.0  0.18958336687720126  0.3904620511740762  0.8120809984720766  1.0000
  O   O1        1.0  0.13362640319347457  0.17024976400404063  0.901233845550131  1.0000
  O   O2        1.0  0.6336263959615351  0.3297499763857701  0.598765451525509  1.0000
  O   O3        1.0  0.8663737313510252  0.8297498150462985  0.09876585823332111  1.0000
  O   O4        1.0  0.3663737385831709  0.6702502934986541  0.40123427165380593  1.0000
  O   O5        1.0  0.147263363160242  0.3584408383471924  0.996164385733124  1.0000
  O   O6        1.0  0.6472632519023876  0.14155959963531467  0.5038349302197747  1.0000
  O   O7        1.0  0.852736020577659  0.6415601206610548  0.0038346769041127018  1.0000
  O   O8        1.0  0.3527368826421195  0.8584399794150316  0.4961647735636775  1.0000
  O   O9        1.0  0.13391541894721123  0.0203514675786778  0.9388786450293554  1.0000
  O   O10       1.0  0.6339140000014114  0.47964896720824163  0.5611220313070717  1.0000
  O   O11       1.0  0.8660862172117234  0.9796494948502641  0.0611217774837343  1.0000
  O   O12       1.0  0.3660846329292298  0.5203513043858765  0.43887837181021194  1.0000
  O   O13       1.0  0.9336578222530535  0.13042815501312796  0.9673847832118627  1.0000
  O   O14       1.0  0.43365721802334173  0.3695717340756702  0.532614502453953  1.0000
  O   O15       1.0  0.0663423122916313  0.8695721165813597  0.0326156199053926  1.0000
  O   O16       1.0  0.5663421657143175  0.6304285375186328  0.46738590066331664  1.0000
  O   O17       1.0  0.3643877345089663  0.2895660750526901  0.6687394646904183  1.0000
  O   O18       1.0  0.8643876431278202  0.21043447224930398  0.8312605229434527  1.0000
  O   O19       1.0  0.6356124000355122  0.7104335057077267  0.33126091903098154  1.0000
  O   O20       1.0  0.13561174060961886  0.7895651102209839  0.16874054071590905  1.0000
  O   O21       1.0  0.4804016574754257  0.1897815904710214  0.6119294954281786  1.0000
  O   O22       1.0  0.9804031224637413  0.31021970516331976  0.8880705071896602  1.0000
  O   O23       1.0  0.5195984770692804  0.8102186794134029  0.38807022775113614  1.0000
  O   O24       1.0  0.0195970120807161  0.68977987730716  0.11193055646968732  1.0000
  O   O25       1.0  0.13382014371961054  0.19502162337834514  0.09439482934635632  1.0000
  O   O26       1.0  0.6338186013287344  0.3049789207382575  0.4056040169453255  1.0000
  O   O27       1.0  0.8661814924391394  0.8049786465064418  0.90560489383293  1.0000
  O   O28       1.0  0.3661800316017647  0.6950206548915786  0.5943943269622667  1.0000
  O   O29       1.0  0.0458472958779126  0.06774455851163451  0.12686372560877862  1.0000
  O   O30       1.0  0.5458488330798374  0.43225663625955246  0.3731365033000956  1.0000
  O   O31       1.0  0.9541520878599741  0.9322564022066758  0.873136016966406  1.0000
  O   O32       1.0  0.4541513014650249  0.5677443278790832  0.6268645991509703  1.0000
  O   O33       1.0  0.40111497609954233  0.30084673682202395  0.3095324217031249  1.0000
  O   O34       1.0  0.901115637688548  0.19915325235567857  0.19046775490365064  1.0000
  O   O35       1.0  0.5988851584447233  0.6991521548143781  0.6904686225603671  1.0000
  O   O36       1.0  0.09888449685613657  0.800847019238809  0.8095326482136118  1.0000
  O   O37       1.0  0.457268551092298  0.19856663741433783  0.4115596621503175  1.0000
  O   O38       1.0  0.957269278768699  0.30143337788369723  0.08843983238305243  1.0000
  O   O39       1.0  0.54273158345201  0.8014322508019307  0.5884400222372721  1.0000
  O   O40       1.0  0.0427331081972184  0.6985675879655632  0.9115619500059184  1.0000
