data_image0
_chemical_formula_structural       Ca2H20C32O16
_chemical_formula_sum              "Ca2 H20 C32 O16"
_cell_length_a       5.962675187447043
_cell_length_b       7.524719605184889
_cell_length_c       18.44552576628095
_cell_angle_alpha    91.8886273517851
_cell_angle_beta     97.05055026976461
_cell_angle_gamma    96.47770804228496

_space_group_name_H-M_alt    "P 1"
_space_group_IT_number       1

loop_
  _space_group_symop_operation_xyz
  'x, y, z'

loop_
  _atom_site_type_symbol
  _atom_site_label
  _atom_site_symmetry_multiplicity
  _atom_site_fract_x
  _atom_site_fract_y
  _atom_site_fract_z
  _atom_site_occupancy
  Ca  Ca1       1.0  0.0227369366322847  0.272150970181535  0.0454107452028225  1.0000
  Ca  Ca2       1.0  0.9772566463429087  0.7278539247424761  0.9545911906204765  1.0000
  H   H1        1.0  0.8624868040513572  0.39205745217498844  0.8005557909023295  1.0000
  H   H2        1.0  0.13752424965569793  0.60794061778185  0.1994450960424672  1.0000
  H   H3        1.0  0.0887006932383301  0.05967926598137301  0.7418632455514144  1.0000
  H   H4        1.0  0.9112865316837427  0.9403175699456768  0.2581373178414808  1.0000
  H   H5        1.0  0.14680589019640417  0.10332946291893562  0.4775904996598541  1.0000
  H   H6        1.0  0.8531928346240745  0.896665883041493  0.5224077549821402  1.0000
  H   H7        1.0  0.36678159011179895  0.20056485015150124  0.3775426302056388  1.0000
  H   H8        1.0  0.633220697136167  0.7994318008354995  0.6224552198796615  1.0000
  H   H9        1.0  0.7657650346660815  0.35241274491212254  0.4066581046142446  1.0000
  H   H10       1.0  0.2342415803662945  0.6475786208882044  0.5933420311307458  1.0000
  H   H11       1.0  0.9322167018812164  0.41355758362212924  0.5377172527311629  1.0000
  H   H12       1.0  0.06778403903571471  0.586428466643696  0.46228317492469273  1.0000
  H   H13       1.0  0.7696874089501904  0.5476427480075831  0.0988799050415992  1.0000
  H   H14       1.0  0.23030998987484713  0.45236483464859856  0.9011227300113801  1.0000
  H   H15       1.0  0.7891490219091678  0.4296425198055476  0.16965108043024202  1.0000
  H   H16       1.0  0.21085275195929395  0.5703609628308682  0.8303500549852458  1.0000
  H   H17       1.0  0.5117976023958801  0.26413413223991716  0.0993108379509806  1.0000
  H   H18       1.0  0.4882040569373841  0.7358692406527824  0.9006875813069756  1.0000
  H   H19       1.0  0.38218730811103535  0.0664319141395566  0.0818491054451087  1.0000
  H   H20       1.0  0.6178122242355143  0.9335687651045746  0.9181486752588768  1.0000
  C   C1        1.0  0.6920647242326082  0.3204544278769675  0.788516298426245  1.0000
  C   C2        1.0  0.3079402197538243  0.6795477041185409  0.21148494101731072  1.0000
  C   C3        1.0  0.5698366765953436  0.26424557896177703  0.844902050292518  1.0000
  C   C4        1.0  0.43016470496359455  0.735755248007159  0.15509959370773171  1.0000
  C   C5        1.0  0.34945267730503093  0.1708850160013426  0.8281606686187786  1.0000
  C   C6        1.0  0.6505458119102697  0.8291197075322715  0.1718376466111096  1.0000
  C   C7        1.0  0.2583534209222407  0.13224759187830415  0.7554850664592648  1.0000
  C   C8        1.0  0.7416446759835437  0.8677544759878233  0.24451375735538516  1.0000
  C   C9        1.0  0.3820610466292108  0.18762125400417065  0.6988291449165018  1.0000
  C   C10       1.0  0.6179374476759492  0.8123727311994106  0.3011685491706118  1.0000
  C   C11       1.0  0.27808266929513786  0.14485501433072304  0.6220015615257637  1.0000
  C   C12       1.0  0.7219173928031565  0.8551484522733475  0.3779989699825066  1.0000
  C   C13       1.0  0.4120048584057442  0.20794484980737593  0.5633643007436575  1.0000
  C   C14       1.0  0.5879928232834785  0.7920545404425285  0.43663448842425373  1.0000
  C   C15       1.0  0.31766184395868885  0.17395425781593596  0.4902272666834051  1.0000
  C   C16       1.0  0.6823414620685566  0.8260371856634239  0.5097743774046748  1.0000
  C   C17       1.0  0.44324661224044337  0.22752681298216265  0.4341970974395508  1.0000
  C   C18       1.0  0.5567535480208079  0.7724671443562702  0.565800114091779  1.0000
  C   C19       1.0  0.665873110871182  0.31289978231752974  0.45049557564193077  1.0000
  C   C20       1.0  0.33413662337522954  0.6871009272744361  0.5495041988108795  1.0000
  C   C21       1.0  0.7598641933126229  0.347755856668755  0.5231708434889768  1.0000
  C   C22       1.0  0.2401483238321021  0.6522301082847906  0.47682892243388864  1.0000
  C   C23       1.0  0.6343395993497223  0.29848378806478604  0.5800785811554121  1.0000
  C   C24       1.0  0.36565894076951366  0.7015102410362745  0.41992019939472414  1.0000
  C   C25       1.0  0.7368977562567733  0.3449957450524225  0.6566375926776401  1.0000
  C   C26       1.0  0.2630984899916839  0.655005033819478  0.34336223960094253  1.0000
  C   C27       1.0  0.6007731026472739  0.28303789107474847  0.7153786082610054  1.0000
  C   C28       1.0  0.399224693577139  0.7169616089188723  0.2846228970644376  1.0000
  C   C29       1.0  0.6838381618753002  0.2872919534773858  0.9223335611533302  1.0000
  C   C30       1.0  0.3161618085948489  0.7127114253317118  0.077664797428902  1.0000
  C   C31       1.0  0.20803582346894695  0.12413133558663254  0.888554232138688  1.0000
  C   C32       1.0  0.7919687969290762  0.875868206587626  0.11144914558414601  1.0000
  O   O1        1.0  0.08789993706993465  0.05735064726253111  0.6085255754561345  1.0000
  O   O2        1.0  0.9120993124124224  0.942658224387877  0.3914760511329192  1.0000
  O   O3        1.0  0.9260031161893137  0.43420535625793394  0.6717754147766115  1.0000
  O   O4        1.0  0.07399065148711513  0.5658008555254386  0.3282259951385456  1.0000
  O   O5        1.0  0.684093503400831  0.14851252201169982  0.9598332398744347  1.0000
  O   O6        1.0  0.3159016768093323  0.8514922792009402  0.040166583698550105  1.0000
  O   O7        1.0  0.7873797911517784  0.43856588246994493  0.9465229538277954  1.0000
  O   O8        1.0  0.2126182126809084  0.5614349563317874  0.0534785688210277  1.0000
  O   O9        1.0  0.1917892275156561  0.2544385875363844  0.9335240697696535  1.0000
  O   O10       1.0  0.8082074339493558  0.7455648689517391  0.06647579715566822  1.0000
  O   O11       1.0  0.11306921079367532  0.9671582177353246  0.8902067306819034  1.0000
  O   O12       1.0  0.8869304819021407  0.03284261515001671  0.10979485264262932  1.0000
  O   O13       1.0  0.772492651689518  0.4211605627904406  0.11647810092077289  1.0000
  O   O14       1.0  0.22750618257629182  0.578845631243745  0.8835234910215349  1.0000
  O   O15       1.0  0.3665955702178464  0.18874710932164626  0.1011776769089394  1.0000
  O   O16       1.0  0.6334072940408787  0.8112535141922025  0.8988191386834643  1.0000
