data_image0
_chemical_formula_structural       Zn2H40C48N2O8
_chemical_formula_sum              "Zn2 H40 C48 N2 O8"
_cell_length_a       11.036120538982226
_cell_length_b       13.860180879525291
_cell_length_c       15.301538729632938
_cell_angle_alpha    90.02155056982599
_cell_angle_beta     91.18892187134716
_cell_angle_gamma    90.00564719331918

_space_group_name_H-M_alt    "P 1"
_space_group_IT_number       1

loop_
  _space_group_symop_operation_xyz
  'x, y, z'

loop_
  _atom_site_type_symbol
  _atom_site_label
  _atom_site_symmetry_multiplicity
  _atom_site_fract_x
  _atom_site_fract_y
  _atom_site_fract_z
  _atom_site_occupancy
  Zn  Zn1       1.0  0.49998825180604467  0.3995951165892748  0.49991440204014737  1.0000
  Zn  Zn2       1.0  0.5000427207820124  0.5939735597963037  0.5000163392140847  1.0000
  H   H1        1.0  0.20589760673908591  0.32107782462188794  0.4399318269418514  1.0000
  H   H2        1.0  0.7833420749920493  0.6811100384779818  0.5361603430557336  1.0000
  H   H3        1.0  0.7942187669441338  0.32103442667337134  0.5601393986223399  1.0000
  H   H4        1.0  0.2165805288028224  0.6812431813122969  0.46392808565506977  1.0000
  H   H5        1.0  0.4354739684076847  0.35773537514702985  0.05895938140825049  1.0000
  H   H6        1.0  0.4275752875094696  0.6485339476868502  0.9396967349148608  1.0000
  H   H7        1.0  0.5651469936314725  0.3577294125117234  0.9407881961605253  1.0000
  H   H8        1.0  0.5738249299374659  0.6483627814382231  0.06046490612500579  1.0000
  H   H9        1.0  0.4463176180511894  0.35573180292547585  0.22185501127038515  1.0000
  H   H10       1.0  0.4173120555342535  0.6452381523698423  0.7765993465021592  1.0000
  H   H11       1.0  0.5538376961212209  0.3557611568036663  0.7779145405606867  1.0000
  H   H12       1.0  0.5835782504964584  0.6450583444499288  0.22353970276191854  1.0000
  H   H13       1.0  0.45009583666719527  0.9280368086077644  0.36250043836028556  1.0000
  H   H14       1.0  0.41438625990421935  0.0656779333521271  0.6259111979969985  1.0000
  H   H15       1.0  0.5498242645177741  0.9282760573597244  0.6375604822359335  1.0000
  H   H16       1.0  0.5854971363549735  0.06545465427015532  0.3740645915619181  1.0000
  H   H17       1.0  0.4545952811303096  0.7469511688743823  0.36845034398655935  1.0000
  H   H18       1.0  0.418750139066553  0.24668686274137747  0.6202232383864654  1.0000
  H   H19       1.0  0.5453904473593099  0.7471593629071409  0.6316726264276865  1.0000
  H   H20       1.0  0.581068634874356  0.24649219208020412  0.3795715338657075  1.0000
  H   H21       1.0  0.1248246707293674  0.9124682742820556  0.6099812476527402  1.0000
  H   H22       1.0  0.2559406578629009  0.8443717534719822  0.5861578843214159  1.0000
  H   H23       1.0  0.241592738652507  0.9654574098387487  0.5478476239959064  1.0000
  H   H24       1.0  0.20150273299822893  0.847803090237946  0.4262553076283878  1.0000
  H   H25       1.0  0.07137565760061192  0.9168182871994972  0.4474412774148745  1.0000
  H   H26       1.0  0.0360267362798723  0.0986803355111689  0.6384055104800124  1.0000
  H   H27       1.0  0.9235970317629238  0.1676711545375511  0.6908884671002651  1.0000
  H   H28       1.0  0.8952209792497215  0.0444176054411116  0.6642956735728021  1.0000
  H   H29       1.0  0.7865112000645951  0.15433808419579262  0.5580096196713953  1.0000
  H   H30       1.0  0.8964286289516892  0.08440901649575493  0.504887642077449  1.0000
  H   H31       1.0  0.8751043420978207  0.9124402597366271  0.3901763797685119  1.0000
  H   H32       1.0  0.7438898231683593  0.8443826744256813  0.41384916402376587  1.0000
  H   H33       1.0  0.7582852583093925  0.9654410820912673  0.45230860883602714  1.0000
  H   H34       1.0  0.7982298089652603  0.8477023344688065  0.5737867871058526  1.0000
  H   H35       1.0  0.9283739405465854  0.9167365971321358  0.5527504519770899  1.0000
  H   H36       1.0  0.9640360949711492  0.0986779681134635  0.3616612644715004  1.0000
  H   H37       1.0  0.07646150363652991  0.16762907161914598  0.3091663336908113  1.0000
  H   H38       1.0  0.104793752738928  0.044364172640584294  0.33569419343734097  1.0000
  H   H39       1.0  0.2135955028911383  0.15433766628938628  0.44201946819516985  1.0000
  H   H40       1.0  0.10368014257089442  0.08445397963564719  0.4951308653606573  1.0000
  C   C1        1.0  0.5171494083422488  0.4983268556836578  0.3304176152532959  1.0000
  C   C2        1.0  0.4830071363052255  0.4983781549911299  0.6695387815419024  1.0000
  C   C3        1.0  0.5037017955414741  0.5032641425742952  0.048160184077694596  1.0000
  C   C4        1.0  0.4972667136712872  0.5033044092652973  0.9517654181264346  1.0000
  C   C5        1.0  0.4733363355301209  0.8912387883516147  0.423490012365498  1.0000
  C   C6        1.0  0.4537253469476922  0.10241882976120559  0.5703467667010926  1.0000
  C   C7        1.0  0.5265884550865678  0.891374463165036  0.57658068888243  1.0000
  C   C8        1.0  0.5461856049329582  0.10230658774982973  0.4295933236564834  1.0000
  C   C9        1.0  0.4742523976461329  0.79105526012561  0.4261020298163415  1.0000
  C   C10       1.0  0.45466528113478694  0.2026486136251648  0.5676833349827175  1.0000
  C   C11       1.0  0.5257347357485429  0.7911832690890179  0.5740077660341425  1.0000
  C   C12       1.0  0.545217029949754  0.20253809604255932  0.4321662968953318  1.0000
  C   C13       1.0  0.4999683564242474  0.943537543892802  0.5000200550612559  1.0000
  C   C14       1.0  0.49997407688498896  0.05002609481839221  0.49999236967667565  1.0000
  C   C15       1.0  0.26510756513926037  0.49783203309105073  0.4830147312003631  1.0000
  C   C16       1.0  0.7349039447901121  0.4976875603794896  0.5169423367414223  1.0000
  C   C17       1.0  0.1160741069913129  0.3215921993984239  0.46761437928385147  1.0000
  C   C18       1.0  0.8782117164308901  0.6813369232365502  0.519008771326554  1.0000
  C   C19       1.0  0.8840373952870022  0.3215626008953265  0.532429536499677  1.0000
  C   C20       1.0  0.12168840728397609  0.6814058897944906  0.481027269439238  1.0000
  C   C21       1.0  0.058166047907029395  0.2350208816413968  0.4797545705248964  1.0000
  C   C22       1.0  0.9375935037052798  0.7681300598425125  0.5115023401860412  1.0000
  C   C23       1.0  0.9419737675320333  0.2349947701578827  0.5203269126867196  1.0000
  C   C24       1.0  0.06222988641006568  0.7681602705879766  0.4885304776447156  1.0000
  C   C25       1.0  0.9368757258917101  0.41264544144097925  0.5113184804609858  1.0000
  C   C26       1.0  0.0645620996564205  0.5898545593171179  0.49164902914835545  1.0000
  C   C27       1.0  0.0631965293713037  0.4126678757017218  0.4887161087119906  1.0000
  C   C28       1.0  0.9354196219522208  0.5898221000219266  0.508382777699417  1.0000
  C   C29       1.0  0.8716913661266403  0.500854090378077  0.515482369995915  1.0000
  C   C30       1.0  0.12832248617978342  0.5009107485736521  0.48455354683179747  1.0000
  C   C31       1.0  0.4694737632820818  0.4205308855507397  0.09480137537310178  1.0000
  C   C32       1.0  0.45678437706640546  0.5844956303608412  0.9043839846337673  1.0000
  C   C33       1.0  0.5311771697178784  0.4205470022603207  0.905027818645969  1.0000
  C   C34       1.0  0.5443788070176723  0.5843478998956685  0.09567250472152719  1.0000
  C   C35       1.0  0.47494990989090274  0.41908769713214866  0.18556869257177055  1.0000
  C   C36       1.0  0.4503681781585983  0.5828998084959593  0.8134123725808563  1.0000
  C   C37       1.0  0.525508078343627  0.41916265976220757  0.8142749133328238  1.0000
  C   C38       1.0  0.550451416031045  0.5827626497283446  0.186644266531431  1.0000
  C   C39       1.0  0.5152542020841082  0.5002175015654872  0.23255537153347206  1.0000
  C   C40       1.0  0.4852694153794631  0.5003027715788093  0.7673933163944469  1.0000
  C   C41       1.0  0.1314118468598053  0.8607613528738866  0.4750008544596794  1.0000
  C   C42       1.0  0.1919992362800826  0.8981004490005514  0.5595776965853998  1.0000
  C   C43       1.0  0.8848412748403119  0.14304823491642793  0.5524475470217209  1.0000
  C   C44       1.0  0.9378181926936194  0.1113801544348263  0.6415854178586213  1.0000
  C   C45       1.0  0.8683571591803129  0.8606867480755512  0.5250942693002826  1.0000
  C   C46       1.0  0.807846071609049  0.8980746782763236  0.4405280354213373  1.0000
  C   C47       1.0  0.1152751253687825  0.1430607095148204  0.44757648645483517  1.0000
  C   C48       1.0  0.06223707315989911  0.1113508245155401  0.3584359244680968  1.0000
  N   N1        1.0  0.5000460741513848  0.742184480379123  0.5000604066108989  1.0000
  N   N2        1.0  0.49994648232991074  0.25157034676764317  0.4999079844494715  1.0000
  O   O1        1.0  0.4851973155322113  0.41956403687319715  0.36653065698317977  1.0000
  O   O2        1.0  0.4514806685079762  0.5754191475233698  0.6293928272496953  1.0000
  O   O3        1.0  0.5146343142529802  0.4195412662572694  0.6333593691128669  1.0000
  O   O4        1.0  0.5486166642106839  0.5753632350391057  0.3706480276856254  1.0000
  O   O5        1.0  0.3166358390206341  0.422581630401851  0.514309619537755  1.0000
  O   O6        1.0  0.675201389878211  0.5699464383894935  0.5450775425099221  1.0000
  O   O7        1.0  0.6834094941930573  0.42243341216050107  0.4855496796093134  1.0000
  O   O8        1.0  0.32477095345163315  0.5701225087721299  0.45494095356964676  1.0000
