data_image0
_chemical_formula_structural       Zn4H56C52N4O32F16
_chemical_formula_sum              "Zn4 H56 C52 N4 O32 F16"
_cell_length_a       9.783984510227025
_cell_length_b       15.4099244987284
_cell_length_c       15.20278837345788
_cell_angle_alpha    89.9345749527618
_cell_angle_beta     90.71092854921096
_cell_angle_gamma    89.63513190234433

_space_group_name_H-M_alt    "P 1"
_space_group_IT_number       1

loop_
  _space_group_symop_operation_xyz
  'x, y, z'

loop_
  _atom_site_type_symbol
  _atom_site_label
  _atom_site_symmetry_multiplicity
  _atom_site_fract_x
  _atom_site_fract_y
  _atom_site_fract_z
  _atom_site_occupancy
  Zn  Zn1       1.0  0.6364163628581635  0.49466626194914204  0.998942295695791  1.0000
  Zn  Zn2       1.0  0.34444234011526487  0.4972572062769061  0.0056658291451299  1.0000
  Zn  Zn3       1.0  0.6586699635317004  0.9995671947798928  0.5112489334349917  1.0000
  Zn  Zn4       1.0  0.36320267048300536  0.9972769684224618  0.49126280723520915  1.0000
  H   H1        1.0  0.7272899932290215  0.30604082899854024  0.1853578600401491  1.0000
  H   H2        1.0  0.572659566142903  0.3808970456696699  0.2945807693307998  1.0000
  H   H3        1.0  0.5854567537018339  0.6109857221484558  0.30135165286424836  1.0000
  H   H4        1.0  0.72673369160659  0.6874612638967432  0.19380408481811168  1.0000
  H   H5        1.0  0.4198722767638259  0.8907001341972459  0.8088157824113295  1.0000
  H   H6        1.0  0.2671324312454644  0.8162976095585889  0.6948779760262269  1.0000
  H   H7        1.0  0.2579587174103466  0.19510289309829426  0.6902519026763514  1.0000
  H   H8        1.0  0.411534124132416  0.119490504979801  0.7937060531865682  1.0000
  H   H9        1.0  0.6559758333460977  0.2204015466016429  0.1213773844770714  1.0000
  H   H10       1.0  0.39224052673553433  0.38370303543923967  0.2749401779123275  1.0000
  H   H11       1.0  0.405986413673631  0.6001394234446166  0.28376808850502033  1.0000
  H   H12       1.0  0.6513113167567822  0.7741071522211838  0.1321557961401183  1.0000
  H   H13       1.0  0.6000668461607858  0.8952219109217481  0.7922289032586747  1.0000
  H   H14       1.0  0.34248874828264064  0.7326066567058973  0.6310965613353261  1.0000
  H   H15       1.0  0.32547868094073346  0.278795741136399  0.6228641548400303  1.0000
  H   H16       1.0  0.5892449236295363  0.10768259345294952  0.7707362167969477  1.0000
  H   H17       1.0  0.6737665896312633  0.6436811680893727  0.7724629693677798  1.0000
  H   H18       1.0  0.5331952193474621  0.6125163820985122  0.7059912691857163  1.0000
  H   H19       1.0  0.5288491589449933  0.3978813973795354  0.6960543523192797  1.0000
  H   H20       1.0  0.6738258489239114  0.3610264823420053  0.7565244299178672  1.0000
  H   H21       1.0  0.46800251776873847  0.1008807629072521  0.19410795824868637  1.0000
  H   H22       1.0  0.3260751089755943  0.1322557236932269  0.2575836925163344  1.0000
  H   H23       1.0  0.3210786634221137  0.8569380849110928  0.2736437150237876  1.0000
  H   H24       1.0  0.4617065758527517  0.8909839265086248  0.2104157837073117  1.0000
  H   H25       1.0  0.3974383526538148  0.21270410927964178  0.09754419173683707  1.0000
  H   H26       1.0  0.2932633391136434  0.26180517446335466  0.17744455153462005  1.0000
  H   H27       1.0  0.29099388048692276  0.7300868803525233  0.19106121090748468  1.0000
  H   H28       1.0  0.39210289028179096  0.7817852224181577  0.1111318691710537  1.0000
  H   H29       1.0  0.70353294631537  0.7739430694935975  0.6942574159223582  1.0000
  H   H30       1.0  0.6003743874178723  0.7257959569866513  0.6122208230436783  1.0000
  H   H31       1.0  0.5824244498478919  0.28665212859404215  0.5960108130240656  1.0000
  H   H32       1.0  0.692777758216927  0.2335312514291061  0.6718912001056552  1.0000
  H   H33       1.0  0.12427011561476321  0.40981538117217303  0.9090692990731809  1.0000
  H   H34       1.0  0.8874717138630502  0.44383646840187657  0.8900051094637147  1.0000
  H   H35       1.0  0.8628260283840207  0.3680277073349031  0.9753122566263173  1.0000
  H   H36       1.0  0.1002584064964509  0.36643273480093086  0.0152142213174713  1.0000
  H   H37       1.0  0.0955599658812005  0.9620209766818705  0.37056072845147264  1.0000
  H   H38       1.0  0.8644574070402699  0.9181470847652448  0.39598745981412964  1.0000
  H   H39       1.0  0.9074125748642673  0.864583039093894  0.4952605148742321  1.0000
  H   H40       1.0  0.1357356957372033  0.8718300751042846  0.4386473603466712  1.0000
  H   H41       1.0  0.7107465466578234  0.8209401558304208  0.8889519885543464  1.0000
  H   H42       1.0  0.19673825758314217  0.6340154921348357  0.7207456047138192  1.0000
  H   H43       1.0  0.2123964403417489  0.37528972093747376  0.6947822370837784  1.0000
  H   H44       1.0  0.7139799661874945  0.173626467171232  0.8550585496349539  1.0000
  H   H45       1.0  0.8024914689299506  0.1236288438872322  0.2132798483619496  1.0000
  H   H46       1.0  0.28448738007986657  0.3111609265539101  0.3718576026876903  1.0000
  H   H47       1.0  0.29016100162128566  0.6662098140937401  0.3774936426430528  1.0000
  H   H48       1.0  0.7755772492972994  0.8653431961974576  0.20323891526957993  1.0000
  H   H49       1.0  0.22225393129385654  0.6556087344382461  0.9579620795108708  1.0000
  H   H50       1.0  0.7735753307743848  0.6476661434648321  0.044338643808764296  1.0000
  H   H51       1.0  0.923792847163895  0.5814465995236161  0.18932321537081984  1.0000
  H   H52       1.0  0.20956905750398397  0.5889870159363112  0.143262142682687  1.0000
  H   H53       1.0  0.2260976156116001  0.14202764936421627  0.5534320128996839  1.0000
  H   H54       1.0  0.7747040190364771  0.15639790348509316  0.46132296359818525  1.0000
  H   H55       1.0  0.002832100968198899  0.07862944166378577  0.6768638536378191  1.0000
  H   H56       1.0  0.2623900571197241  0.9775592041111523  0.6571540291053779  1.0000
  C   C1        1.0  0.49477444341870574  0.6203551536556446  0.12229575822542668  1.0000
  C   C2        1.0  0.4966700683332164  0.37632407117730077  0.1169391650065634  1.0000
  C   C3        1.0  0.48899248940378476  0.1250476428152396  0.6125620109799144  1.0000
  C   C4        1.0  0.500148565722192  0.8875950201970537  0.630134366248953  1.0000
  C   C5        1.0  0.07148003229898592  0.4199231280645462  0.971176294967705  1.0000
  C   C6        1.0  0.9154277950651063  0.42788638112315874  0.9580164923679035  1.0000
  C   C7        1.0  0.0798866058971655  0.9334305142181661  0.4355034129764377  1.0000
  C   C8        1.0  0.9267628599546499  0.922561873170096  0.4558363230823445  1.0000
  C   C9        1.0  0.47521804908208765  0.6198130765809112  0.8870550724244097  1.0000
  C   C10       1.0  0.4868250510027678  0.3830252093414472  0.8797461815344008  1.0000
  C   C11       1.0  0.5243837987978709  0.11108255755134168  0.3767951413459584  1.0000
  C   C12       1.0  0.5166617699600095  0.8741982374450287  0.3928890729957288  1.0000
  C   C13       1.0  0.5307744446410964  0.778159290873397  0.8569206535127236  1.0000
  C   C14       1.0  0.3378446210884007  0.7066162975786624  0.7712543975324238  1.0000
  C   C15       1.0  0.3360995523420272  0.30386502420014233  0.7635128134779805  1.0000
  C   C16       1.0  0.5356632251848197  0.22575875492285039  0.8402461829758039  1.0000
  C   C17       1.0  0.6604384916769064  0.19609850142427376  0.2617749017420437  1.0000
  C   C18       1.0  0.46528122455218585  0.26844976137176263  0.3429480450412824  1.0000
  C   C19       1.0  0.464757126448248  0.7173064700673634  0.35273658024781435  1.0000
  C   C20       1.0  0.6578597232826553  0.7942930095419172  0.2735728052215123  1.0000
  C   C21       1.0  0.6457780503386914  0.2577293878665472  0.1825468359576234  1.0000
  C   C22       1.0  0.4838015570683751  0.34169166011831453  0.2756413806792608  1.0000
  C   C23       1.0  0.4910819220315616  0.646472728126362  0.2843219808422717  1.0000
  C   C24       1.0  0.6432127533799984  0.7351689729388085  0.1925275271222731  1.0000
  C   C25       1.0  0.5101840041388074  0.8525168297085272  0.7903561620177156  1.0000
  C   C26       1.0  0.3512021268133338  0.7691894118667904  0.692903218932315  1.0000
  C   C27       1.0  0.34152482464271117  0.24178276656035538  0.6840631361853866  1.0000
  C   C28       1.0  0.5036907198810141  0.15424693708123977  0.7734809583727724  1.0000
  C   C29       1.0  0.5784574647418309  0.6669330972502648  0.7423393190377678  1.0000
  C   C30       1.0  0.5751310234308632  0.3412469771198515  0.7288768172215399  1.0000
  C   C31       1.0  0.4208998509763332  0.15556283329831186  0.228938442571895  1.0000
  C   C32       1.0  0.41654917337601205  0.8351553116780294  0.24392053221101404  1.0000
  C   C33       1.0  0.4782432930897046  0.6913817650456905  0.8167455095335328  1.0000
  C   C34       1.0  0.4808294784505521  0.31517235503352475  0.8056869133839015  1.0000
  C   C35       1.0  0.5200403644000815  0.18111219028529751  0.3048966170001179  1.0000
  C   C36       1.0  0.5170085762759484  0.8066713642423978  0.31862298551154566  1.0000
  C   C37       1.0  0.5048785572303274  0.3021663277509958  0.18318773480422118  1.0000
  C   C38       1.0  0.5047516196862815  0.6896211043801159  0.1930789827965924  1.0000
  C   C39       1.0  0.4908188478241301  0.8141781229430761  0.6969499356216957  1.0000
  C   C40       1.0  0.4802886304186416  0.19577103444587604  0.6819965984858456  1.0000
  C   C41       1.0  0.39465759531907446  0.23313353325465155  0.16667003475899378  1.0000
  C   C42       1.0  0.39140399403272136  0.7591232675455117  0.17968923617726765  1.0000
  C   C43       1.0  0.6027886396308588  0.745301804190234  0.6816412727873028  1.0000
  C   C44       1.0  0.5919031634871744  0.26440902612978334  0.6645359997373886  1.0000
  C   C45       1.0  0.0673682121315196  0.5812812603622389  0.9631874215170197  1.0000
  C   C46       1.0  0.9075723766201307  0.5855340266548196  0.9771187984755585  1.0000
  C   C47       1.0  0.9159210473056946  0.48974991453614797  0.1065489155806247  1.0000
  C   C48       1.0  0.0769923564475476  0.5032418325901347  0.10558928201147207  1.0000
  C   C49       1.0  0.0900902827938168  0.0862220882150027  0.48060205804139133  1.0000
  C   C50       1.0  0.9306666733976312  0.08270501102543897  0.4650113901543519  1.0000
  C   C51       1.0  0.9389304220308858  0.991074122405891  0.5992046894322981  1.0000
  C   C52       1.0  0.0954040561498388  0.9678560392471098  0.5914098638065751  1.0000
  N   N1        1.0  0.12553727618802668  0.501562806290245  0.013039245062081798  1.0000
  N   N2        1.0  0.8591924769576312  0.5001857883746652  0.0139221639187426  1.0000
  N   N3        1.0  0.14322625849747078  0.9948882424835476  0.5011782285628215  1.0000
  N   N4        1.0  0.8773860648307374  0.9992990395384777  0.5088516068723123  1.0000
  O   O1        1.0  0.5974509436422933  0.6074276166693124  0.0738028025161768  1.0000
  O   O2        1.0  0.3823250346636868  0.5783916207091264  0.1165031350633399  1.0000
  O   O3        1.0  0.3817274677416265  0.39055005723151476  0.08025209751141917  1.0000
  O   O4        1.0  0.6044787214485295  0.4206691815692025  0.10568883654204339  1.0000
  O   O5        1.0  0.599317803271525  0.08241572009832508  0.6101570762794637  1.0000
  O   O6        1.0  0.3854629911823721  0.112584530914063  0.5614126429020702  1.0000
  O   O7        1.0  0.3952990048400196  0.9372198473663359  0.6167906795106362  1.0000
  O   O8        1.0  0.6117437262752716  0.8965261106030125  0.591348371360823  1.0000
  O   O9        1.0  0.5798318298419717  0.5722980988139951  0.8936164006973755  1.0000
  O   O10       1.0  0.3699517899384404  0.6119849187799958  0.9355412809944852  1.0000
  O   O11       1.0  0.3771105079666198  0.4215015767770893  0.900093943691189  1.0000
  O   O12       1.0  0.604328265568043  0.3951569350324745  0.9141693868858738  1.0000
  O   O13       1.0  0.6274730684271431  0.1066755545213027  0.42889808568657617  1.0000
  O   O14       1.0  0.4219444715674143  0.06175101548758019  0.38095905151939036  1.0000
  O   O15       1.0  0.40135717675848065  0.8861134126431481  0.42936820740320764  1.0000
  O   O16       1.0  0.6259265294047083  0.9136015970298458  0.41109259144417354  1.0000
  O   O17       1.0  0.6660655278859124  0.7649138963755533  0.882937161571874  1.0000
  O   O18       1.0  0.2858633664871704  0.625719859996714  0.7489595646307875  1.0000
  O   O19       1.0  0.2810716397209276  0.3844135273145141  0.7407581532449325  1.0000
  O   O20       1.0  0.6756966069879269  0.23208720756050383  0.8576167327002577  1.0000
  O   O21       1.0  0.7142680515246341  0.11488658499901307  0.2408912494619386  1.0000
  O   O22       1.0  0.3303545693367411  0.25513567458587977  0.3668616643793499  1.0000
  O   O23       1.0  0.3259601960776308  0.7248475181040205  0.37224703120014613  1.0000
  O   O24       1.0  0.7138887096236034  0.8743009289414729  0.2522795281094687  1.0000
  O   O25       1.0  0.1271272504826442  0.6563793769495662  0.9833380037775185  1.0000
  O   O26       1.0  0.8708694549963454  0.6538946559985632  0.027427639373854597  1.0000
  O   O27       1.0  0.8535996361007321  0.5420020672358916  0.1660584966973957  1.0000
  O   O28       1.0  0.10916238670540682  0.5773156990716044  0.1494691553004799  1.0000
  O   O29       1.0  0.12405759626668099  0.1448310890099549  0.5423734844863831  1.0000
  O   O30       1.0  0.8684361122504499  0.15610166174101178  0.4891393734867364  1.0000
  O   O31       1.0  0.9162221054774021  0.0636080583978185  0.6476898550122598  1.0000
  O   O32       1.0  0.16583759815924987  0.002619490331206  0.6596877938981152  1.0000
  F   F1        1.0  0.4561038946729853  0.7996892799806474  0.9342279212412237  1.0000
  F   F2        1.0  0.24546821785089173  0.7472186735355848  0.8310350263512518  1.0000
  F   F3        1.0  0.24771509132963834  0.2646757636821774  0.826616633154174  1.0000
  F   F4        1.0  0.4709982530362566  0.2048858494821602  0.9211030786991827  1.0000
  F   F5        1.0  0.7517841516490121  0.23701112194240892  0.3226531763192142  1.0000
  F   F6        1.0  0.5393308009451728  0.2913748966937462  0.4210959476430602  1.0000
  F   F7        1.0  0.5351935897460437  0.6945468189411701  0.4320864604752331  1.0000
  F   F8        1.0  0.7501681081708895  0.7513999166934651  0.3336361967226863  1.0000
  F   F9        1.0  0.089703256263995  0.5586588093218336  0.8753158824573859  1.0000
  F   F10       1.0  0.8473452502185027  0.5911829044245139  0.893617108012087  1.0000
  F   F11       1.0  0.891373441390762  0.4039216012779363  0.1280539501002878  1.0000
  F   F12       1.0  0.1373501421804733  0.4322882880260862  0.1485315240315614  1.0000
  F   F13       1.0  0.1497647654762773  0.10624696850967297  0.40014961397101695  1.0000
  F   F14       1.0  0.9081850928289016  0.06668845157896901  0.37526422806273263  1.0000
  F   F15       1.0  0.8750829896545154  0.9205207484226815  0.6386466337810219  1.0000
  F   F16       1.0  0.11028306285923857  0.8773124066810213  0.5926791004906775  1.0000
