data_image0
_chemical_formula_structural       Cd2H24C32N24
_chemical_formula_sum              "Cd2 H24 C32 N24"
_cell_length_a       7.1327483502573275
_cell_length_b       8.786192874698356
_cell_length_c       15.085455834375097
_cell_angle_alpha    101.34977218707778
_cell_angle_beta     99.84646011163427
_cell_angle_gamma    98.86615433318335

_space_group_name_H-M_alt    "P 1"
_space_group_IT_number       1

loop_
  _space_group_symop_operation_xyz
  'x, y, z'

loop_
  _atom_site_type_symbol
  _atom_site_label
  _atom_site_symmetry_multiplicity
  _atom_site_fract_x
  _atom_site_fract_y
  _atom_site_fract_z
  _atom_site_occupancy
  Cd  Cd1       1.0  0.9527190487026117  0.786416689561186  0.19161085133683997  1.0000
  Cd  Cd2       1.0  0.04727375446783809  0.21358732143479384  0.8083849914698573  1.0000
  H   H1        1.0  0.49479658288510114  0.7001415681767541  0.09332112060749148  1.0000
  H   H2        1.0  0.5051940667005965  0.29985563225502443  0.9066798335627408  1.0000
  H   H3        1.0  0.20597387699675093  0.47891182664481846  0.061742515208848686  1.0000
  H   H4        1.0  0.7940261691764549  0.5210824900653606  0.9382536975110793  1.0000
  H   H5        1.0  0.2562552919547514  0.22721534863686088  0.11120774515435267  1.0000
  H   H6        1.0  0.7437420142707084  0.7727852150476054  0.8887934728500965  1.0000
  H   H7        1.0  0.5851960348712383  0.2098308750097218  0.18983139622167758  1.0000
  H   H8        1.0  0.4148005355424901  0.7901720600240907  0.8101693235246542  1.0000
  H   H9        1.0  0.86165691920813  0.8806210989906377  0.5876432717030438  1.0000
  H   H10       1.0  0.13835051941656934  0.11937420962289741  0.4123537031092041  1.0000
  H   H11       1.0  0.0023196598935867853  0.640089737154419  0.5344985226908461  1.0000
  H   H12       1.0  0.9976787268358649  0.35990330913450913  0.4654947637777979  1.0000
  H   H13       1.0  0.489313040722962  0.43851053677637003  0.3429873338967368  1.0000
  H   H14       1.0  0.5106763340393954  0.5614772610192703  0.6570145784651942  1.0000
  H   H15       1.0  0.10401660007092771  0.3037398558911804  0.2838668743091687  1.0000
  H   H16       1.0  0.8959776134588465  0.696259507001514  0.7161319584837357  1.0000
  H   H17       1.0  0.8929343172805346  0.19231957788882428  0.20126286628510567  1.0000
  H   H18       1.0  0.10706444261825245  0.8076808846343723  0.7987371461896087  1.0000
  H   H19       1.0  0.8742966471339243  0.2710829507871253  0.3154897390846897  1.0000
  H   H20       1.0  0.12569854882077888  0.7289153492751552  0.6845123947673528  1.0000
  H   H21       1.0  0.09340446874465161  0.8249396387633255  0.3947915878137777  1.0000
  H   H22       1.0  0.9066061278677323  0.17506307295272444  0.6052136888850226  1.0000
  H   H23       1.0  0.31864120182535066  0.8893511955168876  0.47353256828044  1.0000
  H   H24       1.0  0.6813660938496825  0.11064433381924489  0.5264690579617479  1.0000
  C   C1        1.0  0.715962592676554  0.9587015323127942  0.3252119945475727  1.0000
  C   C2        1.0  0.284035979401949  0.041292917090466084  0.6747860881920713  1.0000
  C   C3        1.0  0.40063750422922345  0.9946624226314358  0.2805938190382733  1.0000
  C   C4        1.0  0.5993593038273916  0.005326304003958203  0.7194075264360009  1.0000
  C   C5        1.0  0.1692604424749007  0.8166218879624196  0.030044796319444275  1.0000
  C   C6        1.0  0.8307607707832645  0.18339834417531622  0.9699618178163758  1.0000
  C   C7        1.0  0.254442713017717  0.9989258208104773  0.9452648814078655  1.0000
  C   C8        1.0  0.7455482902305379  0.0010817504924531948  0.05472982004154403  1.0000
  C   C9        1.0  0.5070960035151657  0.5891752290557831  0.11384917625760947  1.0000
  C   C10       1.0  0.49290197972911903  0.41082766788035496  0.8861516669389714  1.0000
  C   C11       1.0  0.3475989831393774  0.465568803851646  0.09616585622667628  1.0000
  C   C12       1.0  0.6523965819568147  0.5344306155387741  0.9038350934864496  1.0000
  C   C13       1.0  0.3762566653915513  0.32707386330129407  0.12346893445715779  1.0000
  C   C14       1.0  0.6237350099330713  0.6729268212420864  0.8765311252562853  1.0000
  C   C15       1.0  0.5606601217168361  0.3168015813291873  0.16752782803798988  1.0000
  C   C16       1.0  0.43933810814064594  0.683202624125876  0.8324758179596258  1.0000
  C   C17       1.0  0.7138068972697835  0.44683687690530144  0.18414487967333315  1.0000
  C   C18       1.0  0.28619751147999034  0.5531588232215798  0.8158584931383288  1.0000
  C   C19       1.0  0.9081096942368491  0.4443545825835216  0.23606308238255017  1.0000
  C   C20       1.0  0.09187585696054158  0.5556436057808939  0.763930213437831  1.0000
  C   C21       1.0  0.29971501223189273  0.6841302047663973  0.38092469655592953  1.0000
  C   C22       1.0  0.7002878840516544  0.31587030112276443  0.6190790087194953  1.0000
  C   C23       1.0  0.49876870580882837  0.6731001819042248  0.4245078535277428  1.0000
  C   C24       1.0  0.5012274954634179  0.32690163380145526  0.5754940503575057  1.0000
  C   C25       1.0  0.7782664419177507  0.7823142190653555  0.5317833926993457  1.0000
  C   C26       1.0  0.22174287584343938  0.21767279310842716  0.4682149320461732  1.0000
  C   C27       1.0  0.8559492087025191  0.6489638280604452  0.5029575192008265  1.0000
  C   C28       1.0  0.14405224783001097  0.3510258405464555  0.4970416835053014  1.0000
  C   C29       1.0  0.5758250570528459  0.5378810172239101  0.3969496277128711  1.0000
  C   C30       1.0  0.42417633821554546  0.4621087459783908  0.603051568463222  1.0000
  C   C31       1.0  0.9482356783752836  0.2940830076327999  0.2598482568333296  1.0000
  C   C32       1.0  0.05176441266853255  0.7059175429199199  0.7401545370516016  1.0000
  N   N1        1.0  0.8534257897966738  0.8981904202357144  0.3340847257603841  1.0000
  N   N2        1.0  0.14658534582731866  0.10182406546582001  0.6659190944886146  1.0000
  N   N3        1.0  0.5803925107039022  0.0394677270496331  0.32153127855627156  1.0000
  N   N4        1.0  0.41961407205200635  0.9605347521096447  0.6784663184018668  1.0000
  N   N5        1.0  0.23454157926590113  0.9720168837755525  0.24546170061486083  1.0000
  N   N6        1.0  0.7654724163628901  0.027986555755283898  0.754535993945616  1.0000
  N   N7        1.0  0.0743406236836108  0.7183758211883671  0.05614006157809108  1.0000
  N   N8        1.0  0.9256779043918826  0.281639656416516  0.9438645207632276  1.0000
  N   N9        1.0  0.28902206322290164  0.9219315294366125  0.008605979093346093  1.0000
  N   N10       1.0  0.7109941717040157  0.0780848914373564  0.9913918562886224  1.0000
  N   N11       1.0  0.2410186118011524  0.07375691932416828  0.8882860229941371  1.0000
  N   N12       1.0  0.7589714882364758  0.9262469786763602  0.11170558597211057  1.0000
  N   N13       1.0  0.68418066011521  0.5799930438146461  0.15639721556523506  1.0000
  N   N14       1.0  0.3158058595848061  0.4200150201629071  0.8436050894133302  1.0000
  N   N15       1.0  0.035287021658753207  0.5769791627102732  0.26360109189439374  1.0000
  N   N16       1.0  0.964705676933562  0.4230203959390977  0.7364009398982174  1.0000
  N   N17       1.0  0.2140877843371385  0.5686662584701098  0.3092337119297354  1.0000
  N   N18       1.0  0.7859113447031234  0.4313353233812193  0.6907651164060622  1.0000
  N   N19       1.0  0.6000207679670096  0.7953942440576327  0.492616937141129  1.0000
  N   N20       1.0  0.39998026310234985  0.20460361982774333  0.5073797101019933  1.0000
  N   N21       1.0  0.7544400250248201  0.5257355861283344  0.43552413835899256  1.0000
  N   N22       1.0  0.2455516642221056  0.4742541599715011  0.5644702132554187  1.0000
  N   N23       1.0  0.22625456715436335  0.8048167696896301  0.4219486233051199  1.0000
  N   N24       1.0  0.7737494749251611  0.19518242111472972  0.5780530671095149  1.0000
