data_image0
_chemical_formula_structural       Zn4H56C120S4N16O32
_chemical_formula_sum              "Zn4 H56 C120 S4 N16 O32"
_cell_length_a       16.630843274001226
_cell_length_b       17.78948574457318
_cell_length_c       19.767049676594354
_cell_angle_alpha    91.94883633995632
_cell_angle_beta     90.00001652685167
_cell_angle_gamma    90.00004021058342

_space_group_name_H-M_alt    "P 1"
_space_group_IT_number       1

loop_
  _space_group_symop_operation_xyz
  'x, y, z'

loop_
  _atom_site_type_symbol
  _atom_site_label
  _atom_site_symmetry_multiplicity
  _atom_site_fract_x
  _atom_site_fract_y
  _atom_site_fract_z
  _atom_site_occupancy
  Zn  Zn1       1.0  0.8933965098912394  0.9426310861182543  0.510612959630464  1.0000
  Zn  Zn2       1.0  0.3933964600688853  0.5573671051314689  0.4893881326926533  1.0000
  Zn  Zn3       1.0  0.10660383969993602  0.05736782951312589  0.4893880213628137  1.0000
  Zn  Zn4       1.0  0.6066044908138013  0.44263012214192793  0.5106112798450441  1.0000
  H   H1        1.0  0.9453006637162176  0.8137474542680465  0.7398408496994905  1.0000
  H   H2        1.0  0.44530243610793724  0.6862547080732425  0.26015936291204167  1.0000
  H   H3        1.0  0.054696078121509104  0.1862542736372674  0.2601602158739027  1.0000
  H   H4        1.0  0.5546979134837003  0.3137458942611531  0.739840657024729  1.0000
  H   H5        1.0  0.9246353608006928  0.797523300638943  0.2784312260602562  1.0000
  H   H6        1.0  0.42463670194423747  0.7024760359951471  0.7215694024263684  1.0000
  H   H7        1.0  0.07536378620572749  0.20247561532308106  0.7215702608352927  1.0000
  H   H8        1.0  0.575363647647194  0.2975240038842273  0.2784306005942767  1.0000
  H   H9        1.0  0.1136163286973044  0.626954412543455  0.5068034433342916  1.0000
  H   H10       1.0  0.6136151177316265  0.8730441525118592  0.49319405084700924  1.0000
  H   H11       1.0  0.8863870273550204  0.373043376192676  0.4931944684125469  1.0000
  H   H12       1.0  0.38638583315179187  0.12695476245765752  0.5068059183414775  1.0000
  H   H13       1.0  0.9412972423371003  0.8276828884607852  0.6131221023534579  1.0000
  H   H14       1.0  0.4412972437441241  0.6723187094207076  0.3868791040914204  1.0000
  H   H15       1.0  0.058701904670265016  0.17231827765237986  0.3868799581090059  1.0000
  H   H16       1.0  0.5587025045546669  0.3276807680034393  0.6131208820130283  1.0000
  H   H17       1.0  0.8537872784731777  0.0407878766272347  0.7602754814103108  1.0000
  H   H18       1.0  0.35378624234218853  0.45921417716608187  0.2397245092619258  1.0000
  H   H19       1.0  0.14621427370394707  0.9592144130726438  0.23972458927497092  1.0000
  H   H20       1.0  0.6462135059569861  0.5407869866300387  0.760274009883581  1.0000
  H   H21       1.0  0.0111296878591673  0.7435188800939725  0.5106101720085547  1.0000
  H   H22       1.0  0.5111295906620797  0.7564784924582781  0.4893882731334571  1.0000
  H   H23       1.0  0.9888712630229294  0.2564772216073052  0.4893881948920438  1.0000
  H   H24       1.0  0.48887136022107563  0.2435204215181344  0.5106101783477329  1.0000
  H   H25       1.0  0.8810882724169035  0.03558525298020499  0.2625540318665713  1.0000
  H   H26       1.0  0.38108801177190094  0.4644151319616013  0.7374464211554752  1.0000
  H   H27       1.0  0.11891267846703359  0.9644147872303963  0.7374464770565866  1.0000
  H   H28       1.0  0.6189141416967916  0.5355849079183697  0.26255358186541145  1.0000
  H   H29       1.0  0.09952867120410498  0.88525307969158  0.0722073805932411  1.0000
  H   H30       1.0  0.599529820175377  0.614745477637399  0.9277926393874977  1.0000
  H   H31       1.0  0.9004704758020097  0.1147452734843739  0.9277935834837548  1.0000
  H   H32       1.0  0.4004711307078708  0.3852534366700481  0.0722063179961268  1.0000
  H   H33       1.0  0.8524908713550232  0.04380077642045419  0.6328902974901212  1.0000
  H   H34       1.0  0.3524898765445813  0.4562001515994181  0.367109659008193  1.0000
  H   H35       1.0  0.14751068082166804  0.9562003883693745  0.3671097393629239  1.0000
  H   H36       1.0  0.6475104730461609  0.5437987623767881  0.6328887924729187  1.0000
  H   H37       1.0  0.9244862697407541  0.8181164998353692  0.40545590665082193  1.0000
  H   H38       1.0  0.4244875519640344  0.6818833991544294  0.5945447387126209  1.0000
  H   H39       1.0  0.07551227597367219  0.18188354103650534  0.5945456140768925  1.0000
  H   H40       1.0  0.5755121963348839  0.318116640393704  0.40545475840551154  1.0000
  H   H41       1.0  0.09992687978660089  0.8951544812478288  0.9448651465456521  1.0000
  H   H42       1.0  0.5999289253418923  0.6048440763466586  0.05513487354016179  1.0000
  H   H43       1.0  0.9000716659271009  0.10484387192793318  0.0551358175312657  1.0000
  H   H44       1.0  0.40007202554135557  0.39515483796078843  0.9448640838434628  1.0000
  H   H45       1.0  0.6983570129549223  0.9316852842565949  0.07565582536192751  1.0000
  H   H46       1.0  0.1983565188734246  0.5683161518280854  0.924345317051916  1.0000
  H   H47       1.0  0.30164333663707055  0.06831531940193969  0.9243462181845672  1.0000
  H   H48       1.0  0.8016432294260126  0.43168501296113965  0.0756547198008874  1.0000
  H   H49       1.0  0.6978250191733794  0.9339386789557835  0.9476166347822997  1.0000
  H   H50       1.0  0.19782663024164285  0.5660638820163795  0.052385047226280804  1.0000
  H   H51       1.0  0.3021741278347109  0.06606417485349429  0.052385982330946504  1.0000
  H   H52       1.0  0.8021737193506412  0.43393840768309394  0.9476150234588446  1.0000
  H   H53       1.0  0.8806860332718003  0.0455685341726024  0.38961677388219584  1.0000
  H   H54       1.0  0.38068632295115634  0.4544312880464786  0.6103836621177905  1.0000
  H   H55       1.0  0.11931371502729601  0.9544315060376007  0.6103837350408129  1.0000
  H   H56       1.0  0.6193146279326031  0.54556875150206  0.3896158350005052  1.0000
  C   C1        1.0  0.11527115431773889  0.8152694730562116  0.4962193652264589  1.0000
  C   C2        1.0  0.6152710081764781  0.6847285329637669  0.5037816537920606  1.0000
  C   C3        1.0  0.8847291952733086  0.1847288804511749  0.5037821047531352  1.0000
  C   C4        1.0  0.3847287401215881  0.31526813350937727  0.4962202713415352  1.0000
  C   C5        1.0  0.9725290576689645  0.9078089749513724  0.9385068493875224  1.0000
  C   C6        1.0  0.47253189405590496  0.5921926437312521  0.0614943652893913  1.0000
  C   C7        1.0  0.027468285461267797  0.09219275328518249  0.0614947220883835  1.0000
  C   C8        1.0  0.5274690568285861  0.4078090835133991  0.9385056884796867  1.0000
  C   C9        1.0  0.2824772892154854  0.6610583919048876  0.49153587924975994  1.0000
  C   C10       1.0  0.7824754565771103  0.838940849058666  0.5084631940610151  1.0000
  C   C11       1.0  0.7175266681310576  0.3389438968026821  0.5084626737285377  1.0000
  C   C12       1.0  0.21752549430562604  0.161055816752814  0.4915377192678676  1.0000
  C   C13       1.0  0.9244640932487729  0.8656748881993507  0.7180500882682638  1.0000
  C   C14       1.0  0.42446703669414637  0.6343255722381538  0.2819490562983731  1.0000
  C   C15       1.0  0.07553264858826482  0.13432571380280925  0.2819494257655962  1.0000
  C   C16       1.0  0.5755333128972778  0.36567446764121314  0.7180509467222791  1.0000
  C   C17       1.0  0.9742511491426671  0.9150602067326333  0.8640369922540503  1.0000
  C   C18       1.0  0.47425340427162876  0.5849408503106301  0.1359637000581273  1.0000
  C   C19       1.0  0.025747997863490496  0.08493870823627958  0.13596297693420215  1.0000
  C   C20       1.0  0.5257481479050626  0.4150603144791916  0.8640363367949179  1.0000
  C   C21       1.0  0.9150002759320233  0.8533428432216467  0.3013261444902966  1.0000
  C   C22       1.0  0.4150003647495026  0.6466559245400915  0.6986744645405594  1.0000
  C   C23       1.0  0.08499526331927139  0.14665494716705038  0.6986742967676776  1.0000
  C   C24       1.0  0.5849951745027797  0.35334467779270523  0.3013255553955716  1.0000
  C   C25       1.0  0.9017941070757162  0.915459195130758  0.2618563314764657  1.0000
  C   C26       1.0  0.40179416276197344  0.584539564166782  0.7381447799761105  1.0000
  C   C27       1.0  0.09820503993083213  0.0845402829552526  0.7381446664327669  1.0000
  C   C28       1.0  0.59820618682933  0.4154599135885988  0.2618557120308509  1.0000
  C   C29       1.0  0.129803141875982  0.6857631360027411  0.5018604718151423  1.0000
  C   C30       1.0  0.629800685864204  0.8142348767153748  0.4981359979113194  1.0000
  C   C31       1.0  0.8702002141761654  0.31423465207131324  0.49813642812682707  1.0000
  C   C32       1.0  0.3701972585566012  0.1857629130120486  0.5018634315421054  1.0000
  C   C33       1.0  0.8991394902209963  0.9265534970759856  0.7588246429506214  1.0000
  C   C34       1.0  0.39913996884080666  0.5734480720667958  0.2411755405780696  1.0000
  C   C35       1.0  0.10085905549369302  0.07344766804386887  0.2411758998044604  1.0000
  C   C36       1.0  0.6008603807508736  0.42655309206055847  0.7588234844699431  1.0000
  C   C37       1.0  0.9723761793554856  0.89914269379085  0.08045138065070032  1.0000
  C   C38       1.0  0.4723769106503042  0.6008589247892503  0.9195498339856486  1.0000
  C   C39       1.0  0.027624170237061204  0.10085959690172787  0.9195502077417217  1.0000
  C   C40       1.0  0.5276234389411201  0.3991411150901171  0.0804501690349966  1.0000
  C   C41       1.0  0.9226241292226192  0.8729611749229561  0.648160117809141  1.0000
  C   C42       1.0  0.4226276924019033  0.6270392842893527  0.3518390262726214  1.0000
  C   C43       1.0  0.07737141002932191  0.12703830283081877  0.3518403741971881  1.0000
  C   C44       1.0  0.5773726571892298  0.3729601928039513  0.6481604539294779  1.0000
  C   C45       1.0  0.8236123693637439  0.9247891573384659  0.8646599247932798  1.0000
  C   C46       1.0  0.32361341439118263  0.5752134870760556  0.1353412844661577  1.0000
  C   C47       1.0  0.17638617635154222  0.07521313335351458  0.13534166359890779  1.0000
  C   C48       1.0  0.6763857326166018  0.42478992720204173  0.8646583141486134  1.0000
  C   C49       1.0  0.8727974902170885  0.9921743608628759  0.7295593598253802  1.0000
  C   C50       1.0  0.37279672699853705  0.5078277531909234  0.270440833676389  1.0000
  C   C51       1.0  0.1272022580827397  0.007827367043446998  0.2704417057484108  1.0000
  C   C52       1.0  0.6272024200083025  0.4921734109360329  0.729558191371467  1.0000
  C   C53       1.0  0.0760355970583433  0.7471164202264118  0.5039277830210196  1.0000
  C   C54       1.0  0.5760354994469239  0.7528815583388208  0.4960712020465792  1.0000
  C   C55       1.0  0.923965353824343  0.25288080704698496  0.4960716295166847  1.0000
  C   C56       1.0  0.4239648501435624  0.2471162313894125  0.5039282274071581  1.0000
  C   C57       1.0  0.8255399761054536  0.9172367873352127  0.08180042668809762  1.0000
  C   C58       1.0  0.3255412946464348  0.5827647331220759  0.9182002433447566  1.0000
  C   C59       1.0  0.1744597721941545  0.08276437811607448  0.9182006219695751  1.0000
  C   C60       1.0  0.6744590549449468  0.41723586821921527  0.08179825888471023  1.0000
  C   C61       1.0  0.8987919747759251  0.9125668841161524  0.9740851755057635  1.0000
  C   C62       1.0  0.3987941941262251  0.5874358106989204  0.0259165594711064  1.0000
  C   C63       1.0  0.1012065709394463  0.08743540690685592  0.025916918788858805  1.0000
  C   C64       1.0  0.601206155466187  0.41256704112454656  0.9740830222277025  1.0000
  C   C65       1.0  0.973925721634963  0.8962124389200878  0.1553511879807488  1.0000
  C   C66       1.0  0.4739258282108453  0.6037880551196722  0.844648981426822  1.0000
  C   C67       1.0  0.0260740266643467  0.10378816374514337  0.844649337858378  1.0000
  C   C68       1.0  0.526074521380501  0.39621198442866046  0.15535051569138864  1.0000
  C   C69       1.0  0.889970926018819  0.9861605128342533  0.2925959863344403  1.0000
  C   C70       1.0  0.3899715193998077  0.5138388007132946  0.7074046330156919  1.0000
  C   C71       1.0  0.1100288222801495  0.013838965251956395  0.7074050115748705  1.0000
  C   C72       1.0  0.6100300327761661  0.4861606763804147  0.2925948471865567  1.0000
  C   C73       1.0  0.043844180991818894  0.8932434395272464  0.0442998304701234  1.0000
  C   C74       1.0  0.5438453335129196  0.606756768081297  0.9557002255823976  1.0000
  C   C75       1.0  0.9561549660148573  0.10675660068275757  0.9557006784527998  1.0000
  C   C76       1.0  0.4561556173707544  0.3932432711361997  0.04429876563346371  1.0000
  C   C77       1.0  0.8249326839978011  0.9182539235535215  0.15694492075954264  1.0000
  C   C78       1.0  0.3249357799430684  0.5817475974930133  0.8430572668207859  1.0000
  C   C79       1.0  0.17506526042387088  0.08174499273913231  0.8430570720382846  1.0000
  C   C80       1.0  0.6750669748182504  0.41825300484217814  0.1569427531162972  1.0000
  C   C81       1.0  0.8725250935163161  0.9942881378868191  0.6592482301694602  1.0000
  C   C82       1.0  0.37252315018179877  0.5057139756541318  0.3407514573579249  1.0000
  C   C83       1.0  0.12747766124552135  0.005713589689463599  0.3407523295022941  1.0000
  C   C84       1.0  0.6274759968246145  0.49428606356276805  0.6592475338576947  1.0000
  C   C85       1.0  0.20903244450318684  0.7080011460456105  0.493378717695137  1.0000
  C   C86       1.0  0.7090311772826325  0.7919969201011766  0.5066187847185475  1.0000
  C   C87       1.0  0.7909697089648519  0.29199832972415857  0.5066187388974583  1.0000
  C   C88       1.0  0.29096857101568935  0.2080008706199479  0.4933821624424084  1.0000
  C   C89       1.0  0.8988495388699532  0.9093475902581215  0.045974134142007  1.0000
  C   C90       1.0  0.39885027429949826  0.5906551042637671  0.9540270949474065  1.0000
  C   C91       1.0  0.10115020943025138  0.0906547007652918  0.9540279601527716  1.0000
  C   C92       1.0  0.6011500752922673  0.40934606019462183  0.0459724360030478  1.0000
  C   C93       1.0  0.9155534811310063  0.8644509022117148  0.3714895754739302  1.0000
  C   C94       1.0  0.4155541388962973  0.6355489908287025  0.6285110675350438  1.0000
  C   C95       1.0  0.08444566587566982  0.1355491379982894  0.6285109334489931  1.0000
  C   C96       1.0  0.5844444068178732  0.36445104905006787  0.3714889354853669  1.0000
  C   C97       1.0  0.8251540947547085  0.9216440244516734  0.9395224101165809  1.0000
  C   C98       1.0  0.3251557178238187  0.5783614332649518  0.060478884129864206  1.0000
  C   C99       1.0  0.1748444509616434  0.0783610785154423  0.060479262856191006  1.0000
  C   C100      1.0  0.6748446317688066  0.4216419810135432  0.9395207144850559  1.0000
  C   C101      1.0  0.0440157101978329  0.8983116661146153  0.9735445363151385  1.0000
  C   C102      1.0  0.5440177435717003  0.601689666849552  0.02645605951737201  1.0000
  C   C103      1.0  0.9559828355165082  0.10168837442622448  0.026456478510134204  1.0000
  C   C104      1.0  0.45598320731249226  0.3983114976090434  0.9735434714331532  1.0000
  C   C105      1.0  0.7539104125273823  0.9259125645536268  0.0467161566206116  1.0000
  C   C106      1.0  0.253911135265433  0.5740877829575481  0.953283954798323  1.0000
  C   C107      1.0  0.2460893357723961  0.07408860155973679  0.9532859038419232  1.0000
  C   C108      1.0  0.7460904169110876  0.4259133811702043  0.046715070249860005  1.0000
  C   C109      1.0  0.7536508137451463  0.9275694059205649  0.9757125662492215  1.0000
  C   C110      1.0  0.25365241998230914  0.5724326291141252  0.024288101752191007  1.0000
  C   C111      1.0  0.24634833326285843  0.07243344755767818  0.0242895449615901  1.0000
  C   C112      1.0  0.7463479296100176  0.4275702223783141  0.9757109740441762  1.0000
  C   C113      1.0  0.890720150534236  0.9918236721934687  0.3629432073723748  1.0000
  C   C114      1.0  0.39072131688783435  0.5081762043082704  0.6370574290914277  1.0000
  C   C115      1.0  0.1092789964724332  0.0081763680165352  0.6370573015505485  1.0000
  C   C116      1.0  0.6092802352882246  0.49182327311647356  0.3629425570132625  1.0000
  C   C117      1.0  0.07999636335899402  0.8913821852230868  0.49793126580650693  1.0000
  C   C118      1.0  0.5799967607800341  0.6086141086150718  0.5020676695567304  1.0000
  C   C119      1.0  0.9200021823534145  0.10861391647738829  0.5020671010937718  1.0000
  C   C120      1.0  0.42000178493348983  0.39138424389861354  0.49793228271532547  1.0000
  S   S1        1.0  0.2174992779002523  0.8037187121255227  0.48694247459731343  1.0000
  S   S2        1.0  0.7174997448968838  0.6962793599917346  0.5130555359506133  1.0000
  S   S3        1.0  0.782500470398368  0.19628076463654756  0.513056499702266  1.0000
  S   S4        1.0  0.2825000034005427  0.3037167423712148  0.486943842754691  1.0000
  N   N1        1.0  0.9032787283265974  0.9323823621635655  0.40164306828601337  1.0000
  N   N2        1.0  0.4032793247740685  0.567617522370881  0.5983570655853043  1.0000
  N   N3        1.0  0.09672101997249881  0.0676176780466378  0.5983574406369883  1.0000
  N   N4        1.0  0.596721626109698  0.4323825171776504  0.4016424315329915  1.0000
  N   N5        1.0  0.8993607763248052  0.9213417044217631  0.831600896476573  1.0000
  N   N6        1.0  0.39936243654279485  0.5786593024137615  0.1683992701944845  1.0000
  N   N7        1.0  0.10063776939009018  0.07866002315311958  0.16839966319462726  1.0000
  N   N8        1.0  0.6006385143413128  0.42134186171379173  0.831599754853613  1.0000
  N   N9        1.0  0.8970493775198563  0.9360807170186898  0.6195501150037616  1.0000
  N   N10       1.0  0.39704929534524785  0.5639214125248626  0.3804490730852237  1.0000
  N   N11       1.0  0.10295037077979431  0.06392101022556318  0.3804499387651603  1.0000
  N   N12       1.0  0.6029510542455797  0.43607750178237836  0.6195498842983227  1.0000
  N   N13       1.0  0.9001405376501809  0.9080641974630694  0.18881879514845681  1.0000
  N   N14       1.0  0.4001412251696764  0.5919351228573999  0.8111818268820629  1.0000
  N   N15       1.0  0.09985921064848922  0.09193471783707709  0.8111816799423082  1.0000
  N   N16       1.0  0.5998597257138698  0.40806435423611026  0.18881765332010764  1.0000
  O   O1        1.0  0.0077516861866015994  0.8981119760041094  0.5171056385479034  1.0000
  O   O2        1.0  0.5077520719942328  0.601883144147429  0.48289223213694044  1.0000
  O   O3        1.0  0.99224685952499  0.10188243766921799  0.4828916657991584  1.0000
  O   O4        1.0  0.49224707501154086  0.3981152077043929  0.5171067083303313  1.0000
  O   O5        1.0  0.12691522840273003  0.9452309124196532  0.4820995322383368  1.0000
  O   O6        1.0  0.6269173946907572  0.5547682259349997  0.5179010177792804  1.0000
  O   O7        1.0  0.8730821147262519  0.0547680028796975  0.5179009428521157  1.0000
  O   O8        1.0  0.3730829549005819  0.4452318136133328  0.4820984793389371  1.0000
  O   O9        1.0  0.35074202909910923  0.6927160989510667  0.48890173729014924  1.0000
  O   O10       1.0  0.8507413761800818  0.8072854379589458  0.511098433482438  1.0000
  O   O11       1.0  0.6492601243709047  0.3072878774520262  0.5110973723387033  1.0000
  O   O12       1.0  0.14925837211747248  0.1927101032731144  0.4889029519164865  1.0000
  O   O13       1.0  0.0376516138561129  0.9165811066505537  0.8319291059585228  1.0000
  O   O14       1.0  0.5376518780868693  0.5834168473444095  0.1680713866996868  1.0000
  O   O15       1.0  0.9623469318560895  0.0834133093400098  0.1680717397055673  1.0000
  O   O16       1.0  0.4623478702124829  0.41658431711378086  0.8319281442506892  1.0000
  O   O17       1.0  0.0362492779425949  0.885481199792636  0.18706497929125732  1.0000
  O   O18       1.0  0.5362497861535261  0.6145178778474828  0.8129350409271795  1.0000
  O   O19       1.0  0.9637522742337196  0.11451827862521205  0.8129365245207298  1.0000
  O   O20       1.0  0.4637499621450941  0.38548159891458766  0.18706393337240712  1.0000
  O   O21       1.0  0.2732444175255182  0.5894362590664811  0.49332574412456154  1.0000
  O   O22       1.0  0.7732438406320057  0.9105635388655525  0.5066743554738835  1.0000
  O   O23       1.0  0.7267601411133597  0.4105660293102601  0.5066723029513795  1.0000
  O   O24       1.0  0.22675891412828972  0.08943368973257997  0.49332708067379377  1.0000
  O   O25       1.0  0.7611573247542655  0.9301690897739546  0.832267034554839  1.0000
  O   O26       1.0  0.2611589781181324  0.5698351994180798  0.1677326912846553  1.0000
  O   O27       1.0  0.23884122096170296  0.069835450076063  0.1677336096969526  1.0000
  O   O28       1.0  0.7388407701815962  0.43016765141208413  0.8322653727067717  1.0000
  O   O29       1.0  0.7633856036585699  0.927530766064883  0.1903335698421884  1.0000
  O   O30       1.0  0.2633850734602419  0.5724690259633292  0.809667538962671  1.0000
  O   O31       1.0  0.2366183536877671  0.07246983693278249  0.8096674618999202  1.0000
  O   O32       1.0  0.7366146748378243  0.42752876376469817  0.1903318904909881  1.0000
