data_image0
_chemical_formula_structural       Zn6H136C152N28O36
_chemical_formula_sum              "Zn6 H136 C152 N28 O36"
_cell_length_a       11.395019440004816
_cell_length_b       18.80433890602666
_cell_length_c       23.92218530102437
_cell_angle_alpha    90.00016294897432
_cell_angle_beta     89.9999948556776
_cell_angle_gamma    90.00010470626684

_space_group_name_H-M_alt    "P 1"
_space_group_IT_number       1

loop_
  _space_group_symop_operation_xyz
  'x, y, z'

loop_
  _atom_site_type_symbol
  _atom_site_label
  _atom_site_symmetry_multiplicity
  _atom_site_fract_x
  _atom_site_fract_y
  _atom_site_fract_z
  _atom_site_occupancy
  Zn  Zn1       1.0  0.46410961436777837  0.5000006630689315  0.4999995990352487  1.0000
  Zn  Zn2       1.0  0.535893522178668  0.9999998244811367  1.1011311826999992e-06  1.0000
  Zn  Zn3       1.0  0.46970709767825974  0.6996136065959464  0.4818814932492399  1.0000
  Zn  Zn4       1.0  0.46970298515696385  0.3003887893557504  0.5181202126869306  1.0000
  Zn  Zn5       1.0  0.5302933260470295  0.8003886303865002  0.981878149085595  1.0000
  Zn  Zn6       1.0  0.5302960147319311  0.19961330117651238  0.018121881864523494  1.0000
  H   H1        1.0  0.4214111745719507  0.5183599740891295  0.358004231822889  1.0000
  H   H2        1.0  0.4214128510120999  0.48164183634397534  0.6419974764220837  1.0000
  H   H3        1.0  0.5785892697433255  0.9816423449596883  0.8580025432289486  1.0000
  H   H4        1.0  0.5785834955545468  0.0183580449495366  0.14199623134402364  1.0000
  H   H5        1.0  0.6475460527187167  0.5941845529332002  0.3202886929863097  1.0000
  H   H6        1.0  0.6475492504288383  0.4058164454867139  0.6797092422454722  1.0000
  H   H7        1.0  0.3524526427129615  0.9058181609878774  0.8202897724322536  1.0000
  H   H8        1.0  0.352449722599708  0.09418410451252161  0.17970901295698372  1.0000
  H   H9        1.0  0.5979918222480903  0.5098262905310449  0.2957561424584369  1.0000
  H   H10       1.0  0.5979979018393421  0.49017465276396893  0.7042434672310233  1.0000
  H   H11       1.0  0.4020059996847536  0.9901763343244386  0.7957565714314466  1.0000
  H   H12       1.0  0.4019984343816603  0.009825454507499401  0.20424095752161253  1.0000
  H   H13       1.0  0.6378636370641501  0.5198948626065774  0.3667864527800261  1.0000
  H   H14       1.0  0.6378644327807094  0.4801071886268176  0.6332127369820453  1.0000
  H   H15       1.0  0.3621376833692338  0.980108551914924  0.8667872792509139  1.0000
  H   H16       1.0  0.362133670401228  0.0198942561509625  0.13321108765379105  1.0000
  H   H17       1.0  0.07910913455710039  0.6060021292757014  0.2516311126158967  1.0000
  H   H18       1.0  0.0791131629585848  0.39399983213520773  0.7483697759546427  1.0000
  H   H19       1.0  0.9208904498617156  0.8939998035934382  0.7516304664610157  1.0000
  H   H20       1.0  0.9208857986589648  0.10600149892175642  0.24836829174351738  1.0000
  H   H21       1.0  0.1272093771663592  0.787039962956662  0.14253801888803955  1.0000
  H   H22       1.0  0.1272128439881897  0.21296152017449546  0.8574632854037529  1.0000
  H   H23       1.0  0.8727884702309721  0.7129610420635898  0.6425373897220152  1.0000
  H   H24       1.0  0.8727843443460869  0.28704127052156997  0.35746095276193995  1.0000
  H   H25       1.0  0.4040907625354109  0.7211613725889806  0.2528062929984712  1.0000
  H   H26       1.0  0.4040935678637467  0.2788388231991519  0.7471954160729691  1.0000
  H   H27       1.0  0.5959096992620303  0.7788389691716661  0.7528062418648527  1.0000
  H   H28       1.0  0.5959053939475467  0.22116144000675325  0.2471921138577996  1.0000
  H   H29       1.0  0.7659073351590919  0.5365456017732697  0.21453323746111141  1.0000
  H   H30       1.0  0.765905422854061  0.46345446474355617  0.7854680362855998  1.0000
  H   H31       1.0  0.23409664330499416  0.9634546010451716  0.7145352870216395  1.0000
  H   H32       1.0  0.23409089986190418  0.0365427466581636  0.2854668481982542  1.0000
  H   H33       1.0  0.7923838375789387  0.5476998247794997  0.14166448839102225  1.0000
  H   H34       1.0  0.792380124516633  0.45229388968726875  0.8583376201265263  1.0000
  H   H35       1.0  0.2076210305689088  0.9522974545322997  0.6416660963420282  1.0000
  H   H36       1.0  0.2076161860823049  0.0476998637171704  0.3583360401439249  1.0000
  H   H37       1.0  0.6473362720709445  0.559269997051743  0.16972465023840747  1.0000
  H   H38       1.0  0.6473351616707818  0.4407240878365856  0.8302745390618467  1.0000
  H   H39       1.0  0.3526668362578249  0.9407257887555147  0.6697274795403272  1.0000
  H   H40       1.0  0.3526593984435279  0.05927222264945442  0.3302746500101178  1.0000
  H   H41       1.0  0.748561376189123  0.6767402438705971  0.14844787635051654  1.0000
  H   H42       1.0  0.7485581544735351  0.32325395362433795  0.8515479639330646  1.0000
  H   H43       1.0  0.2514399805255749  0.8232570600691959  0.6484512848281481  1.0000
  H   H44       1.0  0.25143113664318406  0.17674030692779047  0.3515512675844688  1.0000
  H   H45       1.0  0.7041991996049504  0.8020384433964552  0.15642304090680165  1.0000
  H   H46       1.0  0.7041982358274834  0.1979615544700337  0.8435782357907936  1.0000
  H   H47       1.0  0.2957995230607651  0.69796261203755  0.6564249140505536  1.0000
  H   H48       1.0  0.2957971996584874  0.30203905865074177  0.34357763624534937  1.0000
  H   H49       1.0  0.677327871865117  0.846405964865575  0.2206170590683455  1.0000
  H   H50       1.0  0.6773267855725108  0.1535934713156024  0.7793850549576857  1.0000
  H   H51       1.0  0.3226699625555227  0.6535958554116024  0.7206184140599629  1.0000
  H   H52       1.0  0.3226677830041922  0.3464053133759393  0.2793828808843556  1.0000
  H   H53       1.0  0.727062837599874  0.8958444754058235  0.16164298570256355  1.0000
  H   H54       1.0  0.7270633482523507  0.10415554789749142  0.8383582899016485  1.0000
  H   H55       1.0  0.2729350066226743  0.6041571307701619  0.6616446509507978  1.0000
  H   H56       1.0  0.2729338432540729  0.39584504627167416  0.3383566463730359  1.0000
  H   H57       1.0  0.5148666526624268  0.9168703789047258  0.17438014486426562  1.0000
  H   H58       1.0  0.5148653471624982  0.08312940832739459  0.8256211408873209  1.0000
  H   H59       1.0  0.48513031186270444  0.5831286145521092  0.674382171140628  1.0000
  H   H60       1.0  0.4851309688838867  0.4168706078047109  0.32561786196629317  1.0000
  H   H61       1.0  0.8877301544246166  0.7539626031848955  0.5574231373944085  1.0000
  H   H62       1.0  0.8877215034249987  0.24603600347766275  0.44257645843701693  1.0000
  H   H63       1.0  0.1122747277276162  0.7460359656608021  0.05741949570501248  1.0000
  H   H64       1.0  0.11227918106413881  0.25396443726330625  0.9425772110576385  1.0000
  H   H65       1.0  0.668026260959067  0.7458818969576129  0.5562397133339444  1.0000
  H   H66       1.0  0.6680176340256665  0.25412071962117727  0.4437607290525845  1.0000
  H   H67       1.0  0.3319786213947467  0.7541198583424347  0.05623482507837707  1.0000
  H   H68       1.0  0.33198305026806446  0.24588078900727345  0.9437635432659729  1.0000
  H   H69       1.0  0.6677365665676548  0.6740566866144705  0.3923486697482017  1.0000
  H   H70       1.0  0.6677360261836679  0.3259427388958401  0.6076530267144731  1.0000
  H   H71       1.0  0.33226036173090984  0.8259436299416907  0.8923428838585462  1.0000
  H   H72       1.0  0.33226120366743567  0.17405701771794924  0.10765464842839374  1.0000
  H   H73       1.0  0.8837458445542834  0.6693068332292286  0.3890596621119256  1.0000
  H   H74       1.0  0.8837453178768158  0.33068911004522766  0.6109403519288887  1.0000
  H   H75       1.0  0.11625020671191777  0.8306918760147753  0.8890568232866652  1.0000
  H   H76       1.0  0.11625103384690047  0.16930746774575312  0.11093988328477875  1.0000
  H   H77       1.0  0.059818423230495896  0.7286389539315509  0.3868325266324175  1.0000
  H   H78       1.0  0.05981596292252791  0.2713555409221513  0.6131671087864415  1.0000
  H   H79       1.0  0.9401793835545361  0.7713570882698805  0.886831188305116  1.0000
  H   H80       1.0  0.9401830211675986  0.22864583108021466  0.11316464282450765  1.0000
  H   H81       1.0  0.2776486667389193  0.7207935576766857  0.39361366574223655  1.0000
  H   H82       1.0  0.27764535353678355  0.27920383847242647  0.606384287174819  1.0000
  H   H83       1.0  0.7223491389236469  0.7792056999000464  0.893614445424269  1.0000
  H   H84       1.0  0.7223536316846264  0.22080016786761547  0.10638265019166934  1.0000
  H   H85       1.0  0.26336076478751375  0.6763355003123622  0.5627022658244909  1.0000
  H   H86       1.0  0.2633558579947035  0.3236629435262871  0.43729652382106093  1.0000
  H   H87       1.0  0.7366441164861255  0.8236625559145736  0.06270294744086867  1.0000
  H   H88       1.0  0.7366430722113648  0.1763321601209853  0.9372958195672108  1.0000
  H   H89       1.0  0.04621239559674  0.6829386451220856  0.5639977285834161  1.0000
  H   H90       1.0  0.04620834677276521  0.317059025348378  0.43600274353370566  1.0000
  H   H91       1.0  0.9537916078830123  0.8170578204263849  0.06399587697048757  1.0000
  H   H92       1.0  0.9537905836499334  0.1829371371862294  0.9360020436094768  1.0000
  H   H93       1.0  0.509317581887622  0.8261550278161425  0.4044204825904883  1.0000
  H   H94       1.0  0.5093183420946089  0.17384847578657064  0.5955795493645153  1.0000
  H   H95       1.0  0.49068636501385027  0.6738442689895052  0.9044168583973399  1.0000
  H   H96       1.0  0.4906841552341277  0.3261597456763213  0.09558317444928116  1.0000
  H   H97       1.0  0.5106867999771723  0.9589743841377115  0.40955394080268076  1.0000
  H   H98       1.0  0.5106871623361187  0.04102965277868981  0.5904452550434269  1.0000
  H   H99       1.0  0.4893267994112662  0.5410249313117531  0.9095512748339015  1.0000
  H   H100      1.0  0.48932060130528754  0.45897908183552955  0.09044666796777524  1.0000
  H   H101      1.0  0.40800154296477587  0.9393600201079126  0.5831475938824793  1.0000
  H   H102      1.0  0.4079914621385753  0.06064337077603451  0.4168536969837999  1.0000
  H   H103      1.0  0.5920059676528878  0.5606466190149533  0.08314518830353278  1.0000
  H   H104      1.0  0.5920074714691452  0.43935431761744326  0.9168540036502716  1.0000
  H   H105      1.0  0.4158468794644179  0.8078265295449968  0.5709575073196189  1.0000
  H   H106      1.0  0.41583631387702974  0.19217633827604894  0.4290446192149344  1.0000
  H   H107      1.0  0.5841562452959436  0.6921790017324838  0.07095330504682808  1.0000
  H   H108      1.0  0.5841608625530768  0.30782245796395097  0.9290475593709142  1.0000
  H   H109      1.0  0.2653631816650445  0.5266373363650487  0.415358954753543  1.0000
  H   H110      1.0  0.26536396521358085  0.47336376866982743  0.5846423429311398  1.0000
  H   H111      1.0  0.7346407634148446  0.9733598729906774  0.9153593303603383  1.0000
  H   H112      1.0  0.7346394114952871  0.026634840822033802  0.08464278091963705  1.0000
  H   H113      1.0  0.0502700879812181  0.5273881010707341  0.411955843543758  1.0000
  H   H114      1.0  0.05026911355251679  0.4726095739171754  0.5880454644232669  1.0000
  H   H115      1.0  0.9497347352398506  0.972608564139264  0.9119566252131999  1.0000
  H   H116      1.0  0.9497342625915619  0.027389579720896496  0.08804547578441907  1.0000
  H   H117      1.0  0.8786590574567938  0.4352087962460019  0.4250515146049806  1.0000
  H   H118      1.0  0.8786592394925633  0.5647913957024785  0.5749459915517432  1.0000
  H   H119      1.0  0.12134514025119358  0.06479211267190983  0.9250556075345596  1.0000
  H   H120      1.0  0.12134476216654377  0.9352045778044198  0.07494611505443767  1.0000
  H   H121      1.0  0.663633535924582  0.4355548807602432  0.4291431195727282  1.0000
  H   H122      1.0  0.6636345951744147  0.5644429448014776  0.5708539788422154  1.0000
  H   H123      1.0  0.3363689059490085  0.0644449794259145  0.9291467834252456  1.0000
  H   H124      1.0  0.33636852958748875  0.9355524820599899  0.07085576492583097  1.0000
  H   H125      1.0  0.4642888510551585  0.6279856034762544  0.2712660397591619  1.0000
  H   H126      1.0  0.4642928167316071  0.37201785003564686  0.7287352484150982  1.0000
  H   H127      1.0  0.53570985252383  0.872016400674987  0.7712649450255566  1.0000
  H   H128      1.0  0.535707903298757  0.1279812825756252  0.22873592170492418  1.0000
  H   H129      1.0  0.8950569315243511  0.6646395713474363  0.24572743356757326  1.0000
  H   H130      1.0  0.895063415651151  0.3353606388503679  0.7542717438928858  1.0000
  H   H131      1.0  0.10493826599272889  0.8353618082993037  0.7457296219485056  1.0000
  H   H132      1.0  0.10493730013415359  0.1646380546753363  0.2542712653846236  1.0000
  H   H133      1.0  0.5031665733041207  0.7640583347808062  0.19359143048781385  1.0000
  H   H134      1.0  0.5031674848654859  0.23594037585178282  0.806409855822032  1.0000
  H   H135      1.0  0.49683477590989605  0.7359407284237208  0.693593378631064  1.0000
  H   H136      1.0  0.49682971194770426  0.2640579751643912  0.3064095800697543  1.0000
  C   C1        1.0  0.4672462566831185  0.617010172276551  0.3955159637705277  1.0000
  C   C2        1.0  0.4672432553428862  0.3829906255608152  0.6044853242595065  1.0000
  C   C3        1.0  0.5327559365501882  0.8829922829576448  0.8955144756088199  1.0000
  C   C4        1.0  0.5327566077632326  0.11700858775884633  0.10448513720038477  1.0000
  C   C5        1.0  0.46965688698293206  0.5662478623085789  0.34555099029283537  1.0000
  C   C6        1.0  0.4696610503330517  0.43375559717845386  0.6544519697127595  1.0000
  C   C7        1.0  0.5303418042526645  0.9337565386954622  0.8455483612754687  1.0000
  C   C8        1.0  0.5303379268919174  0.0662437975398333  0.1544508336266829  1.0000
  C   C9        1.0  0.5964578711177636  0.546706140566556  0.3313486676787817  1.0000
  C   C10       1.0  0.596461213188462  0.45329480102040537  0.6686509420840989  1.0000
  C   C11       1.0  0.4035417000521094  0.9532966135062395  0.8313490144142858  1.0000
  C   C12       1.0  0.4035360065236588  0.04670464524761541  0.16865102259675516  1.0000
  C   C13       1.0  0.2940995523023843  0.6079954911229707  0.2985912843564619  1.0000
  C   C14       1.0  0.2941018273730194  0.3920067094672888  0.701410429977194  1.0000
  C   C15       1.0  0.7059000243113331  0.8920066122314482  0.7985902260199746  1.0000
  C   C16       1.0  0.7058962644722725  0.10799391931555392  0.2014097965309175  1.0000
  C   C17       1.0  0.2468386320858826  0.6579636415920831  0.2555338199795613  1.0000
  C   C18       1.0  0.2468451378845913  0.3420379746301592  0.7444678966134429  1.0000
  C   C19       1.0  0.7531583189542913  0.8420377736525353  0.7555334841027486  1.0000
  C   C20       1.0  0.7531547019563689  0.15796227867539167  0.2444652821216095  1.0000
  C   C21       1.0  0.1320779573210018  0.6498553066914213  0.2356990873053703  1.0000
  C   C22       1.0  0.1320827290090207  0.35014565006616044  0.7643030527970037  1.0000
  C   C23       1.0  0.8679207521679331  0.8501455047509837  0.7356975099382336  1.0000
  C   C24       1.0  0.8679153523839388  0.14985573883452474  0.2643012507993489  1.0000
  C   C25       1.0  0.08852128118672908  0.696040293570661  0.19472086010691203  1.0000
  C   C26       1.0  0.08852327469619331  0.30396167831173676  0.8052808640576072  1.0000
  C   C27       1.0  0.911478312690221  0.803960900896776  0.6947200138061685  1.0000
  C   C28       1.0  0.9114756774623912  0.1960398593555297  0.30527832682579953  1.0000
  C   C29       1.0  0.16008333153538248  0.7507441605038992  0.17435237883925223  1.0000
  C   C30       1.0  0.16008603502371696  0.2492578909923324  0.8256493419031155  1.0000
  C   C31       1.0  0.8399153881505796  0.7492569600163179  0.6743514140864657  1.0000
  C   C32       1.0  0.8399111585966921  0.2507437206206972  0.3256469299677177  1.0000
  C   C33       1.0  0.2740849039102144  0.7596666695771861  0.19462687159380462  1.0000
  C   C34       1.0  0.2740875839846595  0.2403355087475774  0.8053752617189713  1.0000
  C   C35       1.0  0.725914689982403  0.7403345245480324  0.6946254743924524  1.0000
  C   C36       1.0  0.7259087354282627  0.2596654974690509  0.3053728751127521  1.0000
  C   C37       1.0  0.31634627754820605  0.7136608963010147  0.23580658563202656  1.0000
  C   C38       1.0  0.3163508577212468  0.2863407972472842  0.7641947096151253  1.0000
  C   C39       1.0  0.6836524319235266  0.7863404473266017  0.735806547013716  1.0000
  C   C40       1.0  0.683646346111793  0.21365952767401808  0.264192222534504  1.0000
  C   C41       1.0  0.9697553936135319  0.685385749049182  0.16882937986817123  1.0000
  C   C42       1.0  0.9697565372247821  0.31461507604129213  0.8311702120429056  1.0000
  C   C43       1.0  0.030244204565001095  0.8146142878404206  0.6688306895554843  1.0000
  C   C44       1.0  0.030239777901464  0.18538655561803102  0.3311697833288107  1.0000
  C   C45       1.0  0.7413826350866797  0.5675771885945977  0.17738282047955772  1.0000
  C   C46       1.0  0.7413779907186961  0.43241806450503617  0.8226172003686398  1.0000
  C   C47       1.0  0.25862047197247756  0.9324207521830346  0.6773852177518191  1.0000
  C   C48       1.0  0.25861481551231685  0.06757609101268972  0.32261775233876466  1.0000
  C   C49       1.0  0.7653019755141343  0.6470062285257469  0.18721604014504573  1.0000
  C   C50       1.0  0.765302359810171  0.3529917101403869  0.8127797993420527  1.0000
  C   C51       1.0  0.2347002523341573  0.8529917479530198  0.6872199336901017  1.0000
  C   C52       1.0  0.23469220321250356  0.14700506862839552  0.3127822015003899  1.0000
  C   C53       1.0  0.684118300253374  0.6754720396959684  0.23437313682328648  1.0000
  C   C54       1.0  0.684122994822914  0.3245279358205836  0.7656210344602808  1.0000
  C   C55       1.0  0.3158795318774779  0.824527703358413  0.7343773810913841  1.0000
  C   C56       1.0  0.3158759639228208  0.17547079891693332  0.26562600428478317  1.0000
  C   C57       1.0  0.3493038200646268  0.8175235284702397  0.17106888580927654  1.0000
  C   C58       1.0  0.34930456739082416  0.182476606363501  0.8289315718161202  1.0000
  C   C59       1.0  0.6506957777409426  0.6824759847562447  0.6710694534144819  1.0000
  C   C60       1.0  0.6506899929524153  0.31752342178932486  0.32893015375315554  1.0000
  C   C61       1.0  0.6709601890753305  0.8515291641835602  0.17499874092125361  1.0000
  C   C62       1.0  0.6709582022458918  0.1484707967021421  0.8250017013218592  1.0000
  C   C63       1.0  0.3290394080793248  0.6484719586894275  0.6750009202376358  1.0000
  C   C64       1.0  0.3290372363275863  0.35152974897862077  0.3250016284687191  1.0000
  C   C65       1.0  0.5439248863465237  0.8655178544819366  0.15747987509474365  1.0000
  C   C66       1.0  0.5439237321887872  0.13448143328488976  0.8425209912446544  1.0000
  C   C67       1.0  0.4560720809907082  0.634483204789106  0.6574824351928112  1.0000
  C   C68       1.0  0.45607258104615767  0.36551704882819547  0.342519689414928  1.0000
  C   C69       1.0  0.5361636163555444  0.8723470085870633  0.09330388973803846  1.0000
  C   C70       1.0  0.5361641861852036  0.12765333413208424  0.9066978130176718  1.0000
  C   C71       1.0  0.46383423922630834  0.6276548812795114  0.5933051801852256  1.0000
  C   C72       1.0  0.4638347491187247  0.3723496353075078  0.4066952719680186  1.0000
  C   C73       1.0  0.8416705291766319  0.7329370448125516  0.5209920788193967  1.0000
  C   C74       1.0  0.8416628128132544  0.26706151061029004  0.4790083552586209  1.0000
  C   C75       1.0  0.15833435903078197  0.7670613917709874  0.02098764572581759  1.0000
  C   C76       1.0  0.1583369880418459  0.23293746701738627  0.9790090588325094  1.0000
  C   C77       1.0  0.7199559458468341  0.730356187905386  0.5199721051486461  1.0000
  C   C78       1.0  0.719949992217039  0.2696443592777413  0.4800279167301438  1.0000
  C   C79       1.0  0.2800454322269417  0.7696438403497297  0.019967671986186993  1.0000
  C   C80       1.0  0.280049808470892  0.23035621743012777  0.9800298627970246  1.0000
  C   C81       1.0  0.7188755939484324  0.6884332508900358  0.4290284438915106  1.0000
  C   C82       1.0  0.7188732613515683  0.31156569971823705  0.5709724140810974  1.0000
  C   C83       1.0  0.2811239609819438  0.8115666670413191  0.929023882483534  1.0000
  C   C84       1.0  0.2811248521709544  0.1884328601443173  0.07097365224758077  1.0000
  C   C85       1.0  0.8406287857490469  0.6875914880870654  0.4270783673626679  1.0000
  C   C86       1.0  0.840625577775512  0.3124054708036113  0.5729224847852945  1.0000
  C   C87       1.0  0.15936901435100737  0.8124073591808952  0.92707464969537  1.0000
  C   C88       1.0  0.15937253541980567  0.1875909689676405  0.07292247283487537  1.0000
  C   C89       1.0  0.9045602540617139  0.7091552493384443  0.47412634913778345  1.0000
  C   C90       1.0  0.9045552340246841  0.29084178067329  0.5258732458869557  1.0000
  C   C91       1.0  0.09544017094618339  0.7908427051513911  0.9741225864850447  1.0000
  C   C92       1.0  0.09544376456938147  0.20915608366488675  0.025872867014854292  1.0000
  C   C93       1.0  0.03358411330845709  0.7059565686307678  0.4751321273581721  1.0000
  C   C94       1.0  0.033579980617084  0.29404055599612633  0.5248670912962152  1.0000
  C   C95       1.0  0.9664171891084194  0.7940413895162167  0.9751312563342291  1.0000
  C   C96       1.0  0.9664181405670645  0.2059567728957745  0.02486624562347119  1.0000
  C   C97       1.0  0.10094514167540318  0.7165982113433386  0.42683680063884555  1.0000
  C   C98       1.0  0.10094184658709791  0.28339792464022645  0.5731628328151073  1.0000
  C   C99       1.0  0.8990535360386004  0.7833990396760129  0.9268354911050732  1.0000
  C   C100      1.0  0.8990571441503404  0.21660223854697597  0.07316159605546348  1.0000
  C   C101      1.0  0.22236309440610566  0.7127922484814421  0.4301897480438795  1.0000
  C   C102      1.0  0.2223589337253671  0.28720508616529367  0.569810297627029  1.0000
  C   C103      1.0  0.7776373379049417  0.7872060782966557  0.930188870818959  1.0000
  C   C104      1.0  0.7776400575701244  0.21279559664213119  0.06980864017039318  1.0000
  C   C105      1.0  0.21475533905898198  0.6876125886918345  0.524622146461496  1.0000
  C   C106      1.0  0.21475039208382185  0.3123852692821742  0.47537748155182386  1.0000
  C   C107      1.0  0.7852477933911499  0.8123853292850285  0.024621964585229292  1.0000
  C   C108      1.0  0.7852476542181037  0.1876110361995487  0.9753768001003561  1.0000
  C   C109      1.0  0.09328385336235097  0.6910867199483378  0.5249778899670827  1.0000
  C   C110      1.0  0.09327714086462889  0.3089110028850329  0.47502090781107825  1.0000
  C   C111      1.0  0.9067210341807055  0.8089106675273001  0.02497685849720449  1.0000
  C   C112      1.0  0.9067217830737845  0.19108583309405702  0.9750198102694011  1.0000
  C   C113      1.0  0.4875054593716044  0.8540172725146318  0.4430959105795437  1.0000
  C   C114      1.0  0.48750438721457096  0.1459851432373185  0.5569045404393973  1.0000
  C   C115      1.0  0.5125002362568621  0.6459837600778827  0.9430926412931836  1.0000
  C   C116      1.0  0.5124989941123487  0.35401868347937443  0.05690697248648038  1.0000
  C   C117      1.0  0.4872124593416984  0.9278039720837015  0.4462750501722963  1.0000
  C   C118      1.0  0.4872129213725102  0.0722000387203749  0.553725818884409  1.0000
  C   C119      1.0  0.5127976236402887  0.5721970720533848  0.9462720345051845  1.0000
  C   C120      1.0  0.5127957259460131  0.4278069672085537  0.05372632519601689  1.0000
  C   C121      1.0  0.4596206256154289  0.9609299146446165  0.49722444644135766  1.0000
  C   C122      1.0  0.45961924152160083  0.0390730018771919  0.5027760059116486  1.0000
  C   C123      1.0  0.5403885713227012  0.5390718462549416  0.9972226097206511  1.0000
  C   C124      1.0  0.5403876591076296  0.46093062832700565  0.0027761666813503985  1.0000
  C   C125      1.0  0.4325455692562485  0.9170565973908464  0.5428280914522217  1.0000
  C   C126      1.0  0.4325390589852701  0.0829468208005366  0.4571731982402695  1.0000
  C   C127      1.0  0.567461070482544  0.582947236391064  0.04282448266744858  1.0000
  C   C128      1.0  0.5674625006549333  0.41705420472627  0.9571742924386865  1.0000
  C   C129      1.0  0.4347894225263714  0.843702771603759  0.5362767687346517  1.0000
  C   C130      1.0  0.43478225378638774  0.156300649083569  0.4637245208505475  1.0000
  C   C131      1.0  0.565214585573784  0.6563021019756121  0.03627248743865149  1.0000
  C   C132      1.0  0.565216672036449  0.3437009320208447  0.963727123820696  1.0000
  C   C133      1.0  0.21575113390120035  0.5141785503728542  0.4529984799493787  1.0000
  C   C134      1.0  0.21575108352473651  0.48581984050613886  0.5470024020828246  1.0000
  C   C135      1.0  0.7842510497691106  0.9858182638385175  0.9529992989620621  1.0000
  C   C136      1.0  0.7842514218629901  0.014178100543524906  0.04700280994726568  1.0000
  C   C137      1.0  0.0936697277743619  0.5143098319136996  0.45122774177733743  1.0000
  C   C138      1.0  0.09366879913127948  0.4856873595645724  0.5487735641137019  1.0000
  C   C139      1.0  0.9063333337666464  0.9856869758695979  0.9512285546593726  1.0000
  C   C140      1.0  0.9063310732337369  0.014311119705112701  0.04877354841376298  1.0000
  C   C141      1.0  0.02953290950864579  0.49999829416577785  0.5000000274457219  1.0000
  C   C142      1.0  0.9704728597621681  0.9999990026327981  6.727170927e-07  1.0000
  C   C143      1.0  0.8996885114546842  0.49999824640011786  0.4999991705954797  1.0000
  C   C144      1.0  0.10031638023981058  0.9999990503964471  6.935233329999996e-07  1.0000
  C   C145      1.0  0.8354533803719022  0.4645244075478133  0.4585104480529478  1.0000
  C   C146      1.0  0.8354517248138292  0.535474672748613  0.5414870601687551  1.0000
  C   C147      1.0  0.16454642389066268  0.03547502746089749  0.9585140555808419  1.0000
  C   C148      1.0  0.16454789452435387  0.9645211792876367  0.04148850098562919  1.0000
  C   C149      1.0  0.7134088322825747  0.4647492913281467  0.4604851872002198  1.0000
  C   C150      1.0  0.7134089315301962  0.5352496531943489  0.5395127448796797  1.0000
  C   C151      1.0  0.28659184922899067  0.03525068264161751  0.96048837036929  1.0000
  C   C152      1.0  0.28659068813692556  0.964746723466419  0.03951418036216128  1.0000
  N   N1        1.0  0.4121370729601351  0.5987561987166004  0.29799558987676267  1.0000
  N   N2        1.0  0.41214025324236997  0.401245601400575  0.7020065368336785  1.0000
  N   N3        1.0  0.58786162617627  0.9012459024732209  0.7979937217251628  1.0000
  N   N4        1.0  0.587858716077072  0.09875290237746272  0.2020054704245665  1.0000
  N   N5        1.0  0.8865619869048513  0.6588408280574002  0.20338848597889123  1.0000
  N   N6        1.0  0.8865632159397876  0.3411572455166266  0.796609855841538  1.0000
  N   N7        1.0  0.11343848310445279  0.8411582707139474  0.7033902688478616  1.0000
  N   N8        1.0  0.11343222734707581  0.1588394745434059  0.2966093640105071  1.0000
  N   N9        1.0  0.466677018242649  0.8106411536534568  0.1787955941820839  1.0000
  N   N10       1.0  0.466676909935039  0.1893580481757553  0.8212056938733309  1.0000
  N   N11       1.0  0.5333234558557294  0.6893589194200873  0.6787978548220931  1.0000
  N   N12       1.0  0.5333194068426436  0.31064035655397493  0.3212046841123806  1.0000
  N   N13       1.0  0.6589468051476643  0.7077410791148253  0.47509198428003413  1.0000
  N   N14       1.0  0.6589426670976692  0.2922594001983542  0.5249092945822296  1.0000
  N   N15       1.0  0.3410544972802541  0.7922595378389232  0.9750865409471527  1.0000
  N   N16       1.0  0.3410563316595585  0.2077405878141789  0.02491182696265069  1.0000
  N   N17       1.0  0.2790571361396843  0.698363250627665  0.47827271239659536  1.0000
  N   N18       1.0  0.27905302676702354  0.30163574246670083  0.5217264945209334  1.0000
  N   N19       1.0  0.7209432881818713  0.801636846092265  0.9782735421191187  1.0000
  N   N20       1.0  0.7209450949415769  0.19836317039840884  0.021724807623634493  1.0000
  N   N21       1.0  0.4620135547473723  0.8126864519427316  0.4873142334412674  1.0000
  N   N22       1.0  0.4620091037035792  0.18731646724027942  0.5126866368193956  1.0000
  N   N23       1.0  0.5379886232262194  0.6873147411776231  0.9873098009506047  1.0000
  N   N24       1.0  0.5379916522425177  0.31268666715678256  0.012691483696947597  1.0000
  N   N25       1.0  0.276506599622806  0.4999994951326131  0.5000012756077437  1.0000
  N   N26       1.0  0.7234982920723495  0.9999983334591463  2.6059971249999964e-07  1.0000
  N   N27       1.0  0.6523681786703649  0.49999917241213154  0.49999959453216275  1.0000
  N   N28       1.0  0.3476384681784666  0.999999187970488  6.876098054999998e-07  1.0000
  O   O1        1.0  0.47329008348108187  0.5919453067451315  0.44563301259066157  1.0000
  O   O2        1.0  0.47328628813770013  0.4080570931905712  0.5543674391081337  1.0000
  O   O3        1.0  0.526712978998745  0.9080573304372878  0.9456319985819304  1.0000
  O   O4        1.0  0.5267135833007542  0.09194353355631792  0.05436761451625218  1.0000
  O   O5        1.0  0.46315158562811115  0.6834522683172111  0.387734976174002  1.0000
  O   O6        1.0  0.46314750596975063  0.3165485249649579  0.6122667300738837  1.0000
  O   O7        1.0  0.5368514864748944  0.8165501586680508  0.8877329217687229  1.0000
  O   O8        1.0  0.5368523558437842  0.1834512483978088  0.11226710886722904  1.0000
  O   O9        1.0  0.22797324588252368  0.5779019300289293  0.3328673852048566  1.0000
  O   O10       1.0  0.22797561698454413  0.42209913341169897  0.6671347503118166  1.0000
  O   O11       1.0  0.7720254474570895  0.9220997659694773  0.8328659727288038  1.0000
  O   O12       1.0  0.7720224805585685  0.07790190272438481  0.1671323745730645  1.0000
  O   O13       1.0  0.7310668991468531  0.6895603878198244  0.2807100552370655  1.0000
  O   O14       1.0  0.7310706815556356  0.3104428306821987  0.7192853678710021  1.0000
  O   O15       1.0  0.2689335580140479  0.8104411188350227  0.7807138523429199  1.0000
  O   O16       1.0  0.2689300400491064  0.18955892658824783  0.21928911725798622  1.0000
  O   O17       1.0  0.5752259959108557  0.6791657845091591  0.2217263056297297  1.0000
  O   O18       1.0  0.5752271669830549  0.32083300627591166  0.7782670348159966  1.0000
  O   O19       1.0  0.4247735934747965  0.8208339126318693  0.7217301184390474  1.0000
  O   O20       1.0  0.42476827935270467  0.17916417899750306  0.2782740977732202  1.0000
  O   O21       1.0  0.9527137622379271  0.6989160359111608  0.11837831887557115  1.0000
  O   O22       1.0  0.9527122241186347  0.3010847702188499  0.8816212738505126  1.0000
  O   O23       1.0  0.0472911097819235  0.8010822224445989  0.6183791795798113  1.0000
  O   O24       1.0  0.047284082624798884  0.19891863997344936  0.38161920237929775  1.0000
  O   O25       1.0  0.5243443329107577  0.8144353180680141  0.06601409458530577  1.0000
  O   O26       1.0  0.5243433168964984  0.18556713866755103  0.9339863546719867  1.0000
  O   O27       1.0  0.4756482617523474  0.6855691316865347  0.5660176036011816  1.0000
  O   O28       1.0  0.4756494708386542  0.31443699342435855  0.4339849380989234  1.0000
  O   O29       1.0  0.5474572410191954  0.9339412732884329  0.07308883166490428  1.0000
  O   O30       1.0  0.5474611328991514  0.06605961379049322  0.9269137065952716  1.0000
  O   O31       1.0  0.4525450058038486  0.5660600113956066  0.5730883133380968  1.0000
  O   O32       1.0  0.4525448196558982  0.43394342904429817  0.4269104672657986  1.0000
  O   O33       1.0  0.3057726002155476  0.8689296784534903  0.14533132891462225  1.0000
  O   O34       1.0  0.3057688010673303  0.13106934436376605  0.854668712769374  1.0000
  O   O35       1.0  0.6942278794458615  0.6310708049174566  0.6453309438678684  1.0000
  O   O36       1.0  0.694227510151002  0.36893077722658774  0.3546669891322407  1.0000
