data_image0
_chemical_formula_structural       Cd2H60C60N8O8
_chemical_formula_sum              "Cd2 H60 C60 N8 O8"
_cell_length_a       9.154210278371417
_cell_length_b       11.842418883456888
_cell_length_c       16.212171007403374
_cell_angle_alpha    78.5160937303174
_cell_angle_beta     86.05855070441503
_cell_angle_gamma    76.91213757650681

_space_group_name_H-M_alt    "P 1"
_space_group_IT_number       1

loop_
  _space_group_symop_operation_xyz
  'x, y, z'

loop_
  _atom_site_type_symbol
  _atom_site_label
  _atom_site_symmetry_multiplicity
  _atom_site_fract_x
  _atom_site_fract_y
  _atom_site_fract_z
  _atom_site_occupancy
  Cd  Cd1       1.0  0.8341535538439049  0.5457590961889592  0.27127182170885783  1.0000
  Cd  Cd2       1.0  0.16585556737027932  0.4542420700097479  0.7287219877191404  1.0000
  H   H1        1.0  0.8446328436072719  0.477526803723812  0.986883208574305  1.0000
  H   H2        1.0  0.15540919017462326  0.5224526327831285  0.013117078868958678  1.0000
  H   H3        1.0  0.4107695703532529  0.451776887237429  0.44314905418660533  1.0000
  H   H4        1.0  0.5892374263004355  0.5482277889319603  0.5568449689769892  1.0000
  H   H5        1.0  0.15731745226970875  0.3748402688057765  0.34109501467180087  1.0000
  H   H6        1.0  0.8426790949192976  0.6251641348416469  0.658913741004234  1.0000
  H   H7        1.0  0.2782865827083397  0.16381850699556108  0.3928513570523791  1.0000
  H   H8        1.0  0.7217101293572056  0.8361850390413751  0.6071544296408291  1.0000
  H   H9        1.0  0.8596170081498044  0.07541632394641337  0.3524770452243189  1.0000
  H   H10       1.0  0.14038522172655385  0.92458646815529  0.6475224146995799  1.0000
  H   H11       1.0  0.7533495714186884  0.29334688222233035  0.3063030497295429  1.0000
  H   H12       1.0  0.24665029323730175  0.7066567410593337  0.6936988722288221  1.0000
  H   H13       1.0  0.9367654391309372  0.6037857740183625  0.44361424407139083  1.0000
  H   H14       1.0  0.0632329305476418  0.39622230776418377  0.556381555420991  1.0000
  H   H15       1.0  0.1257277252568656  0.69582692913459  0.4956352947474372  1.0000
  H   H16       1.0  0.8742704203750407  0.3041820252980115  0.5043616236648205  1.0000
  H   H17       1.0  0.33187238853169265  0.7218977798959686  0.2468379559295926  1.0000
  H   H18       1.0  0.6681320053519074  0.2781014922086698  0.7531625236340034  1.0000
  H   H19       1.0  0.13687982012500305  0.62525928390869  0.206417073457331  1.0000
  H   H20       1.0  0.8631286943396361  0.37473737229264964  0.7935854349265483  1.0000
  H   H21       1.0  0.16188970887404255  0.958723548942146  0.47805162565322235  1.0000
  H   H22       1.0  0.8381028793071295  0.0412711311443914  0.5219488512479912  1.0000
  H   H23       1.0  0.05948494565446795  0.9209951790248139  0.4037992840356567  1.0000
  H   H24       1.0  0.940516744601247  0.0790085659379898  0.5961914278057138  1.0000
  H   H25       1.0  0.37807271882789445  0.9685440778789667  0.3762205316755215  1.0000
  H   H26       1.0  0.6219291418486321  0.03146043947008079  0.6237836328387161  1.0000
  H   H27       1.0  0.27558652535663697  0.9393572580612285  0.2976729820410497  1.0000
  H   H28       1.0  0.7244204413739652  0.06065179708029689  0.7023265808522654  1.0000
  H   H29       1.0  0.4597645018976166  0.7601968089383391  0.37024281182936386  1.0000
  H   H30       1.0  0.5402346977079375  0.2398086147885152  0.6297545644045996  1.0000
  H   H31       1.0  0.35918968886715424  0.7705344329854781  0.46657099853759837  1.0000
  H   H32       1.0  0.6408111674821981  0.22946923108398923  0.5334277851128705  1.0000
  H   H33       1.0  0.8016897074824882  0.8269300890065097  0.2948422796611965  1.0000
  H   H34       1.0  0.1982939144468219  0.1730653429683926  0.705159138429444  1.0000
  H   H35       1.0  0.6503907675029339  0.029252229223018796  0.24014626679699802  1.0000
  H   H36       1.0  0.3495886115257181  0.9707431097853099  0.7598590708981305  1.0000
  H   H37       1.0  0.43017980191462607  0.8699895800472179  0.0795708746501447  1.0000
  H   H38       1.0  0.5698099603190342  0.13000686402760658  0.9204257829536218  1.0000
  H   H39       1.0  0.5931141844592601  0.6774425611832555  0.139643585146743  1.0000
  H   H40       1.0  0.4068850876262857  0.3225549170911179  0.8603512307994521  1.0000
  H   H41       1.0  0.857693862002165  0.12841787848993388  0.8832549843155135  1.0000
  H   H42       1.0  0.14229418033818328  0.8715776013328379  0.11674806435947722  1.0000
  H   H43       1.0  0.10680098662160731  0.15436295706302158  0.9177216230121275  1.0000
  H   H44       1.0  0.8931896647091476  0.8456308139165499  0.08227846139616452  1.0000
  H   H45       1.0  0.906553924447465  0.25008386917961895  0.14992736855379718  1.0000
  H   H46       1.0  0.09344835109596526  0.7499117999877497  0.8500768168786976  1.0000
  H   H47       1.0  0.6651426180857527  0.222681028024624  0.10515869210310312  1.0000
  H   H48       1.0  0.33485161352934517  0.7773198228174321  0.8948476025653349  1.0000
  H   H49       1.0  0.4930939522831679  0.12855024496346348  0.0638222954028649  1.0000
  H   H50       1.0  0.5069043509425557  0.8714436310559318  0.9361780216055351  1.0000
  H   H51       1.0  0.4272708752383921  0.1468863415577459  0.1661483013792306  1.0000
  H   H52       1.0  0.572728333697647  0.8531084128071811  0.8338543130546867  1.0000
  H   H53       1.0  0.28235445361220707  0.035093656400889  0.04615234869073961  1.0000
  H   H54       1.0  0.7176350017019003  0.9649009414277357  0.9538526096329748  1.0000
  H   H55       1.0  0.21777201681261718  0.043099717465658195  0.1501239128328891  1.0000
  H   H56       1.0  0.7822240499258728  0.9569056240032906  0.8498779448235751  1.0000
  H   H57       1.0  0.2375551456596412  0.2564561883656395  0.010183558367280911  1.0000
  H   H58       1.0  0.7624396200318274  0.7435420796185922  0.9898150627279847  1.0000
  H   H59       1.0  0.16581256590153262  0.2649808885835867  0.1134424937772422  1.0000
  H   H60       1.0  0.8341805035993914  0.7350191490844153  0.8865534865262177  1.0000
  C   C1        1.0  0.9036221768650492  0.5103610686997088  0.1085887773881637  1.0000
  C   C2        1.0  0.0964101531345563  0.4896288655932891  0.89141046580788  1.0000
  C   C3        1.0  0.934365494209963  0.4954002236101047  0.019845589009605608  1.0000
  C   C4        1.0  0.06568306482009227  0.504575755787208  0.9801554985947618  1.0000
  C   C5        1.0  0.6155824877259944  0.5153726850742544  0.39576943353432625  1.0000
  C   C6        1.0  0.384421389563677  0.48463901673199666  0.6042261956061097  1.0000
  C   C7        1.0  0.4991595433723361  0.4898746446994551  0.4608688454794319  1.0000
  C   C8        1.0  0.5008463795843382  0.5101335671888663  0.5391241031748066  1.0000
  C   C9        1.0  0.09479206884054037  0.3054699887085803  0.3454284064645492  1.0000
  C   C10       1.0  0.9052043433950061  0.6945308935772017  0.6545777784645922  1.0000
  C   C11       1.0  0.16163751956947442  0.18740368869705296  0.3738162904343554  1.0000
  C   C12       1.0  0.8383607703463767  0.8125981177352556  0.6261884369247568  1.0000
  C   C13       1.0  0.078162595757469  0.100644615378684  0.3778327617396117  1.0000
  C   C14       1.0  0.9218356121547229  0.899360767560367  0.6221677528022485  1.0000
  C   C15       1.0  0.9293427394777395  0.13921566927955809  0.3517457607545111  1.0000
  C   C16       1.0  0.07065447674109042  0.8607896728716822  0.6482578920952522  1.0000
  C   C17       1.0  0.8697499770883611  0.2592159719827335  0.3252377041128867  1.0000
  C   C18       1.0  0.1302507538311914  0.740788539670838  0.6747652818957023  1.0000
  C   C19       1.0  0.027110545025408297  0.6314253442833361  0.40270942632405143  1.0000
  C   C20       1.0  0.9728905717071896  0.3685809935636827  0.5972877257151836  1.0000
  C   C21       1.0  0.13108396138315473  0.6841920401838236  0.43036563017640367  1.0000
  C   C22       1.0  0.8689135814786014  0.31581514320043164  0.569630338641062  1.0000
  C   C23       1.0  0.2420980696448113  0.7207965288998037  0.3742764599952153  1.0000
  C   C24       1.0  0.7578998156038494  0.27920975175525337  0.6257220900282691  1.0000
  C   C25       1.0  0.24552687825046599  0.6982239189714576  0.2925147972200648  1.0000
  C   C26       1.0  0.7544794296500186  0.3017798237073066  0.7074837120821513  1.0000
  C   C27       1.0  0.1385932933130434  0.6444782386066379  0.2693960998386018  1.0000
  C   C28       1.0  0.8614104946902471  0.35552281890362986  0.7306016840635436  1.0000
  C   C29       1.0  0.14326299508376655  0.9721200001988491  0.4099175936468242  1.0000
  C   C30       1.0  0.856734007288118  0.027881840643502208  0.5900810217054443  1.0000
  C   C31       1.0  0.2910121398995217  0.9224352725709081  0.366154759019885  1.0000
  C   C32       1.0  0.7089899219901312  0.0775719335952587  0.6338459238201752  1.0000
  C   C33       1.0  0.34765948295641635  0.7889263924989152  0.3978073285768531  1.0000
  C   C34       1.0  0.6523429875798213  0.2110790783935244  0.6021898830481689  1.0000
  C   C35       1.0  0.7183954309899433  0.8412979370574689  0.24654682668877106  1.0000
  C   C36       1.0  0.28159307916710224  0.15869579245200777  0.7534546008341181  1.0000
  C   C37       1.0  0.6335451783969009  0.9535086026055805  0.21601552402385957  1.0000
  C   C38       1.0  0.3664414904164346  0.0464877491849549  0.7839868483777013  1.0000
  C   C39       1.0  0.5265885591344672  0.9688607404169004  0.15444938469636327  1.0000
  C   C40       1.0  0.47340293873647715  0.0311339239477704  0.8455511470745022  1.0000
  C   C41       1.0  0.5115246141957426  0.8672891330418083  0.12666502033592764  1.0000
  C   C42       1.0  0.4884654509780686  0.1327064183302085  0.8733329850985642  1.0000
  C   C43       1.0  0.6011592676025188  0.7582390277631033  0.16017648019752784  1.0000
  C   C44       1.0  0.39883786330932464  0.24175840904116802  0.8398196788632718  1.0000
  C   C45       1.0  0.8723697647967583  0.1547424911896726  0.9425435085222348  1.0000
  C   C46       1.0  0.12761890003712043  0.8452547546682536  0.0574611064352055  1.0000
  C   C47       1.0  0.012120195114839276  0.16885571296037236  0.9619250613818053  1.0000
  C   C48       1.0  0.9878732790532678  0.8311398504848879  0.03807709625728255  1.0000
  C   C49       1.0  0.02932863232842922  0.20189052436089128  0.03835307627276308  1.0000
  C   C50       1.0  0.9706590676250145  0.7981058581910714  0.9616473911962019  1.0000
  C   C51       1.0  0.9016937008338458  0.22092035336519436  0.09069024849198831  1.0000
  C   C52       1.0  0.09830451329866453  0.7790779166658979  0.9093137581831742  1.0000
  C   C53       1.0  0.7660772593806797  0.20567560034308494  0.0654727510502227  1.0000
  C   C54       1.0  0.23391625423418114  0.7943199530757922  0.9345306399641657  1.0000
  C   C55       1.0  0.43339906604929007  0.08911605235365269  0.11989252619008542  1.0000
  C   C56       1.0  0.5665984466962043  0.9108804716950446  0.8801074474520334  1.0000
  C   C57       1.0  0.27571886059539713  0.0876168821464276  0.095641417580282  1.0000
  C   C58       1.0  0.7242787673801773  0.9123831682771095  0.9043605101210801  1.0000
  C   C59       1.0  0.17992079412452  0.2111484313890202  0.06424049886114598  1.0000
  C   C60       1.0  0.8200731447501326  0.7888489381969138  0.9357582915591962  1.0000
  N   N1        1.0  0.9510706916299725  0.3412675094779658  0.3223494786413212  1.0000
  N   N2        1.0  0.0489295911962557  0.6587387474757094  0.6776557452070122  1.0000
  N   N3        1.0  0.029626832210702496  0.6129166239825352  0.32327990004520046  1.0000
  N   N4        1.0  0.9703731578750805  0.3870861517150174  0.6767178195550372  1.0000
  N   N5        1.0  0.7033462060019177  0.7446994900359553  0.21920198213202724  1.0000
  N   N6        1.0  0.2966495347696991  0.2552952672953026  0.780794630034343  1.0000
  N   N7        1.0  0.7498207273658579  0.17169268737688978  0.9930583785821838  1.0000
  N   N8        1.0  0.25017361306581887  0.8283037644402781  0.006944843107135118  1.0000
  O   O1        1.0  0.006389370425502166  0.5294704992683067  0.15003101648980527  1.0000
  O   O2        1.0  0.993638357673319  0.47051669334652496  0.8499706944837158  1.0000
  O   O3        1.0  0.7727494047211108  0.5040147836277171  0.13978766906637222  1.0000
  O   O4        1.0  0.2272814303010833  0.49597960916617007  0.8602054516636954  1.0000
  O   O5        1.0  0.7161846947192602  0.5664663998201434  0.4117914164759782  1.0000
  O   O6        1.0  0.2838251050484076  0.4335400738281192  0.5882040632307622  1.0000
  O   O7        1.0  0.6091319958498431  0.48270102329689735  0.3257113689186042  1.0000
  O   O8        1.0  0.3908698823091328  0.5173133408959387  0.6742802715993008  1.0000
