data_image0
_chemical_formula_structural       Na2H20C14S2N2Cl2O7
_chemical_formula_sum              "Na2 H20 C14 S2 N2 Cl2 O7"
_cell_length_a       6.263995724786564
_cell_length_b       6.264051518660835
_cell_length_c       14.926810140669312
_cell_angle_alpha    80.70654019865648
_cell_angle_beta     80.70749084073772
_cell_angle_gamma    62.04121965467166

_space_group_name_H-M_alt    "P 1"
_space_group_IT_number       1

loop_
  _space_group_symop_operation_xyz
  'x, y, z'

loop_
  _atom_site_type_symbol
  _atom_site_label
  _atom_site_symmetry_multiplicity
  _atom_site_fract_x
  _atom_site_fract_y
  _atom_site_fract_z
  _atom_site_occupancy
  Na  Na1       1.0  0.36200688455706853  0.9235060161594077  0.5262966849373356  1.0000
  Na  Na2       1.0  0.07650703162369869  0.6379968998549613  0.4736999067893279  1.0000
  H   H1        1.0  0.6686930795440342  0.8299320111001267  0.3656048394301052  1.0000
  H   H2        1.0  0.17009000575274766  0.331293068264479  0.6343991822179406  1.0000
  H   H3        1.0  0.6997374079098363  0.05393823242982881  0.3829344438334772  1.0000
  H   H4        1.0  0.9460773244115686  0.3002665741889815  0.6170671855881977  1.0000
  H   H5        1.0  0.5720267494193576  0.3923608727619481  0.5533888256872999  1.0000
  H   H6        1.0  0.6076512763614729  0.4279776728085097  0.4466213294775017  1.0000
  H   H7        1.0  0.10575256024389279  0.7586512837480583  0.9630073641868862  1.0000
  H   H8        1.0  0.24132956779895628  0.8942572341695156  0.03700112162427161  1.0000
  H   H9        1.0  0.8973093277311007  0.5095651699350157  0.028995609720887213  1.0000
  H   H10       1.0  0.4904065345926654  0.10269040046004824  0.9710083875496025  1.0000
  H   H11       1.0  0.6531899890955798  0.43405045007529  0.9306234685243948  1.0000
  H   H12       1.0  0.5658593190290018  0.34689374611623697  0.06936332369961921  1.0000
  H   H13       1.0  0.6164245048379794  0.6208407558641583  0.7711877067633423  1.0000
  H   H14       1.0  0.37905424957968137  0.38368227754592255  0.2287961220451464  1.0000
  H   H15       1.0  0.9721157847423637  0.18055859621880901  0.7781036502781475  1.0000
  H   H16       1.0  0.8194034769807672  0.0279170941015678  0.22189895918006639  1.0000
  H   H17       1.0  0.22737041936512983  0.9278256294763452  0.7345419243806787  1.0000
  H   H18       1.0  0.07214439457496248  0.7726493507916745  0.2654585950949908  1.0000
  H   H19       1.0  0.21019891838188423  0.9920154399009107  0.847811044067285  1.0000
  H   H20       1.0  0.00795106933751553  0.789829455748105  0.15219270299467516  1.0000
  C   C1        1.0  0.8370540717548205  0.7953769388817167  0.7780687757627331  1.0000
  C   C2        1.0  0.2045619492555772  0.16300006602764228  0.22192632669592877  1.0000
  C   C3        1.0  0.9784429402475325  0.8380914786318527  0.8309926357012998  1.0000
  C   C4        1.0  0.16187076080353788  0.0215942572030059  0.1690107622170345  1.0000
  C   C5        1.0  0.9967087954859505  0.729140781976149  0.9210292084772931  1.0000
  C   C6        1.0  0.2708286920015439  0.0033032990061272  0.07897714265757828  1.0000
  C   C7        1.0  0.8802630153897296  0.5873199354945058  0.9581558504672499  1.0000
  C   C8        1.0  0.4126346745884959  0.1197779009893054  0.0418452202680655  1.0000
  C   C9        1.0  0.7434878493650101  0.5467445986143318  0.9041423124596477  1.0000
  C   C10       1.0  0.4531683764560981  0.2565869018690492  0.0958485803259492  1.0000
  C   C11       1.0  0.7224344020019158  0.6508681110414685  0.8141648226406631  1.0000
  C   C12       1.0  0.34905258529101246  0.27765430655684037  0.18582556841563053  1.0000
  C   C13       1.0  0.10415000554714014  0.9922138906703213  0.7961678827309626  1.0000
  C   C14       1.0  0.007749957131736009  0.8958821767919929  0.2038343254421804  1.0000
  S   S1        1.0  0.7884205675821931  0.9294725025262809  0.6631951560714029  1.0000
  S   S2        1.0  0.07049593312168408  0.2116466898643594  0.3367999198924068  1.0000
  N   N1        1.0  0.6953372089710681  0.21692122367417707  0.66074022732559  1.0000
  N   N2        1.0  0.783051242418736  0.3046916179882474  0.33926300696850825  1.0000
  Cl  Cl1       1.0  0.42643236460404665  0.3475586512892265  0.7330830710888063  1.0000
  Cl  Cl2       1.0  0.6523794549698462  0.5736018234076143  0.2669233179440198  1.0000
  O   O1        1.0  0.6165968113191267  0.8607103567627732  0.6364795957237418  1.0000
  O   O2        1.0  0.1392592034986108  0.38343588116725175  0.3635156438859966  1.0000
  O   O3        1.0  0.021575904531118607  0.8484884027114676  0.6066358415380364  1.0000
  O   O4        1.0  0.15149873756885038  0.9784471782248406  0.3933588833763153  1.0000
  O   O5        1.0  0.6860832235232692  0.9075239324989184  0.4139917110831917  1.0000
  O   O6        1.0  0.09249639866985859  0.3139098415498793  0.5860104601912752  1.0000
  O   O7        1.0  0.49526315480363065  0.5047381790233132  0.5000025696981112  1.0000
