data_image0
_chemical_formula_structural       Zn4H40C68N12O16
_chemical_formula_sum              "Zn4 H40 C68 N12 O16"
_cell_length_a       11.801034552514189
_cell_length_b       14.972242274920529
_cell_length_c       14.972229351808817
_cell_angle_alpha    96.36288017409316
_cell_angle_beta     107.27853095793613
_cell_angle_gamma    107.27842703481181

_space_group_name_H-M_alt    "P 1"
_space_group_IT_number       1

loop_
  _space_group_symop_operation_xyz
  'x, y, z'

loop_
  _atom_site_type_symbol
  _atom_site_label
  _atom_site_symmetry_multiplicity
  _atom_site_fract_x
  _atom_site_fract_y
  _atom_site_fract_z
  _atom_site_occupancy
  Zn  Zn1       1.0  0.8830787864354122  0.562013421761442  0.8049906281179702  1.0000
  Zn  Zn2       1.0  0.11692212482020638  0.19500887203283668  0.43798605462521323  1.0000
  Zn  Zn3       1.0  0.11692262623025577  0.4379856857009727  0.1950117714924602  1.0000
  Zn  Zn4       1.0  0.8830774114936019  0.8049880838191754  0.5620143337673867  1.0000
  H   H1        1.0  0.06857521755240721  0.5058492798066112  0.7279808483334309  1.0000
  H   H2        1.0  0.931425821914182  0.2720183207443085  0.4941486191100993  1.0000
  H   H3        1.0  0.9314246440157063  0.4941483926360134  0.2720190275694634  1.0000
  H   H4        1.0  0.06857590838966107  0.7279815028179539  0.5058512624713956  1.0000
  H   H5        1.0  0.2963082883515113  0.5242317952049546  0.7857513301435903  1.0000
  H   H6        1.0  0.7036931038446994  0.21424916250903434  0.4757683484566187  1.0000
  H   H7        1.0  0.7036916661614967  0.47576802631609644  0.21424813919475838  1.0000
  H   H8        1.0  0.29630783404733285  0.7857528092746334  0.5242315889518281  1.0000
  H   H9        1.0  0.32607150134016644  0.6670655931943941  0.06318288769085711  1.0000
  H   H10       1.0  0.673930070902145  0.9368164596563701  0.33293578361798387  1.0000
  H   H11       1.0  0.6739299941155679  0.3329356626920799  0.9368164313027239  1.0000
  H   H12       1.0  0.3260702190199892  0.0631840791096607  0.6670658472829558  1.0000
  H   H13       1.0  0.0927953710407008  0.64068287021292  0.9928203155369391  1.0000
  H   H14       1.0  0.9072048070580436  0.0071805154438636  0.3593169326979933  1.0000
  H   H15       1.0  0.9072040284473104  0.35931766736890575  0.007180440729356949  1.0000
  H   H16       1.0  0.0927954777866801  0.9928200229949836  0.6406833611767908  1.0000
  H   H17       1.0  0.4917094560222991  0.5649963353209556  0.8361957893699242  1.0000
  H   H18       1.0  0.5082921368649522  0.1638046537091356  0.4350032195915503  1.0000
  H   H19       1.0  0.5082908262837195  0.43500420295429615  0.1638038359917857  1.0000
  H   H20       1.0  0.4917084706953643  0.8361966011567289  0.5649958932804537  1.0000
  H   H21       1.0  0.8212332844176728  0.656549090803921  0.08866228551167411  1.0000
  H   H22       1.0  0.17876678101703175  0.9113374560278656  0.3434495168864515  1.0000
  H   H23       1.0  0.17876480389830354  0.34344857976108045  0.911337846661148  1.0000
  H   H24       1.0  0.8212331734959761  0.08866236549318529  0.65654995245189  1.0000
  H   H25       1.0  0.9657190024196892  0.8587322995138605  0.3894648497805662  1.0000
  H   H26       1.0  0.03428126986993605  0.6105354480507257  0.14126664281261006  1.0000
  H   H27       1.0  0.03428151473443819  0.14126680643717998  0.6105353381690649  1.0000
  H   H28       1.0  0.9657202255857981  0.3894658078357479  0.8587326761809708  1.0000
  H   H29       1.0  0.8803009250084273  0.8013260555549734  0.2113075316542137  1.0000
  H   H30       1.0  0.1196995350874558  0.7886927848822153  0.19867205809286054  1.0000
  H   H31       1.0  0.11969781889356307  0.1986730485184438  0.7886929125653384  1.0000
  H   H32       1.0  0.8803025204706925  0.21130775527065984  0.8013273109989215  1.0000
  H   H33       1.0  0.5393760437951015  0.6155232975446906  0.2386070219487593  1.0000
  H   H34       1.0  0.46062222150283805  0.7613922751266313  0.38447790355139944  1.0000
  H   H35       1.0  0.460622467797485  0.3844772390165331  0.7613935281959527  1.0000
  H   H36       1.0  0.5393765274765698  0.23860682927396223  0.6155238776943079  1.0000
  H   H37       1.0  0.6427762544466232  0.6778865937865958  0.41778671541302265  1.0000
  H   H38       1.0  0.3572231902195355  0.5822126123944358  0.3221133155224721  1.0000
  H   H39       1.0  0.3572245930392128  0.32211322908224105  0.5822142970730442  1.0000
  H   H40       1.0  0.6427773218571745  0.4177864932294213  0.6778855354010035  1.0000
  C   C1        1.0  0.12914519079596684  0.5407583704195531  0.8020291179752095  1.0000
  C   C2        1.0  0.8708557964218642  0.19797038641527814  0.4592395973177333  1.0000
  C   C3        1.0  0.8708547637170413  0.45924145110149783  0.19797035136313926  1.0000
  C   C4        1.0  0.1291448085997472  0.802030868286998  0.5407588470411895  1.0000
  C   C5        1.0  0.2567137406009293  0.5522005978005068  0.8348522255603612  1.0000
  C   C6        1.0  0.7432865917509303  0.16514714484385  0.4478002529195422  1.0000
  C   C7        1.0  0.7432874296004996  0.4477999414953543  0.16514760592292527  1.0000
  C   C8        1.0  0.2567140208867967  0.8348541103491981  0.5522001969786104  1.0000
  C   C9        1.0  0.3310312894146321  0.5984813267135466  0.9304827019736167  1.0000
  C   C10       1.0  0.6689700510704952  0.06951691104710278  0.40152044054168107  1.0000
  C   C11       1.0  0.6689708692432318  0.4015213631721153  0.06951893460592369  1.0000
  C   C12       1.0  0.3310284579833861  0.9304836253505256  0.598479441089964  1.0000
  C   C13       1.0  0.2713115894538659  0.6311754508326501  0.9886218654393704  1.0000
  C   C14       1.0  0.7286875250664336  0.011377415067265396  0.36882558367465634  1.0000
  C   C15       1.0  0.7286872448543135  0.3688258021555909  0.01137750370256182  1.0000
  C   C16       1.0  0.2713118744215775  0.9886231225145605  0.6311751725916324  1.0000
  C   C17       1.0  0.14317664177634967  0.616597950837196  0.9503843833966671  1.0000
  C   C18       1.0  0.8568239158110557  0.049614833834624485  0.3834010479126065  1.0000
  C   C19       1.0  0.8568233127366581  0.3834018706838478  0.0496150859416744  1.0000
  C   C20       1.0  0.14317604124065728  0.9503849878500147  0.6165990899388092  1.0000
  C   C21       1.0  0.4675845847227861  0.6128973156362603  0.9707655764314682  1.0000
  C   C22       1.0  0.5324159151942425  0.029233718348748994  0.38710399947972013  1.0000
  C   C23       1.0  0.5324157001219375  0.38710322280258663  0.029234717443323188  1.0000
  C   C24       1.0  0.4675831565007582  0.9707661024788691  0.6128966007632073  1.0000
  C   C25       1.0  0.53507201433532  0.592026052539971  0.9134027455409851  1.0000
  C   C26       1.0  0.4649289552005627  0.08659751852069769  0.40797321561770167  1.0000
  C   C27       1.0  0.4649273826139789  0.4079744848782667  0.08659734221222952  1.0000
  C   C28       1.0  0.5350716523597541  0.913403736345174  0.5920258972543027  1.0000
  C   C29       1.0  0.6633615282322934  0.6065195497651882  0.9561082909501765  1.0000
  C   C30       1.0  0.3366395738161998  0.043891309697684684  0.39347947337705597  1.0000
  C   C31       1.0  0.336638098487704  0.39347955500165444  0.043891022364796584  1.0000
  C   C32       1.0  0.6633607084898184  0.9561092285775671  0.6065201519846539  1.0000
  C   C33       1.0  0.7212374536129785  0.6449331879162515  0.05424303993903827  1.0000
  C   C34       1.0  0.2787642228193119  0.9457560043542653  0.355068245170159  1.0000
  C   C35       1.0  0.2787632494309377  0.35507021619162765  0.9457563348814946  1.0000
  C   C36       1.0  0.7212360569480011  0.054244533757397996  0.6449307116784767  1.0000
  C   C37       1.0  0.6473023507792917  0.6644973805303493  0.10636071082698353  1.0000
  C   C38       1.0  0.3526983857659258  0.8936397286687167  0.33550226109841935  1.0000
  C   C39       1.0  0.3526972810181235  0.3355017245636772  0.8936399395141451  1.0000
  C   C40       1.0  0.647301901617503  0.10636080993371878  0.6644987012894461  1.0000
  C   C41       1.0  0.872561948669656  0.8035173214598857  0.35338957515946134  1.0000
  C   C42       1.0  0.1274372158270012  0.6466103565455158  0.19648230922420853  1.0000
  C   C43       1.0  0.1274380109207698  0.19648250038834186  0.6466112312050357  1.0000
  C   C44       1.0  0.8725618558679996  0.35338946428210255  0.8035182910187119  1.0000
  C   C45       1.0  0.8247389011589448  0.7712301559658596  0.2543730021155212  1.0000
  C   C46       1.0  0.17526119461189885  0.745626712674877  0.22876924224608086  1.0000
  C   C47       1.0  0.1752610558927684  0.22876966571877225  0.7456271357359014  1.0000
  C   C48       1.0  0.824738437185509  0.25437239241914966  0.7712314080950479  1.0000
  C   C49       1.0  0.703110551329928  0.7022769487038542  0.21111685396913057  1.0000
  C   C50       1.0  0.29688842799880166  0.7888824519826726  0.29772234806220876  1.0000
  C   C51       1.0  0.29688940826049043  0.29772287314437307  0.7888839523953665  1.0000
  C   C52       1.0  0.7031103184418939  0.21111665225433277  0.7022787646704245  1.0000
  C   C53       1.0  0.6345878821716938  0.6687278626653779  0.2700002502970308  1.0000
  C   C54       1.0  0.3654108970382452  0.7299991524640745  0.33127335400394037  1.0000
  C   C55       1.0  0.3654106344983034  0.33127267422302237  0.7300016368738369  1.0000
  C   C56       1.0  0.63458841204357  0.2699992362029278  0.6687284773399683  1.0000
  C   C57       1.0  0.6906581421256277  0.7030569557348798  0.36853327650035084  1.0000
  C   C58       1.0  0.30934121939252884  0.6314661416486657  0.2969435241463644  1.0000
  C   C59       1.0  0.3093418174647906  0.2969428661133475  0.6314675298641461  1.0000
  C   C60       1.0  0.6906575245094613  0.3685329624247443  0.7030569200731878  1.0000
  C   C61       1.0  0.7368782190643511  0.5808562622407718  0.8968706210182021  1.0000
  C   C62       1.0  0.26312322364140767  0.10312939325439875  0.41914331553685713  1.0000
  C   C63       1.0  0.2631190641462737  0.419143555727679  0.10312622441619371  1.0000
  C   C64       1.0  0.7368792526546454  0.8968740127311035  0.5808558030137476  1.0000
  C   C65       1.0  0.9115094443961311  0.7265831595064822  0.7265872859415553  1.0000
  C   C66       1.0  0.08848944902519658  0.27341236365506916  0.27341613296968603  1.0000
  C   C67       1.0  0.8684832019239649  0.6400945636275492  0.6400980405796234  1.0000
  C   C68       1.0  0.13151882234114246  0.35989809778380527  0.3599064533590948  1.0000
  N   N1        1.0  0.07277110970743184  0.5718697971503913  0.8587582123710364  1.0000
  N   N2        1.0  0.9272292977047557  0.14124098919242556  0.42812895910957854  1.0000
  N   N3        1.0  0.9272288448055759  0.4281300243706596  0.1412412569673122  1.0000
  N   N4        1.0  0.07277065934695752  0.8587588324922136  0.5718711787418443  1.0000
  N   N5        1.0  0.5230623203903233  0.6473182406135364  0.06602495266483288  1.0000
  N   N6        1.0  0.4769388595561635  0.9339753081694083  0.352681972161065  1.0000
  N   N7        1.0  0.4769379669930983  0.35268229798889905  0.9339760097230327  1.0000
  N   N8        1.0  0.5230614252885601  0.0660252302694317  0.6473183217137264  1.0000
  N   N9        1.0  0.807441189620668  0.7694820497578474  0.40963978229660103  1.0000
  N   N10       1.0  0.19255917683283735  0.5903603693984678  0.23051862504373596  1.0000
  N   N11       1.0  0.19256054829930488  0.23051777429518688  0.5903621048241166  1.0000
  N   N12       1.0  0.8074404549645705  0.40963873569555165  0.7694820252973927  1.0000
  O   O1        1.0  0.682356326029506  0.5540763107231682  0.806848675504007  1.0000
  O   O2        1.0  0.3176439991476698  0.19315070772827164  0.44592319591315294  1.0000
  O   O3        1.0  0.31764227343056456  0.44592637458929113  0.193150131050011  1.0000
  O   O4        1.0  0.6823566033352362  0.806850546810416  0.5540745799326957  1.0000
  O   O5        1.0  0.8513688061176623  0.5878847702225585  0.9405189196300583  1.0000
  O   O6        1.0  0.14863174342898589  0.05948015021477461  0.4121158261690426  1.0000
  O   O7        1.0  0.14863114331793525  0.41211505097130186  0.059479212682134554  1.0000
  O   O8        1.0  0.8513676535203132  0.9405203872034632  0.587884261584172  1.0000
  O   O9        1.0  0.9284574669746558  0.7080964990810938  0.8090117260269382  1.0000
  O   O10       1.0  0.07154265632751587  0.1909877141956073  0.29190123009575336  1.0000
  O   O11       1.0  0.07154267596684598  0.2919076207603837  0.1909875986953864  1.0000
  O   O12       1.0  0.9284560621874078  0.8090113882418988  0.7080925289930421  1.0000
  O   O13       1.0  0.8535695658364376  0.5575768584597468  0.6585682673796996  1.0000
  O   O14       1.0  0.14643398553273085  0.3414307267790375  0.44242175863095673  1.0000
  O   O15       1.0  0.14643526158511114  0.4424258348149195  0.3414353245907122  1.0000
  O   O16       1.0  0.8535657678582422  0.6585647956036166  0.5575745127580305  1.0000
