data_image0
_chemical_formula_structural       Cd6H28C24N8O32
_chemical_formula_sum              "Cd6 H28 C24 N8 O32"
_cell_length_a       9.491150273378581
_cell_length_b       9.491106737743692
_cell_length_c       12.331256701448073
_cell_angle_alpha    89.1703009379786
_cell_angle_beta     89.16805725278593
_cell_angle_gamma    68.47710536175857

_space_group_name_H-M_alt    "P 1"
_space_group_IT_number       1

loop_
  _space_group_symop_operation_xyz
  'x, y, z'

loop_
  _atom_site_type_symbol
  _atom_site_label
  _atom_site_symmetry_multiplicity
  _atom_site_fract_x
  _atom_site_fract_y
  _atom_site_fract_z
  _atom_site_occupancy
  Cd  Cd1       1.0  0.18692477594966314  0.06880520583752059  0.5850674868972874  1.0000
  Cd  Cd2       1.0  0.9311961146721683  0.8130725162793979  0.9149344983190844  1.0000
  Cd  Cd3       1.0  0.8130739215726094  0.9311953582907363  0.41493529283275166  1.0000
  Cd  Cd4       1.0  0.06880426274603475  0.18692914171516858  0.0850657951554652  1.0000
  Cd  Cd5       1.0  0.9999974354542115  0.500001952845473  0.4999980146936664  1.0000
  Cd  Cd6       1.0  0.5000023314489679  0.9999982476592422  0.9999992406597329  1.0000
  H   H1        1.0  0.4717396840685807  0.512749700819917  0.35952585669048887  1.0000
  H   H2        1.0  0.4872512853643655  0.528264562319464  0.1404707713207003  1.0000
  H   H3        1.0  0.5282605316789457  0.48725535573314005  0.6404751857222022  1.0000
  H   H4        1.0  0.512752191718924  0.47173142541718255  0.8595295714050833  1.0000
  H   H5        1.0  0.4121528128576344  0.9296590428440153  0.4117895895230958  1.0000
  H   H6        1.0  0.07033664936957247  0.5878497701573195  0.08820627338595698  1.0000
  H   H7        1.0  0.5878466618926481  0.07033921581913918  0.5882091644439811  1.0000
  H   H8        1.0  0.9296702195947832  0.4121484375317408  0.9117923396425096  1.0000
  H   H9        1.0  0.3395150959322422  0.1096693483849478  0.39055650783434  1.0000
  H   H10       1.0  0.8903261514851765  0.6604878709341973  0.10944507188952458  1.0000
  H   H11       1.0  0.6604844189295488  0.8903289505529486  0.6094462996498322  1.0000
  H   H12       1.0  0.1096792444708257  0.3395114685771077  0.8905527366925483  1.0000
  H   H13       1.0  0.9594328248771119  0.2982580610789752  0.7022364324189496  1.0000
  H   H14       1.0  0.7017500879080103  0.040552752057827504  0.7977622936391526  1.0000
  H   H15       1.0  0.040559948522549294  0.7017469981184731  0.2977598867118303  1.0000
  H   H16       1.0  0.29824964988596037  0.959447788678517  0.20223884454996716  1.0000
  H   H17       1.0  0.027599468819317966  0.1745173889919798  0.7913538255705248  1.0000
  H   H18       1.0  0.8255010430758529  0.9723950079233108  0.7086454083235765  1.0000
  H   H19       1.0  0.9724003674307512  0.8254944082933944  0.20864303979451648  1.0000
  H   H20       1.0  0.1744976384018173  0.027605540095052603  0.2913557499996244  1.0000
  H   H21       1.0  0.9588765057039764  0.5268448166357018  0.7323816210744596  1.0000
  H   H22       1.0  0.4731525207356881  0.04112027728947959  0.7676197545263574  1.0000
  H   H23       1.0  0.0411210793458919  0.4731556983899311  0.2676155038657342  1.0000
  H   H24       1.0  0.5268461687642868  0.9588802787838302  0.23238221450026944  1.0000
  H   H25       1.0  0.7930043139880425  0.5642187565426086  0.683856876537625  1.0000
  H   H26       1.0  0.4357905735973945  0.20699238738204429  0.8161481574841501  1.0000
  H   H27       1.0  0.20699375703769354  0.4357862823546768  0.3161409633295591  1.0000
  H   H28       1.0  0.5642077152551223  0.7930093093414002  0.18385460836883277  1.0000
  C   C1        1.0  0.8737911958580612  0.24453122658621126  0.43458240243449336  1.0000
  C   C2        1.0  0.7554763201923933  0.1261927431270351  0.0654148880935921  1.0000
  C   C3        1.0  0.1261982469220299  0.7554772530157621  0.5654147260366855  1.0000
  C   C4        1.0  0.24452637164058186  0.8738055420197668  0.9345886696917418  1.0000
  C   C5        1.0  0.6938078651336352  0.4918127057361731  0.4154384522037091  1.0000
  C   C6        1.0  0.5081895509236746  0.30618885813336755  0.0845586730083312  1.0000
  C   C7        1.0  0.3061912009468912  0.5081866855221617  0.5845602878862977  1.0000
  C   C8        1.0  0.49181075721072887  0.6938071514493201  0.91544173011971  1.0000
  C   C9        1.0  0.6619605419029494  0.6615243119953363  0.4181566092377977  1.0000
  C   C10       1.0  0.33847570118191317  0.3380419165224282  0.0818402554827813  1.0000
  C   C11       1.0  0.33803890878043313  0.33847392250297054  0.5818397126190149  1.0000
  C   C12       1.0  0.6615277919459783  0.6619540873241191  0.9181617086498406  1.0000
  C   C13       1.0  0.584308350421928  0.43647324931909987  0.38179925072110177  1.0000
  C   C14       1.0  0.5635295558959187  0.41568928260976173  0.11819947721018309  1.0000
  C   C15       1.0  0.4156888339804892  0.5635284063566673  0.6181986710454481  1.0000
  C   C16       1.0  0.43647557993330827  0.584302198910997  0.8818033531341098  1.0000
  C   C17       1.0  0.6290226951169302  0.2792423016763407  0.3765064323559315  1.0000
  C   C18       1.0  0.7207571118689557  0.370977838466878  0.123490870737065  1.0000
  C   C19       1.0  0.3709776662566782  0.7207593402083318  0.6234922397117799  1.0000
  C   C20       1.0  0.2792445076031241  0.6290204378520414  0.8765110857755117  1.0000
  C   C21       1.0  0.5244825534842831  0.201391099854682  0.3379443585723508  1.0000
  C   C22       1.0  0.7986119327962339  0.4755187386314007  0.16205488645899638  1.0000
  C   C23       1.0  0.4755193049645711  0.7986094343725868  0.6620575500520189  1.0000
  C   C24       1.0  0.2013924469549764  0.5244806484366648  0.8379469957742598  1.0000
  N   N1        1.0  0.8329246039504739  0.3986618890630425  0.44283480834531724  1.0000
  N   N2        1.0  0.6013326765966626  0.1670763396293253  0.05716373437144989  1.0000
  N   N3        1.0  0.16707779274961607  0.6013340817907675  0.5571631224042903  1.0000
  N   N4        1.0  0.3986712091563831  0.8329185155121407  0.9428366222313969  1.0000
  N   N5        1.0  0.7687369010135258  0.18637907542704818  0.4024397719011148  1.0000
  N   N6        1.0  0.8136199946785468  0.2312591886315829  0.097557347123022  1.0000
  N   N7        1.0  0.23125856338145911  0.8136214461076676  0.5975565826038363  1.0000
  N   N8        1.0  0.1863816328158378  0.7687390957422836  0.9024454200929811  1.0000
  O   O1        1.0  0.007929679026162267  0.15707380708595053  0.4524765518981724  1.0000
  O   O2        1.0  0.8429144544664453  0.9920714105991378  0.04752445046113958  1.0000
  O   O3        1.0  0.9920743844421692  0.842917665606933  0.5475246771733636  1.0000
  O   O4        1.0  0.15708865405859032  0.0079257500074377  0.9524799319046762  1.0000
  O   O5        1.0  0.7771727632758993  0.6990946356051637  0.4337102361823497  1.0000
  O   O6        1.0  0.30090709681589806  0.2228279199838497  0.0662911315999537  1.0000
  O   O7        1.0  0.22282423830584722  0.3009048185468899  0.5662934083963549  1.0000
  O   O8        1.0  0.6990961332683056  0.7771658017894936  0.9337084483106253  1.0000
  O   O9        1.0  0.5281192703600013  0.7482332673719866  0.4035835533457757  1.0000
  O   O10       1.0  0.251770154363676  0.4718856316424792  0.09641329295246948  1.0000
  O   O11       1.0  0.47188074774691563  0.2517660118899983  0.596404627465695  1.0000
  O   O12       1.0  0.7482346209295941  0.5281070308031629  0.903594387735282  1.0000
  O   O13       1.0  0.3844049562860405  0.2758929229470509  0.33265596344688925  1.0000
  O   O14       1.0  0.7241066576223362  0.6156005434654048  0.16734489266566038  1.0000
  O   O15       1.0  0.6155902248790922  0.7241144359793665  0.6673459424514405  1.0000
  O   O16       1.0  0.2758995877623888  0.3843965630753345  0.8326561864842219  1.0000
  O   O17       1.0  0.5882363248255017  0.06085483396939401  0.31446999387512153  1.0000
  O   O18       1.0  0.9391433559500726  0.41176798631997263  0.1855278164094116  1.0000
  O   O19       1.0  0.4117573300920724  0.9391480244772837  0.6855328386371369  1.0000
  O   O20       1.0  0.0608612015164098  0.5882280182995031  0.8144749382925482  1.0000
  O   O21       1.0  0.3182167522474798  0.0218662530311704  0.41896242843996834  1.0000
  O   O22       1.0  0.9781309692418317  0.681786823161751  0.0810405330780242  1.0000
  O   O23       1.0  0.6817798165975971  0.9781343095512158  0.5810387701514088  1.0000
  O   O24       1.0  0.021873107354195967  0.3182102415583756  0.9189549114160869  1.0000
  O   O25       1.0  0.00746753703798929  0.1866430194145963  0.7130925576363082  1.0000
  O   O26       1.0  0.8133649921072889  0.9925255485484497  0.786907391137788  1.0000
  O   O27       1.0  0.9925282516621791  0.8133654245502411  0.286905260733775  1.0000
  O   O28       1.0  0.1866336973926863  0.007475007524860201  0.2130945778888389  1.0000
  O   O29       1.0  0.8995558104001515  0.4937791736804653  0.678078485913879  1.0000
  O   O30       1.0  0.5062259874764762  0.10044096654583971  0.8219190819386029  1.0000
  O   O31       1.0  0.10044120430928412  0.5062258724988311  0.3219193740873934  1.0000
  O   O32       1.0  0.4937733336254338  0.8995606987307455  0.17808123167003484  1.0000
