data_image0
_chemical_formula_structural       Zn4H32C56O20
_chemical_formula_sum              "Zn4 H32 C56 O20"
_cell_length_a       7.375448416444616
_cell_length_b       10.523259928164798
_cell_length_c       15.722464922076687
_cell_angle_alpha    89.99967828001236
_cell_angle_beta     89.9999249956578
_cell_angle_gamma    103.19930186353737

_space_group_name_H-M_alt    "P 1"
_space_group_IT_number       1

loop_
  _space_group_symop_operation_xyz
  'x, y, z'

loop_
  _atom_site_type_symbol
  _atom_site_label
  _atom_site_symmetry_multiplicity
  _atom_site_fract_x
  _atom_site_fract_y
  _atom_site_fract_z
  _atom_site_occupancy
  Zn  Zn1       1.0  0.7363265096702207  0.448795623421276  0.9623951070038148  1.0000
  Zn  Zn2       1.0  0.23632674551836153  0.9487965684909124  0.5376059666455717  1.0000
  Zn  Zn3       1.0  0.2636735796632479  0.5512090412113863  0.037604315279033115  1.0000
  Zn  Zn4       1.0  0.7636774151359378  0.0512081078174731  0.4623934556360255  1.0000
  H   H1        1.0  0.18718726528123128  0.6452319928995179  0.8413941571341256  1.0000
  H   H2        1.0  0.6871764026871007  0.14522898104942775  0.6586049026744974  1.0000
  H   H3        1.0  0.8128163769671559  0.35476683097665784  0.15860526515858456  1.0000
  H   H4        1.0  0.3128231682385803  0.8547698311480473  0.3413951556520374  1.0000
  H   H5        1.0  0.9343760337153313  0.6081944246297083  0.7338612450707842  1.0000
  H   H6        1.0  0.4343699809409571  0.10819056266636548  0.7661403490891489  1.0000
  H   H7        1.0  0.06562082299083014  0.39180437977502425  0.2661407213543399  1.0000
  H   H8        1.0  0.5656336613018027  0.8918082612008785  0.23386098130131933  1.0000
  H   H9        1.0  0.06399483573430587  0.24338862511424247  0.6637828473126675  1.0000
  H   H10       1.0  0.5639940249498852  0.7433846845656831  0.8362190990753435  1.0000
  H   H11       1.0  0.9359925212345175  0.7566101520650005  0.3362153029198538  1.0000
  H   H12       1.0  0.43600659049726437  0.2566131554696866  0.1637809592527049  1.0000
  H   H13       1.0  0.3199783237828627  0.28148733896077266  0.7725239180124392  1.0000
  H   H14       1.0  0.819974708671026  0.7814863570857824  0.7274758238384182  1.0000
  H   H15       1.0  0.6800162380787  0.718508533419772  0.22747168809301854  1.0000
  H   H16       1.0  0.1800248622584064  0.2185124551176543  0.2725229624229543  1.0000
  H   H17       1.0  0.011851147239681767  0.6010298610307174  0.539964458018389  1.0000
  H   H18       1.0  0.5118438272043875  0.10102794255206496  0.9600323285053849  1.0000
  H   H19       1.0  0.9881455036573071  0.39896406701368625  0.4600336922204208  1.0000
  H   H20       1.0  0.48814927077017967  0.8989718262369167  0.03996836585389471  1.0000
  H   H21       1.0  0.853891511051515  0.7697365895412033  0.4855481214632392  1.0000
  H   H22       1.0  0.3538893454302752  0.26973411606927294  0.014450685014026  1.0000
  H   H23       1.0  0.14611108666977654  0.23026320648815346  0.5144532089257157  1.0000
  H   H24       1.0  0.6461105380808831  0.7302656721822202  0.9855493733105976  1.0000
  H   H25       1.0  0.3523503844647564  0.5847027812280884  0.61835285824251  1.0000
  H   H26       1.0  0.8523469732206834  0.08469965629033278  0.8816526893533095  1.0000
  H   H27       1.0  0.6476500174485624  0.4153028594496603  0.38164847213616343  1.0000
  H   H28       1.0  0.14765395480068116  0.9152991597811777  0.11835118516832213  1.0000
  H   H29       1.0  0.5064199017357893  0.40864574734570863  0.666797199457797  1.0000
  H   H30       1.0  0.006411294776668746  0.9086429289831841  0.8332028905885027  1.0000
  H   H31       1.0  0.4935762230437674  0.5913550052900403  0.3332015868009748  1.0000
  H   H32       1.0  0.9935858745243565  0.09135685149045258  0.16679589567178252  1.0000
  C   C1        1.0  0.4256238976419766  0.4917110288854615  0.8750074230073681  1.0000
  C   C2        1.0  0.9256161909194204  0.9917090428610037  0.6249927402011864  1.0000
  C   C3        1.0  0.5743787000962045  0.508288767170697  0.12498818308832683  1.0000
  C   C4        1.0  0.07438609422014508  0.008289777120289396  0.3750073181245242  1.0000
  C   C5        1.0  0.2712151075158006  0.46613284353153256  0.8130108771272404  1.0000
  C   C6        1.0  0.7712087045684513  0.9661312569310992  0.6869888385822167  1.0000
  C   C7        1.0  0.728785195351506  0.5338640204587434  0.18698727310497534  1.0000
  C   C8        1.0  0.22879191088057382  0.0338665831072404  0.3130105837132434  1.0000
  C   C9        1.0  0.1602042422257312  0.5570775834106099  0.8026974718225832  1.0000
  C   C10       1.0  0.6601975351416203  0.05707519694313127  0.6973012982824259  1.0000
  C   C11       1.0  0.8397936590150367  0.44292024885285014  0.1973000423759572  1.0000
  C   C12       1.0  0.33980443741247507  0.9429226469841366  0.3026987600452032  1.0000
  C   C13       1.0  0.018452972985031013  0.536687446099904  0.7425619437691966  1.0000
  C   C14       1.0  0.518448312590742  0.036683528257739795  0.7574382599065006  1.0000
  C   C15       1.0  0.9815425266216949  0.4633113544248245  0.25743747852600063  1.0000
  C   C16       1.0  0.4815550170684162  0.9633143195584636  0.24256243445330486  1.0000
  C   C17       1.0  0.985792717233359  0.4233712524342507  0.6927942237746053  1.0000
  C   C18       1.0  0.4857893795507308  0.9233677170062787  0.8072080673127644  1.0000
  C   C19       1.0  0.014199023636137982  0.5766285124657955  0.307205834552498  1.0000
  C   C20       1.0  0.5142115484781371  0.0766310990771473  0.19279326307853495  1.0000
  C   C21       1.0  0.0928619102922355  0.33022026814161615  0.7035289882996596  1.0000
  C   C22       1.0  0.5928613341019825  0.8302166997730253  0.7964719795454585  1.0000
  C   C23       1.0  0.9071263844367723  0.6697814372056425  0.2964678898619227  1.0000
  C   C24       1.0  0.407140951039466  0.16978212021124509  0.20352744274767087  1.0000
  C   C25       1.0  0.23480211968939102  0.3523477051848046  0.7631881246375158  1.0000
  C   C26       1.0  0.7347994939938048  0.8523456637241366  0.7368126750827033  1.0000
  C   C27       1.0  0.7651920228197753  0.6476510914629046  0.23680811749517974  1.0000
  C   C28       1.0  0.2652011214552203  0.14765217631420308  0.2631867472127568  1.0000
  C   C29       1.0  0.7656829961268913  0.49546865716331445  0.6057658163394137  1.0000
  C   C30       1.0  0.2656784128498372  0.9954662550404333  0.8942350649014517  1.0000
  C   C31       1.0  0.2343125034742073  0.5045301433524897  0.39423551405354135  1.0000
  C   C32       1.0  0.7343244974569316  0.0045345170429414  0.10576626548558472  1.0000
  C   C33       1.0  0.8663755258485822  0.5962544745872976  0.5552404409326429  1.0000
  C   C34       1.0  0.3663726959635198  0.0962538281237144  0.9447574225837203  1.0000
  C   C35       1.0  0.1336237324935041  0.4037433615591368  0.44475898136323627  1.0000
  C   C36       1.0  0.6336285446527015  0.903745964016707  0.05524327177306532  1.0000
  C   C37       1.0  0.7781058008024148  0.6911427229950888  0.5257073887738956  1.0000
  C   C38       1.0  0.2781005017399423  0.19113886793105905  0.9742914444946822  1.0000
  C   C39       1.0  0.2218987791967706  0.30885902903421675  0.47429394161080307  1.0000
  C   C40       1.0  0.7219004262926842  0.8088599481583213  0.025708613831447708  1.0000
  C   C41       1.0  0.5935866031319108  0.6883481601239437  0.5488475869154572  1.0000
  C   C42       1.0  0.09358279775316448  0.18834452562873588  0.9511520036850103  1.0000
  C   C43       1.0  0.4064162004079392  0.3116565122806278  0.45115437949689874  1.0000
  C   C44       1.0  0.9064154160693292  0.811654282682788  0.0488467825767813  1.0000
  C   C45       1.0  0.5070870217591192  0.7963505169431996  0.521765779250899  1.0000
  C   C46       1.0  0.007079717134452248  0.29634466893905637  0.9782398191874864  1.0000
  C   C47       1.0  0.4929184959871122  0.20365416323327412  0.4782387312909649  1.0000
  C   C48       1.0  0.9929194344332046  0.7036570675166587  0.021762783264044603  1.0000
  C   C49       1.0  0.49520905219140593  0.5864251189272165  0.5999746505813023  1.0000
  C   C50       1.0  0.9952001040566216  0.0864218063470759  0.9000276245929444  1.0000
  C   C51       1.0  0.5047913497200298  0.4135805217475549  0.4000273158299521  1.0000
  C   C52       1.0  0.004795708131830061  0.9135779702257166  0.09997306976550392  1.0000
  C   C53       1.0  0.5806061872379757  0.4888118527805716  0.6275162906828983  1.0000
  C   C54       1.0  0.08059692908022935  0.9888115908648129  0.8724847266539089  1.0000
  C   C55       1.0  0.41939160723024566  0.5111898797951466  0.3724837676387054  1.0000
  C   C56       1.0  0.9194008653879991  0.011190141710905297  0.1275153316676949  1.0000
  O   O1        1.0  0.5586394205185101  0.4331891144387611  0.8658193659190376  1.0000
  O   O2        1.0  0.058636684728241885  0.9331901234667085  0.634180600840871  1.0000
  O   O3        1.0  0.44135941848431776  0.5668116459956919  0.13417624017598234  1.0000
  O   O4        1.0  0.9413639307170244  0.06680771656567688  0.3658200935197585  1.0000
  O   O5        1.0  0.42495909262473225  0.5748936852347767  0.9349209008874768  1.0000
  O   O6        1.0  0.9249575498620786  0.07489352461341528  0.5650776434634183  1.0000
  O   O7        1.0  0.5750401657304919  0.42510415093250487  0.06507406918031221  1.0000
  O   O8        1.0  0.07504640496615154  0.9251062753078468  0.43492368692513145  1.0000
  O   O9        1.0  0.5904640213543857  0.8792452136096568  0.4669822043905755  1.0000
  O   O10       1.0  0.09047354076160016  0.3792455255825188  0.0330176222844401  1.0000
  O   O11       1.0  0.4095402460574462  0.12075556236264617  0.5330197620286299  1.0000
  O   O12       1.0  0.9095438783747767  0.6207582135879475  0.9669824360275145  1.0000
  O   O13       1.0  0.3492881393529288  0.7995478434144799  0.5545418518042027  1.0000
  O   O14       1.0  0.8492729762030891  0.29953823736897783  0.9454692534137267  1.0000
  O   O15       1.0  0.6507257268497568  0.20046173648269416  0.4454645668237306  1.0000
  O   O16       1.0  0.1507264879500454  0.7004644751407554  0.05453334903588571  1.0000
  O   O17       1.0  0.8470050874389088  0.39504207954554  0.6327343975738843  1.0000
  O   O18       1.0  0.34700003816123365  0.895037977835855  0.867268082968522  1.0000
  O   O19       1.0  0.15298769794454606  0.6049567131804918  0.3672682048850718  1.0000
  O   O20       1.0  0.653002246976456  0.1049608421424608  0.13273261138976986  1.0000
