data_image0
_chemical_formula_structural       Zn2H32C46N4Cl4O8
_chemical_formula_sum              "Zn2 H32 C46 N4 Cl4 O8"
_cell_length_a       16.288378602285796
_cell_length_b       17.158687513396167
_cell_length_c       17.667720919826753
_cell_angle_alpha    88.23788371466124
_cell_angle_beta     82.5356155568308
_cell_angle_gamma    90.27580486961699

_space_group_name_H-M_alt    "P 1"
_space_group_IT_number       1

loop_
  _space_group_symop_operation_xyz
  'x, y, z'

loop_
  _atom_site_type_symbol
  _atom_site_label
  _atom_site_symmetry_multiplicity
  _atom_site_fract_x
  _atom_site_fract_y
  _atom_site_fract_z
  _atom_site_occupancy
  Zn  Zn1       1.0  0.4148517149149313  0.49012503209095815  0.5081846517352417  1.0000
  Zn  Zn2       1.0  0.5866177165429035  0.5099187287776342  0.4929283138252599  1.0000
  H   H1        1.0  0.7093405498745541  0.429835929503774  0.5646453311769972  1.0000
  H   H2        1.0  0.8613549185309352  0.4226912044159902  0.5665275685721126  1.0000
  H   H3        1.0  0.8863986004070484  0.6125972960832797  0.3971212450315915  1.0000
  H   H4        1.0  0.11351141343060077  0.40379784035168587  0.6190871155428751  1.0000
  H   H5        1.0  0.14207915568159274  0.5598915121202735  0.4194874357331599  1.0000
  H   H6        1.0  0.2939199686808891  0.5571447251452425  0.4250383359089652  1.0000
  H   H7        1.0  0.009307358136943802  0.5625686949909575  0.43585216725764997  1.0000
  H   H8        1.0  0.9924076795392123  0.4377660614582977  0.5661954015362552  1.0000
  H   H9        1.0  0.6002471476690303  0.4431917783183436  0.7360740013855318  1.0000
  H   H10       1.0  0.5947275232653977  0.4409599424382478  0.8767461300693995  1.0000
  H   H11       1.0  0.37669501127415117  0.5846842847325036  0.8894921979737305  1.0000
  H   H12       1.0  0.6418814481208556  0.43894576336724356  0.11140006986191511  1.0000
  H   H13       1.0  0.39423849874741984  0.5310919877387902  0.12407348645542265  1.0000
  H   H14       1.0  0.38668096991784745  0.5305870591395419  0.26474348217897864  1.0000
  H   H15       1.0  0.4207132201929724  0.5445309921167051  0.003668350990579899  1.0000
  H   H16       1.0  0.5856608008251242  0.4567142312479432  0.9972436763124435  1.0000
  H   H17       1.0  0.6054024361784157  0.7484811764535093  0.4762599455779294  1.0000
  H   H18       1.0  0.6031999682733373  0.8951778401374709  0.4708686229846676  1.0000
  H   H19       1.0  0.6485352444651794  0.10753810495868518  0.5216461282784904  1.0000
  H   H20       1.0  0.40455429748616467  0.10786813328916618  0.4559766650612501  1.0000
  H   H21       1.0  0.2721792881582914  0.7660440914412516  0.5719546719530512  1.0000
  H   H22       1.0  0.3253222379654089  0.6754618750928427  0.5638453488556435  1.0000
  H   H23       1.0  0.2860560191257732  0.7178830850559875  0.4839630445097356  1.0000
  H   H24       1.0  0.26923323102843  0.8744126021131251  0.48374099484797717  1.0000
  H   H25       1.0  0.3231592434490267  0.9616239711575002  0.501646216708977  1.0000
  H   H26       1.0  0.2849307235030095  0.8962996051127874  0.5779382586206125  1.0000
  H   H27       1.0  0.6565164029336968  0.30239156030341247  0.5769547455309904  1.0000
  H   H28       1.0  0.7029608923195028  0.2968129059931782  0.48151808753679853  1.0000
  H   H29       1.0  0.715188848046111  0.2183732188604423  0.5480455387807764  1.0000
  H   H30       1.0  0.3412745240084689  0.2200104788559045  0.4236022453487818  1.0000
  H   H31       1.0  0.39218420759820544  0.3129560915102303  0.41429792745351074  1.0000
  H   H32       1.0  0.33948580919521726  0.2815353326453191  0.5033275585151386  1.0000
  C   C1        1.0  0.498394250155556  0.5056555153372527  0.6473898658950786  1.0000
  C   C2        1.0  0.5205925894626374  0.34991181306027386  0.49914759904334005  1.0000
  C   C3        1.0  0.501160891541133  0.4937901873465548  0.3533670141650872  1.0000
  C   C4        1.0  0.48148987715425307  0.6495554442082322  0.4983881147418002  1.0000
  C   C5        1.0  0.7517932518382509  0.46878018987018066  0.5285559298755514  1.0000
  C   C6        1.0  0.8364783689743475  0.4657504856391199  0.5292931862307027  1.0000
  C   C7        1.0  0.8883189222458866  0.518109845215136  0.4817060376224305  1.0000
  C   C8        1.0  0.8500603193775546  0.5706434548664633  0.4352997040540813  1.0000
  C   C9        1.0  0.76401222019944  0.5695589655587979  0.4381365063238646  1.0000
  C   C10       1.0  0.9781558871970688  0.5208926552978922  0.478215027475464  1.0000
  C   C11       1.0  0.023645856768140995  0.47828271048513193  0.5227423070859132  1.0000
  C   C12       1.0  0.15058021246439776  0.4388344593830239  0.5746893635614185  1.0000
  C   C13       1.0  0.1134069450782462  0.48165219709361645  0.5196552348597975  1.0000
  C   C14       1.0  0.16616577780354905  0.5254890951110268  0.46435071665192834  1.0000
  C   C15       1.0  0.25067687355575424  0.5242866095583949  0.4665167782553965  1.0000
  C   C16       1.0  0.23649701211497384  0.44112991758417747  0.5727901741717147  1.0000
  C   C17       1.0  0.4918162952624455  0.5120627197315456  0.7324831250692937  1.0000
  C   C18       1.0  0.5511654168115215  0.47356190336329007  0.7710466841612911  1.0000
  C   C19       1.0  0.5480107348781329  0.4728752787539746  0.8497733706341178  1.0000
  C   C20       1.0  0.48445870444700717  0.5125479702236788  0.8946299799677674  1.0000
  C   C21       1.0  0.4258621810782656  0.5523893353645872  0.856629185161388  1.0000
  C   C22       1.0  0.4289781798761965  0.5524221307190655  0.7773579827458688  1.0000
  C   C23       1.0  0.47596924198847285  0.5146830580802869  0.9775732111542723  1.0000
  C   C24       1.0  0.5291580460499574  0.48464909741003476  0.023277484585051366  1.0000
  C   C25       1.0  0.5858060857233268  0.46066407017566746  0.1442370927619763  1.0000
  C   C26       1.0  0.5197589046411366  0.4865015019063819  0.10628665977095854  1.0000
  C   C27       1.0  0.44746527029404587  0.5120260466730001  0.15111085871078697  1.0000
  C   C28       1.0  0.44296677408965485  0.5119590388932308  0.2299584990309568  1.0000
  C   C29       1.0  0.5096863327899541  0.48843607383605564  0.2681366715522414  1.0000
  C   C30       1.0  0.5814162008412962  0.4622587321781778  0.22351271996922145  1.0000
  C   C31       1.0  0.4731752112796669  0.7366016339646249  0.49950927994959926  1.0000
  C   C32       1.0  0.5473559484757401  0.7801936923077263  0.4850827472938873  1.0000
  C   C33       1.0  0.5464419985388602  0.8605933056298766  0.48202289478926724  1.0000
  C   C34       1.0  0.47024212474203597  0.8995514107210097  0.49290055003221767  1.0000
  C   C35       1.0  0.3947543883367004  0.8572388456539172  0.5073891112256844  1.0000
  C   C36       1.0  0.3962797975017195  0.774840427011007  0.5127662021457979  1.0000
  C   C37       1.0  0.5951515909944333  0.14076880553582777  0.5079849318794982  1.0000
  C   C38       1.0  0.5261128980259073  0.09960457602076639  0.4904429230558521  1.0000
  C   C39       1.0  0.4570657419535563  0.14063561054104667  0.47140953862012924  1.0000
  C   C40       1.0  0.4547121308487404  0.22169038885591155  0.4728828004713462  1.0000
  C   C41       1.0  0.5242759476912794  0.26285442187932506  0.4933498696848558  1.0000
  C   C42       1.0  0.5956548693503477  0.22206539711480386  0.5096038964636023  1.0000
  C   C43       1.0  0.3157783255069972  0.7311590495305679  0.5346939479515597  1.0000
  C   C44       1.0  0.31370477338164443  0.899882727827645  0.5179619233310431  1.0000
  C   C45       1.0  0.6719071210062778  0.262006329604361  0.5302188463096938  1.0000
  C   C46       1.0  0.3778733120196661  0.2613295836295109  0.45202151497943527  1.0000
  N   N1        1.0  0.7152876943797607  0.5197737684362735  0.483708934481612  1.0000
  N   N2        1.0  0.2860810290764704  0.4826077606284043  0.5197601939100807  1.0000
  N   N3        1.0  0.4648327115612289  0.9815558478649818  0.48959005964677255  1.0000
  N   N4        1.0  0.532127150594839  0.0175357598824419  0.49437174007047685  1.0000
  Cl  Cl1       1.0  0.7183619929400534  0.6345319003855535  0.381440626613056  1.0000
  Cl  Cl2       1.0  0.2808085734469826  0.38878487076268436  0.6406832657865493  1.0000
  Cl  Cl3       1.0  0.3539179885199387  0.6069070037636877  0.7392422922654658  1.0000
  Cl  Cl4       1.0  0.6657698658675597  0.42702796831447637  0.2641187526239506  1.0000
  O   O1        1.0  0.43224806404450083  0.5149907544996779  0.6173805595889945  1.0000
  O   O2        1.0  0.5693953426967723  0.49000312370694116  0.611763837050347  1.0000
  O   O3        1.0  0.586242606734814  0.390073661185795  0.4788854327541258  1.0000
  O   O4        1.0  0.450577692198017  0.37813324010939187  0.5248352311709822  1.0000
  O   O5        1.0  0.5633054419858609  0.5199442677223726  0.3812867095034845  1.0000
  O   O6        1.0  0.43150964465039005  0.4733496418250167  0.39043607205058345  1.0000
  O   O7        1.0  0.42061501285849795  0.6087294974141526  0.4825843713691923  1.0000
  O   O8        1.0  0.5509726737886067  0.6220920422716744  0.5120566084818278  1.0000
