data_image0
_chemical_formula_structural       Cu2H32C20N4O8
_chemical_formula_sum              "Cu2 H32 C20 N4 O8"
_cell_length_a       7.263355776982821
_cell_length_b       8.039612369417766
_cell_length_c       11.256367666871025
_cell_angle_alpha    91.71431965242664
_cell_angle_beta     109.82360660431557
_cell_angle_gamma    108.99650008592106

_space_group_name_H-M_alt    "P 1"
_space_group_IT_number       1

loop_
  _space_group_symop_operation_xyz
  'x, y, z'

loop_
  _atom_site_type_symbol
  _atom_site_label
  _atom_site_symmetry_multiplicity
  _atom_site_fract_x
  _atom_site_fract_y
  _atom_site_fract_z
  _atom_site_occupancy
  Cu  Cu1       1.0  0.4668949495648888  0.6883304045082355  0.18282828783074476  1.0000
  Cu  Cu2       1.0  0.533115697962856  0.31167162743222576  0.8171680843707348  1.0000
  H   H1        1.0  0.12939074614586596  0.644704593194753  0.948235772429797  1.0000
  H   H2        1.0  0.8706162293607206  0.3552989165134903  0.05176078757020967  1.0000
  H   H3        1.0  0.09174825680998581  0.66247635545313  0.0746668219120181  1.0000
  H   H4        1.0  0.9082387647807763  0.337525167046735  0.925325606643689  1.0000
  H   H5        1.0  0.26442608739611023  0.0443418377399567  0.0017147716134217799  1.0000
  H   H6        1.0  0.7355931956968362  0.9556909537222824  0.9982905729071871  1.0000
  H   H7        1.0  0.07909439915626848  0.1498125605544018  0.9476423468351385  1.0000
  H   H8        1.0  0.9209091975289141  0.8501938492834995  0.052345619792468816  1.0000
  H   H9        1.0  0.9793592729755574  0.8712486902417211  0.8064565343059442  1.0000
  H   H10       1.0  0.020656628802115096  0.12873132383629127  0.1935597502456758  1.0000
  H   H11       1.0  0.02865810232880509  0.0511780323929756  0.7210831180720659  1.0000
  H   H12       1.0  0.971321943403602  0.9487858006062955  0.2789120059511845  1.0000
  H   H13       1.0  0.18205087730056843  0.7980128268303658  0.7043244708704178  1.0000
  H   H14       1.0  0.8179736575093273  0.20197634929203903  0.29569386870678466  1.0000
  H   H15       1.0  0.36530999037603357  0.899341089261583  0.8601208101165199  1.0000
  H   H16       1.0  0.6347221764402208  0.10067762475925691  0.13989559371351126  1.0000
  H   H17       1.0  0.15440627558115946  0.11058288292564102  0.5779790875640813  1.0000
  H   H18       1.0  0.8455827686646913  0.8894021356313787  0.42203454966963255  1.0000
  H   H19       1.0  0.38335058799304284  0.14851907323055263  0.542122432975944  1.0000
  H   H20       1.0  0.616627890982656  0.8514664456690753  0.4578757365964989  1.0000
  H   H21       1.0  0.2067147553356037  0.9241135411166753  0.5248393711270437  1.0000
  H   H22       1.0  0.7932645980427466  0.07587323590419712  0.4751661266503788  1.0000
  H   H23       1.0  0.5003295191673517  0.8484452152607602  0.6659698903081548  1.0000
  H   H24       1.0  0.4996657389387452  0.15155726011266069  0.3340358006944157  1.0000
  H   H25       1.0  0.6625392332774497  0.07210810022052531  0.6686698309956682  1.0000
  H   H26       1.0  0.3374650234074112  0.9278954677154448  0.33133062006489666  1.0000
  H   H27       1.0  0.6672056412797929  0.9912750991080514  0.8152612913105058  1.0000
  H   H28       1.0  0.3328037766004287  0.008745868075628499  0.1847416612198245  1.0000
  H   H29       1.0  0.7655101573829698  0.54270978605458  0.29292456725868016  1.0000
  H   H30       1.0  0.2344815462377881  0.4572982944832376  0.7070734704184574  1.0000
  H   H31       1.0  0.35834238545553626  0.5117142455663454  0.5245451899370082  1.0000
  H   H32       1.0  0.6416640966670075  0.4882810823444928  0.4754598925882974  1.0000
  C   C1        1.0  0.42058062700133547  0.4186515645940645  0.008080399455593582  1.0000
  C   C2        1.0  0.5794054878977307  0.5813487089090261  0.9919038059297944  1.0000
  C   C3        1.0  0.19974508090980686  0.11532943696185072  0.9254650796562414  1.0000
  C   C4        1.0  0.8002561482815197  0.8846716210342863  0.07452489793795539  1.0000
  C   C5        1.0  0.10389234073510063  0.9886554759925446  0.7997044855403458  1.0000
  C   C6        1.0  0.896110731595698  0.011326473395271807  0.20029591606625263  1.0000
  C   C7        1.0  0.2623319592998  0.9248405287682077  0.7711439373928995  1.0000
  C   C8        1.0  0.7376894937401276  0.0751582795459456  0.2288687523535273  1.0000
  C   C9        1.0  0.2779606940166559  0.05889675556019821  0.5818624525669235  1.0000
  C   C10       1.0  0.7220270276315262  0.9410924423184995  0.4181430516597757  1.0000
  C   C11       1.0  0.5679270196522878  0.9866891624345299  0.7164081128274659  1.0000
  C   C12       1.0  0.4320785015021259  0.013317058611122003  0.28359357016312  1.0000
  C   C13       1.0  0.13718112025967602  0.5656397979129653  0.2861031174101996  1.0000
  C   C14       1.0  0.8628244331837964  0.4343664140082098  0.7138994605457184  1.0000
  C   C15       1.0  0.0690188125589586  0.5316143185306927  0.3978760091155066  1.0000
  C   C16       1.0  0.9309773225480883  0.4683909194461578  0.6021201742331357  1.0000
  C   C17       1.0  0.8671956252848504  0.5248577429531736  0.3845495652726498  1.0000
  C   C18       1.0  0.1328153696537484  0.475153662212776  0.6154569552747445  1.0000
  C   C19       1.0  0.2016983152386373  0.5067137459100195  0.5141045985337555  1.0000
  C   C20       1.0  0.798318765722712  0.4932988647930829  0.4858952033402132  1.0000
  N   N1        1.0  0.362751471125712  0.27735415207126835  0.9236070637653453  1.0000
  N   N2        1.0  0.6372344255186918  0.7226367117084254  0.07637057313543491  1.0000
  N   N3        1.0  0.39898641462193757  0.051632313514041094  0.7154464623580948  1.0000
  N   N4        1.0  0.60101800350818  0.9483712087995356  0.28455846352911607  1.0000
  O   O1        1.0  0.3550640422250381  0.42975006603647603  0.09942638350693758  1.0000
  O   O2        1.0  0.6449126298172488  0.5702397690520159  0.9005502285785453  1.0000
  O   O3        1.0  0.3351145058776909  0.6147769140949323  0.3110107614732556  1.0000
  O   O4        1.0  0.6648781871485597  0.3852149544833737  0.6889798459913479  1.0000
  O   O5        1.0  0.9974231085229589  0.5492703183990387  0.17778640951084407  1.0000
  O   O6        1.0  0.002567827863970277  0.45074860052671545  0.8222135984235591  1.0000
  O   O7        1.0  0.17757965863518163  0.729927157342715  0.02675162932606407  1.0000
  O   O8        1.0  0.8224162620688985  0.2700739806109597  0.9732497102505561  1.0000
