data_image0
_chemical_formula_structural       Zn4H52C69N22O
_chemical_formula_sum              "Zn4 H52 C69 N22 O1"
_cell_length_a       19.514090862874994
_cell_length_b       20.2004626918616
_cell_length_c       19.78527861277911
_cell_angle_alpha    107.07539551616111
_cell_angle_beta     110.46925351106279
_cell_angle_gamma    109.19360934039344

_space_group_name_H-M_alt    "P 1"
_space_group_IT_number       1

loop_
  _space_group_symop_operation_xyz
  'x, y, z'

loop_
  _atom_site_type_symbol
  _atom_site_label
  _atom_site_symmetry_multiplicity
  _atom_site_fract_x
  _atom_site_fract_y
  _atom_site_fract_z
  _atom_site_occupancy
  Zn  Zn1       1.0  0.12445296763274878  0.4995710834062664  0.1114838823453681  1.0000
  Zn  Zn2       1.0  0.883380909489425  0.5035763038618696  0.9177839557113219  1.0000
  Zn  Zn3       1.0  0.9083734485325793  0.38909976089393444  0.010495249870388244  1.0000
  Zn  Zn4       1.0  0.09270555390018143  0.5997076798252509  0.002135736111085985  1.0000
  H   H1        1.0  0.1718621537234171  0.3496973681003865  0.0965325419590997  1.0000
  H   H2        1.0  0.7653343487614349  0.5592832381376952  0.9722350790010239  1.0000
  H   H3        1.0  0.8715892397024518  0.4941611617727589  0.1385032276030387  1.0000
  H   H4        1.0  0.10282939558368298  0.7505865588176944  0.9692927451799848  1.0000
  H   H5        1.0  0.8495166590083231  0.6501954005425858  0.926078586489794  1.0000
  H   H6        1.0  0.13899916025678744  0.5926341771717388  0.2844528011078041  1.0000
  H   H7        1.0  0.12378619835414648  0.7402564117599937  0.15400187988591096  1.0000
  H   H8        1.0  0.7141456377715372  0.3557927252326749  0.01746286695725273  1.0000
  H   H9        1.0  0.8643704556195573  0.5416752531605269  0.5154881446797575  1.0000
  H   H10       1.0  0.1343676324762058  0.6796833342489562  0.52711582140779  1.0000
  H   H11       1.0  0.13352898625917226  0.6678742537891083  0.6487817385364494  1.0000
  H   H12       1.0  0.3962827050714851  0.8889602612646997  0.5300325884694318  1.0000
  H   H13       1.0  0.5272383351037248  0.0092381402186632  0.6445266936527716  1.0000
  H   H14       1.0  0.4838351158873023  0.1419493927432711  0.5140790643644948  1.0000
  H   H15       1.0  0.1472141073008828  0.07415177046858902  0.970777944752193  1.0000
  H   H16       1.0  0.11355355175272318  0.9345085501228212  0.9392461644102427  1.0000
  H   H17       1.0  0.774403968582959  0.211341326114912  0.8510345968669598  1.0000
  H   H18       1.0  0.7728984899845202  0.3700096583825783  0.7436747361004876  1.0000
  H   H19       1.0  0.19344526521689434  0.41067538552110244  0.022088855629846162  1.0000
  H   H20       1.0  0.10033436815901099  0.5529428162267108  0.840374765896982  1.0000
  H   H21       1.0  0.9043860138818046  0.22562432694351736  0.939166492139826  1.0000
  H   H22       1.0  0.8560157358897127  0.5530181866864439  0.33113456984646217  1.0000
  H   H23       1.0  0.721254839146944  0.4893025656101814  0.3058268544804221  1.0000
  H   H24       1.0  0.7547509225582585  0.5378360315921072  0.41110754567254304  1.0000
  H   H25       1.0  0.7617132483218397  0.4503031600520089  0.3707815061140848  1.0000
  H   H26       1.0  0.8075485604213524  0.5388181978833229  0.7653983161071025  1.0000
  H   H27       1.0  0.7363647851192924  0.4985783296129825  0.6245064909864696  1.0000
  H   H28       1.0  0.8165253410784672  0.4810959203114536  0.6140860630482764  1.0000
  H   H29       1.0  0.835639172998377  0.5800053827074195  0.6609290416922137  1.0000
  H   H30       1.0  0.28956206459054096  0.9688098679703073  0.3397995363904868  1.0000
  H   H31       1.0  0.3061714220241852  0.07653214368057351  0.3159652991259562  1.0000
  H   H32       1.0  0.41545398791245697  0.1094259266006574  0.3693125059327187  1.0000
  H   H33       1.0  0.3654586245495537  0.14075419032452874  0.42231877354458913  1.0000
  H   H34       1.0  0.7576784749141722  0.7286106351753361  0.6830844170251923  1.0000
  H   H35       1.0  0.8634198963618971  0.7495538798891986  0.7307746665417839  1.0000
  H   H36       1.0  0.784490408102606  0.7963544359904802  0.6011293046771584  1.0000
  H   H37       1.0  0.8915778731120271  0.8233874049961258  0.6514748350128486  1.0000
  H   H38       1.0  0.8562022723935668  0.6802583216046186  0.5941096362024895  1.0000
  H   H39       1.0  0.8126378478561448  0.7023964155080689  0.5144417979521164  1.0000
  H   H40       1.0  0.7478774954269624  0.6509627105213411  0.5462462916454314  1.0000
  H   H41       1.0  0.9051032720321713  0.06220423865520529  0.8189093254296722  1.0000
  H   H42       1.0  0.8235959423388266  0.9365424604739517  0.6700470442646491  1.0000
  H   H43       1.0  0.7806826551485525  0.995404358917433  0.7052921067333031  1.0000
  H   H44       1.0  0.7588769294835486  0.905253882388408  0.7115695426374061  1.0000
  H   H45       1.0  0.2420372884873034  0.6561443316911169  0.9631514283427267  1.0000
  H   H46       1.0  0.3423374674723263  0.6712174012315089  0.9208807325292341  1.0000
  H   H47       1.0  0.2672688537310677  0.5686922973185347  0.8566501696562554  1.0000
  H   H48       1.0  0.35979790263634465  0.5986761675749432  0.9462201506004035  1.0000
  H   H49       1.0  0.3182968444263494  0.6314664518691373  0.28367264915086576  1.0000
  H   H50       1.0  0.3814428057565137  0.7006188776005472  0.4245022798462443  1.0000
  H   H51       1.0  0.31205477766922474  0.7406451354681493  0.41624001213810397  1.0000
  H   H52       1.0  0.3963941949241416  0.780194082970823  0.3987565922183053  1.0000
  C   C1        1.0  0.10583882429205002  0.3314981531364154  0.06390382168261513  1.0000
  C   C2        1.0  0.9784515729392426  0.5442726373735525  0.762181893411551  1.0000
  C   C3        1.0  0.7402411661766308  0.2632128240602114  0.7662305569030609  1.0000
  C   C4        1.0  0.2575350393186113  0.5050410117126205  0.9941691064325582  1.0000
  C   C5        1.0  0.2417636942791148  0.675608172534936  0.2480176256112401  1.0000
  C   C6        1.0  0.7632145129746988  0.5078304161786917  0.9801354613563195  1.0000
  C   C7        1.0  0.9373091404322125  0.5115571011746242  0.1622864683221011  1.0000
  C   C8        1.0  0.04352432866767223  0.7170235608217934  0.9645904621936054  1.0000
  C   C9        1.0  0.9138753221842819  0.6655103666987189  0.9420402275953708  1.0000
  C   C10       1.0  0.07433930571263396  0.5617389444890291  0.23668399506840387  1.0000
  C   C11       1.0  0.1575645906192947  0.7111165555634571  0.17621690787986927  1.0000
  C   C12       1.0  0.9086381804738578  0.527211011086507  0.7754552022204848  1.0000
  C   C13       1.0  0.7371847195595861  0.4035507596466417  0.0030574396500923856  1.0000
  C   C14       1.0  0.21966234414303906  0.7371632919218101  0.25595669294357754  1.0000
  C   C15       1.0  0.7113821139938991  0.4612956414163989  0.0013629231207161695  1.0000
  C   C16       1.0  0.003727803235065674  0.5604175508632068  0.24248178400442552  1.0000
  C   C17       1.0  0.9685182638493756  0.7194588962180006  0.9288053583911946  1.0000
  C   C18       1.0  0.3259879255014795  0.4963696124558227  0.9957055533914102  1.0000
  C   C19       1.0  0.3885178622733391  0.4899246954302399  0.0027037336114404025  1.0000
  C   C20       1.0  0.4569660476132213  0.4843383527723972  0.009916881001160498  1.0000
  C   C21       1.0  0.5202158004786525  0.4797114394590097  0.015313769945926552  1.0000
  C   C22       1.0  0.5870562090725215  0.4742005107334322  0.016152808274746553  1.0000
  C   C23       1.0  0.7868799331982218  0.2609298561489908  0.8374349514791392  1.0000
  C   C24       1.0  0.6466592793572872  0.4684441977107738  0.012331673078797683  1.0000
  C   C25       1.0  0.9225976632570294  0.5812082355842846  0.4496346847527092  1.0000
  C   C26       1.0  0.0008607843507136745  0.6173551293146318  0.4523134642863057  1.0000
  C   C27       1.0  0.07548119867918507  0.6505735799756495  0.5255932625885934  1.0000
  C   C28       1.0  0.07525342131525292  0.643752956470081  0.5932539562628562  1.0000
  C   C29       1.0  0.9984692783936495  0.601957816690856  0.5887192984760573  1.0000
  C   C30       1.0  0.9230304845078545  0.573254478385742  0.517817194334597  1.0000
  C   C31       1.0  0.0019587510688411367  0.6101050452262343  0.3796354950979862  1.0000
  C   C32       1.0  0.9957285508871009  0.5851439669882268  0.6524892569167519  1.0000
  C   C33       1.0  0.9884237792417778  0.5646916556795247  0.7030500082254322  1.0000
  C   C34       1.0  0.2354810037744103  0.5642910320467538  0.9858791246641306  1.0000
  C   C35       1.0  0.0006435939148730299  0.5917107736663354  0.31427850313315286  1.0000
  C   C36       1.0  0.4886596780607205  0.011480660524959798  0.5909356891268017  1.0000
  C   C37       1.0  0.5147899924841467  0.08255558463604021  0.5849361389994244  1.0000
  C   C38       1.0  0.463327077332245  0.0864000478075866  0.5171474097829645  1.0000
  C   C39       1.0  0.38855034401830574  0.019430789860457803  0.45293138011628287  1.0000
  C   C40       1.0  0.3664118165328816  0.9458385137295268  0.4561498552502172  1.0000
  C   C41       1.0  0.4156360977070577  0.9447243133520117  0.5271220589855972  1.0000
  C   C42       1.0  0.5935838970211904  0.14805762058798422  0.6459543470877236  1.0000
  C   C43       1.0  0.30267543177262735  0.8742151713449929  0.3863325972880178  1.0000
  C   C44       1.0  0.2586180808738731  0.8105259265330956  0.3245702833046095  1.0000
  C   C45       1.0  0.7852767822878092  0.3420796618772782  0.7825272381884644  1.0000
  C   C46       1.0  0.6632353749482931  0.2017736772602561  0.699140778108884  1.0000
  C   C47       1.0  0.06575938048317193  0.9486433657067862  0.9096642144195215  1.0000
  C   C48       1.0  0.9819989075910128  0.887032380862223  0.8585527570535093  1.0000
  C   C49       1.0  0.9198384064585808  0.9023948081292305  0.8142930411831913  1.0000
  C   C50       1.0  0.9377663856310152  0.9815032847196434  0.8320053738880018  1.0000
  C   C51       1.0  0.020082132339375405  0.0436715862584123  0.8941247748179252  1.0000
  C   C52       1.0  0.08404146416884119  0.0257649422134207  0.9274887245098783  1.0000
  C   C53       1.0  0.9637438346705949  0.8166252155369663  0.8662121216092373  1.0000
  C   C54       1.0  0.03370648641566731  0.12202411892102558  0.9269849518538108  1.0000
  C   C55       1.0  0.0393779380376174  0.18628976578161624  0.9619733593578915  1.0000
  C   C56       1.0  0.1993173962668635  0.46171323907694967  0.012019821629870382  1.0000
  C   C57       1.0  0.9592148819317433  0.7683911154049171  0.8924063219191256  1.0000
  C   C58       1.0  0.038058850748910834  0.543481429251564  0.8274591106239982  1.0000
  C   C59       1.0  0.9690534812170098  0.26833260240937323  0.9840744417259658  1.0000
  C   C60       1.0  0.0394680519739978  0.2568489275151435  0.0009490752579921127  1.0000
  C   C61       1.0  0.7683863499066488  0.5052895844031297  0.3666596156096204  1.0000
  C   C62       1.0  0.8039622511124521  0.5201502807092668  0.6540240309557391  1.0000
  C   C63       1.0  0.35756462266752453  0.0903755711217684  0.3731736439777222  1.0000
  C   C64       1.0  0.8217436654335303  0.7707854489414886  0.7023548928666586  1.0000
  C   C65       1.0  0.8284164795476484  0.7772566734907329  0.6298655787528985  1.0000
  C   C66       1.0  0.8103049228750123  0.6984407082511622  0.5678706223859821  1.0000
  C   C67       1.0  0.8069201337081326  0.956965712379493  0.7171322862528489  1.0000
  C   C68       1.0  0.311854381685002  0.6146011283836258  0.9202558765058059  1.0000
  C   C69       1.0  0.34939336219954237  0.7253226352976511  0.3904252512830553  1.0000
  N   N1        1.0  0.07695496757336433  0.38267024526451365  0.08191124378226532  1.0000
  N   N2        1.0  0.8137277385899822  0.4787985044938384  0.969390086561937  1.0000
  N   N3        1.0  0.9667497304838334  0.4849805647327727  0.11359845842257944  1.0000
  N   N4        1.0  0.03340301460090708  0.6656753259890921  0.9951120283868207  1.0000
  N   N5        1.0  0.9529282265996032  0.6326327083509895  0.981120702135769  1.0000
  N   N6        1.0  0.05078991837972069  0.5159704293989548  0.15958833503631814  1.0000
  N   N7        1.0  0.1449810760093229  0.6421458488360514  0.1252660974159099  1.0000
  N   N8        1.0  0.7979053954640632  0.41440744665884205  0.9838082289177876  1.0000
  N   N9        1.0  0.9284109374612797  0.5187935609756522  0.8435883925789724  1.0000
  N   N10       1.0  0.8527873590452372  0.3330346786546983  0.891340116886262  1.0000
  N   N11       1.0  0.1707901259887876  0.5554522845398111  0.9993513062674851  1.0000
  N   N12       1.0  0.8518228492229267  0.38322957630059307  0.858161493032206  1.0000
  N   N13       1.0  0.14859171451735156  0.49235468007586286  0.016320615018081196  1.0000
  N   N14       1.0  0.008117499289532827  0.529146407398855  0.8764239601611337  1.0000
  N   N15       1.0  0.9915286251589561  0.34298358630370274  0.032219818803717645  1.0000
  N   N16       1.0  0.19735274631673871  0.6197707015079816  0.16954836370027962  1.0000
  N   N17       1.0  0.8499518101166571  0.5533994300805105  0.38009057167878535  1.0000
  N   N18       1.0  0.8300552062183754  0.5162621226475466  0.7305930848919288  1.0000
  N   N19       1.0  0.33735486915905005  0.021667926207143803  0.3865294036424984  1.0000
  N   N20       1.0  0.878745291805238  0.0028001888435937997  0.7988895077790588  1.0000
  N   N21       1.0  0.2721205307090814  0.6240200471303723  0.9700267150484623  1.0000
  N   N22       1.0  0.2948969778205139  0.665016361824101  0.30590604230840773  1.0000
  O   O1        1.0  0.8380522868839294  0.8441097940534308  0.7624422930102812  1.0000
