data_image0
_chemical_formula_structural       Zn4H30C70N4Cl6O16F6
_chemical_formula_sum              "Zn4 H30 C70 N4 Cl6 O16 F6"
_cell_length_a       13.216933465827884
_cell_length_b       14.041991429345954
_cell_length_c       28.648701119538316
_cell_angle_alpha    90.00652256927326
_cell_angle_beta     89.77069799118536
_cell_angle_gamma    89.85852668495251

_space_group_name_H-M_alt    "P 1"
_space_group_IT_number       1

loop_
  _space_group_symop_operation_xyz
  'x, y, z'

loop_
  _atom_site_type_symbol
  _atom_site_label
  _atom_site_symmetry_multiplicity
  _atom_site_fract_x
  _atom_site_fract_y
  _atom_site_fract_z
  _atom_site_occupancy
  Zn  Zn1       1.0  0.5106674987822686  0.4024678444844483  0.49429706666848733  1.0000
  Zn  Zn2       1.0  0.48812032586948106  0.6003140613586948  0.5018136658954974  1.0000
  Zn  Zn3       1.0  0.5108375839906641  0.5981361841562743  0.04032777723800511  1.0000
  Zn  Zn4       1.0  0.48947549442505783  0.40032750692397195  0.0328690258874076  1.0000
  H   H1        1.0  0.6183462116686017  0.0626238947572588  0.442894259928707  1.0000
  H   H2        1.0  0.3804571818929147  0.9398425294815524  0.5543197445678845  1.0000
  H   H3        1.0  0.5982497229957885  0.7453760994845736  0.452627254738296  1.0000
  H   H4        1.0  0.6141941199668252  0.921076349483741  0.4472062871737991  1.0000
  H   H5        1.0  0.40635354517855393  0.2575061590941488  0.5470185187900327  1.0000
  H   H6        1.0  0.3916949562875017  0.0818814830629933  0.5531946671445527  1.0000
  H   H7        1.0  0.5031708714469616  0.6219477030235225  0.19014833309024234  1.0000
  H   H8        1.0  0.49793295989872627  0.317249424303199  0.1786689622569924  1.0000
  H   H9        1.0  0.5032869011583614  0.3776930623729343  0.3443966052571526  1.0000
  H   H10       1.0  0.4980464526919448  0.6824074115900346  0.3559295190674306  1.0000
  H   H11       1.0  0.4967547518347429  0.3415602761583045  0.7373284074737471  1.0000
  H   H12       1.0  0.49753146459008946  0.6583059923746931  0.7972850182278322  1.0000
  H   H13       1.0  0.5008432030399561  0.3628947939797412  0.8908973424361336  1.0000
  H   H14       1.0  0.5020980055095023  0.35009101970776163  0.8053297206150206  1.0000
  H   H15       1.0  0.5000745734514142  0.6370205761852362  0.6437493287017588  1.0000
  H   H16       1.0  0.5021232841735284  0.6497641672118633  0.7293169970752303  1.0000
  H   H17       1.0  0.8330745483086802  0.3780129545849533  0.49846853060616086  1.0000
  H   H18       1.0  0.8061416920150178  0.6824610173177634  0.5014224705343155  1.0000
  H   H19       1.0  0.16617375981569887  0.6230860647476179  0.4998924402330901  1.0000
  H   H20       1.0  0.1932477842084026  0.3186459323856425  0.49787232474650284  1.0000
  H   H21       1.0  0.6185826889829469  0.9373805602743347  0.09142869294245771  1.0000
  H   H22       1.0  0.3818210375534576  0.06155884935105151  0.9804615538404066  1.0000
  H   H23       1.0  0.599785761723396  0.2545907412721746  0.0814852617675257  1.0000
  H   H24       1.0  0.615393044756381  0.0788002030805686  0.0868186859550804  1.0000
  H   H25       1.0  0.40682851796932334  0.7436431354187719  0.9879099098137875  1.0000
  H   H26       1.0  0.39285070745955847  0.9193686342445204  0.9815532835591088  1.0000
  H   H27       1.0  0.833087378241231  0.6230814349583795  0.0362830099838405  1.0000
  H   H28       1.0  0.8083118449927724  0.31855800136590057  0.0342182527373041  1.0000
  H   H29       1.0  0.16786592421893692  0.37846421755396875  0.0360560212986769  1.0000
  H   H30       1.0  0.19282249646479238  0.6829529818481248  0.0377378839461286  1.0000
  C   C1        1.0  0.4983037065960828  0.48563309600668  0.5892514991793903  1.0000
  C   C2        1.0  0.30270790710189727  0.48180214916499864  0.4978407845059679  1.0000
  C   C3        1.0  0.5005191993172958  0.5203305244256882  0.40713245289126127  1.0000
  C   C4        1.0  0.6965384872006551  0.5199608967645872  0.498943294449866  1.0000
  C   C5        1.0  0.4996667984481106  0.5143901270523729  0.9454035773715577  1.0000
  C   C6        1.0  0.3034495839455928  0.5199451537961863  0.037463586074039816  1.0000
  C   C7        1.0  0.5005001369439482  0.4792745029951249  0.12743576246639782  1.0000
  C   C8        1.0  0.6974935383243519  0.48102238755103605  0.035742745849866316  1.0000
  C   C9        1.0  0.5696217285500537  0.1991312667909568  0.46674926464491057  1.0000
  C   C10       1.0  0.5687304305032798  0.10018267517811101  0.46704523667142445  1.0000
  C   C11       1.0  0.42975713153864353  0.8034511263444984  0.5305405331884075  1.0000
  C   C12       1.0  0.4313724121648335  0.9023779756347352  0.5307089097927717  1.0000
  C   C13       1.0  0.5523079202762915  0.792693337140207  0.47417991526795333  1.0000
  C   C14       1.0  0.5599637299019095  0.8908556959086481  0.4716472145428555  1.0000
  C   C15       1.0  0.45074978071433947  0.2101994937713556  0.5247924875708208  1.0000
  C   C16       1.0  0.44386416717761523  0.11199332105319121  0.5277737425824682  1.0000
  C   C17       1.0  0.5036862291550648  0.05408131745980431  0.498439891372712  1.0000
  C   C18       1.0  0.4984352764973607  0.9486458344735881  0.5002995758644248  1.0000
  C   C19       1.0  0.5024288493824542  0.5525548504885407  0.20701819807804617  1.0000
  C   C20       1.0  0.5000321799201402  0.38022055706527874  0.20074823583458823  1.0000
  C   C21       1.0  0.501210523680662  0.37217727877406054  0.24857838286173725  1.0000
  C   C22       1.0  0.5022810320481029  0.45371435222851636  0.2783670561605335  1.0000
  C   C23       1.0  0.5025383737929445  0.4470960468744991  0.3275293930914032  1.0000
  C   C24       1.0  0.5001471729437909  0.6194415292070871  0.33382846641222846  1.0000
  C   C25       1.0  0.5012809967030732  0.6275002282649852  0.285987229708077  1.0000
  C   C26       1.0  0.5022715145329357  0.5459565230054652  0.2561927954906054  1.0000
  C   C27       1.0  0.5011046542208959  0.4713957929690835  0.17970241896734515  1.0000
  C   C28       1.0  0.5012454370456894  0.5282596567620317  0.35485715746357743  1.0000
  C   C29       1.0  0.49833098454272573  0.4852839750645117  0.6416031430149972  1.0000
  C   C30       1.0  0.4996010786965499  0.5146837173474097  0.8930317449720279  1.0000
  C   C31       1.0  0.4973820508015763  0.40397871972077587  0.6699673785223725  1.0000
  C   C32       1.0  0.4980015740282012  0.4087396029387237  0.7184015885432731  1.0000
  C   C33       1.0  0.49858369344873665  0.595947187411774  0.8646427239088441  1.0000
  C   C34       1.0  0.49875720265572443  0.5911427667445113  0.8162228019760108  1.0000
  C   C35       1.0  0.5005886177830376  0.42688404757181797  0.8694394232927041  1.0000
  C   C36       1.0  0.5010603486768517  0.42049850731346794  0.8211907230876819  1.0000
  C   C37       1.0  0.49976094575925595  0.5730306730350135  0.6652068619556675  1.0000
  C   C38       1.0  0.5006882782260292  0.5793797376127969  0.7134593494984145  1.0000
  C   C39       1.0  0.499778387127776  0.4970242521524995  0.7415154273147098  1.0000
  C   C40       1.0  0.5000697072659364  0.5028242898854671  0.7931362735214336  1.0000
  C   C41       1.0  0.8694170501690835  0.4474091223265688  0.4991783916482505  1.0000
  C   C42       1.0  0.8545955611497718  0.6197334096536975  0.500685734588565  1.0000
  C   C43       1.0  0.9582514687174352  0.6280997324058928  0.5007743760932115  1.0000
  C   C44       1.0  0.023348544585204  0.54676398783878  0.4999959924545011  1.0000
  C   C45       1.0  0.12982662055114963  0.5536775321350547  0.4995853954446404  1.0000
  C   C46       1.0  0.1447697495052083  0.3813657623795024  0.49852602670630847  1.0000
  C   C47       1.0  0.041084967403428194  0.37296770038471994  0.49907201365662257  1.0000
  C   C48       1.0  0.9759259508660633  0.4543079513144832  0.49949761279273747  1.0000
  C   C49       1.0  0.8097129144394303  0.5284119661335609  0.4996223841088538  1.0000
  C   C50       1.0  0.18959808513115922  0.472739795175201  0.4986613449639351  1.0000
  C   C51       1.0  0.5697603408757601  0.8011657941503215  0.0677437298173587  1.0000
  C   C52       1.0  0.5691528534997302  0.9001017898731972  0.06735687347503472  1.0000
  C   C53       1.0  0.4313937288295833  0.1976163023310136  0.0040864867531525  1.0000
  C   C54       1.0  0.43283367266776196  0.09868345100318976  0.003870788966033  1.0000
  C   C55       1.0  0.5538416961206424  0.207571929117684  0.06005383176940171  1.0000
  C   C56       1.0  0.561289482597033  0.1093623627902005  0.06254395584460332  1.0000
  C   C57       1.0  0.4512539110174388  0.7906931508935245  0.0099859396730935  1.0000
  C   C58       1.0  0.44472020385597233  0.8889421718145414  0.006894171120556802  1.0000
  C   C59       1.0  0.5045002556115747  0.9465320968307084  0.03604388496606961  1.0000
  C   C60       1.0  0.4996451361078726  0.0519858279764946  0.034110025479385804  1.0000
  C   C61       1.0  0.8699187838666232  0.5537261985353368  0.03585072747053181  1.0000
  C   C62       1.0  0.8563075129541105  0.3813712377842933  0.03484457223149211  1.0000
  C   C63       1.0  0.960019246604432  0.37314359554054743  0.03510624679779541  1.0000
  C   C64       1.0  0.0245377111288505  0.45459422095002117  0.03572723962316361  1.0000
  C   C65       1.0  0.1310587952862292  0.4478310350431514  0.03619365982385151  1.0000
  C   C66       1.0  0.1447972846288152  0.6201618641356177  0.0370512349571825  1.0000
  C   C67       1.0  0.0410757767082828  0.6284146834713482  0.03639933847607321  1.0000
  C   C68       1.0  0.9764785247608002  0.5469882003843054  0.035902056657299404  1.0000
  C   C69       1.0  0.8107519767646777  0.4726502153793604  0.035425083619692516  1.0000
  C   C70       1.0  0.19026723230680181  0.5288590911808696  0.0369434925736201  1.0000
  N   N1        1.0  0.5133316353477896  0.25391347858999325  0.4941923214411263  1.0000
  N   N2        1.0  0.48714830627831424  0.7488294539842073  0.5035426927857642  1.0000
  N   N3        1.0  0.5135219859193256  0.7466621608572337  0.040476759641478614  1.0000
  N   N4        1.0  0.48880260725031377  0.2518544544970922  0.030917791980961302  1.0000
  Cl  Cl1       1.0  0.5005298258518068  0.7406791010807936  0.26148455390857356  1.0000
  Cl  Cl2       1.0  0.5004779883453309  0.2589942903364885  0.2730896302689914  1.0000
  Cl  Cl3       1.0  0.9886875869943167  0.2595895088633072  0.4991882303970812  1.0000
  Cl  Cl4       1.0  0.010722739435621501  0.7414423232481012  0.501743235522973  1.0000
  Cl  Cl5       1.0  0.9878958511830263  0.7417224885790644  0.036238255369895014  1.0000
  Cl  Cl6       1.0  0.0132627732548798  0.2598788212080123  0.034786924814049804  1.0000
  O   O1        1.0  0.506429191798631  0.4072546953293994  0.5674328395144742  1.0000
  O   O2        1.0  0.49046888230618185  0.5679122405872974  0.5706668829598273  1.0000
  O   O3        1.0  0.3384661688003591  0.5658913812573445  0.4976203518458321  1.0000
  O   O4        1.0  0.3538848776770394  0.40479397608609  0.4974152397107901  1.0000
  O   O5        1.0  0.4973941371502377  0.5982904365050388  0.4299146021065497  1.0000
  O   O6        1.0  0.5029987172194906  0.4369958806771024  0.4245552878005371  1.0000
  O   O7        1.0  0.6602386064902106  0.4362019174742073  0.4962197743957193  1.0000
  O   O8        1.0  0.6459069206706118  0.5970925098042061  0.5011225997367319  1.0000
  O   O9        1.0  0.5065515895601393  0.5928195854768745  0.9672137054375443  1.0000
  O   O10       1.0  0.49304296658448266  0.43203920996517553  0.9639995794856662  1.0000
  O   O11       1.0  0.33976682658455815  0.4359038115588376  0.037294411727138814  1.0000
  O   O12       1.0  0.3541023960949942  0.5970218724247686  0.03795518980432891  1.0000
  O   O13       1.0  0.49742860832026276  0.4012874640363293  0.10470476857733503  1.0000
  O   O14       1.0  0.5030945399117001  0.5625765581890648  0.10998958629404852  1.0000
  O   O15       1.0  0.6606511311626022  0.5648131193247536  0.038114297506780304  1.0000
  O   O16       1.0  0.6473385127022694  0.40386756691464853  0.03369240360033391  1.0000
  F   F1        1.0  0.6312809919271274  0.2443853072288533  0.4368181090763842  1.0000
  F   F2        1.0  0.3660163850920312  0.7580348429879037  0.5595199899691181  1.0000
  F   F3        1.0  0.4947429295113466  0.31507550063614786  0.6509832282664549  1.0000
  F   F4        1.0  0.49636533425300655  0.6848658935904269  0.8836285345132213  1.0000
  F   F5        1.0  0.6309852723029792  0.7556105906972519  0.09762907591413493  1.0000
  F   F6        1.0  0.36769043962193143  0.2434564860856696  0.9753658913926844  1.0000
