data_image0
_chemical_formula_structural       Al4H34C54O20F2
_chemical_formula_sum              "Al4 H34 C54 O20 F2"
_cell_length_a       6.723270231645813
_cell_length_b       13.308111129948067
_cell_length_c       18.201836553810292
_cell_angle_alpha    111.37490048046116
_cell_angle_beta     96.21327467479597
_cell_angle_gamma    91.43294409854174

_space_group_name_H-M_alt    "P 1"
_space_group_IT_number       1

loop_
  _space_group_symop_operation_xyz
  'x, y, z'

loop_
  _atom_site_type_symbol
  _atom_site_label
  _atom_site_symmetry_multiplicity
  _atom_site_fract_x
  _atom_site_fract_y
  _atom_site_fract_z
  _atom_site_occupancy
  Al  Al1       1.0  0.1122549760572014  0.5013009821635706  0.4920533454185756  1.0000
  Al  Al2       1.0  0.6085770499767307  0.4897080323554803  0.49362416322777125  1.0000
  Al  Al3       1.0  0.8433104267005832  0.7550383237114602  0.0035872240098129226  1.0000
  Al  Al4       1.0  0.3430554683601912  0.7631456862467091  0.004742529317113098  1.0000
  H   H1        1.0  0.808347198756664  0.924977393596329  0.5958123615273506  1.0000
  H   H2        1.0  0.9621690293809665  0.5930322050785507  0.7641624060903919  1.0000
  H   H3        1.0  0.0845705829570136  0.40792834983781023  0.9402836380430485  1.0000
  H   H4        1.0  0.9985450289926731  0.7284594176853219  0.7561747253214289  1.0000
  H   H5        1.0  0.076404668736636  0.05970582460270181  0.9189988071117052  1.0000
  H   H6        1.0  0.7904076440200641  0.11244209205759148  0.6132141640537154  1.0000
  H   H7        1.0  0.091722655974543  0.21883114732997913  0.9296859109043037  1.0000
  H   H8        1.0  0.0379786356490683  0.5432431656983355  0.8816798149823053  1.0000
  H   H9        1.0  0.1259007136709513  0.21063308548641396  0.3201641882690111  1.0000
  H   H10       1.0  0.8336833461429551  0.031360048676411616  0.18926682908587364  1.0000
  H   H11       1.0  0.29657678101047213  0.06407915427492841  0.2177946641475969  1.0000
  H   H12       1.0  0.5865864651761613  0.053361756909687606  0.9298519507145069  1.0000
  H   H13       1.0  0.5691484269817692  0.37596699672841544  0.9065615956123662  1.0000
  H   H14       1.0  0.43163149885449315  0.5479369999477157  0.7498272292977075  1.0000
  H   H15       1.0  0.3602015115032486  0.18199060710654885  0.5786678291040629  1.0000
  H   H16       1.0  0.5788120896290678  0.8553675231538378  0.8683458931884471  1.0000
  H   H17       1.0  0.5388176819023869  0.6881041824196643  0.7483392417649808  1.0000
  H   H18       1.0  0.3444187115493875  0.868628272166916  0.6038353170018451  1.0000
  H   H19       1.0  0.5695941813078491  0.23074476536265112  0.9184370074482042  1.0000
  H   H20       1.0  0.35265202121233596  0.0063382137860160115  0.5933365177888488  1.0000
  H   H21       1.0  0.38456756869524616  0.3763358442270857  0.6342376070124087  1.0000
  H   H22       1.0  0.3255900727561425  0.6508866258874801  0.18617306701270292  1.0000
  H   H23       1.0  0.6273230445463439  0.5981058557614604  0.3091553758552406  1.0000
  H   H24       1.0  0.1643373393082896  0.592381381040518  0.28490168948287203  1.0000
  H   H25       1.0  0.019660021028244  0.17086382883742607  0.579123865497216  1.0000
  H   H26       1.0  0.7785105320998511  0.21083536387499888  0.5544637499724842  1.0000
  H   H27       1.0  0.9982095123706927  0.2817851869383645  0.5486906188795115  1.0000
  H   H28       1.0  0.9228425877085441  0.6833787486602388  0.618420007260141  1.0000
  H   H29       1.0  0.7551259807321529  0.7694258420231391  0.594178301324099  1.0000
  H   H30       1.0  0.01148388321526987  0.7795301192443419  0.581798361983523  1.0000
  H   H31       1.0  0.32941958378891917  0.3530472188582081  0.46146485732506165  1.0000
  H   H32       1.0  0.8363748809724004  0.5921361253668564  0.4485094806137295  1.0000
  H   H33       1.0  0.618099395003803  0.8998129936527165  0.031487037384927405  1.0000
  H   H34       1.0  0.10432156184359088  0.6456599278837629  0.03183573773713279  1.0000
  C   C1        1.0  0.40948264063163725  0.6667244110172774  0.5972422489216169  1.0000
  C   C2        1.0  0.32655223877423384  0.5512203702886183  0.3795861532378593  1.0000
  C   C3        1.0  0.8208302025185433  0.3156193950470154  0.3909251210106176  1.0000
  C   C4        1.0  0.9086822201431205  0.4547414363750376  0.6088472642778124  1.0000
  C   C5        1.0  0.03391556847738286  0.8912692112718332  0.8445860669285917  1.0000
  C   C6        1.0  0.9341541924348746  0.4267210239562473  0.6812690776558907  1.0000
  C   C7        1.0  0.950560803931694  0.8455637160203935  0.7027976843506278  1.0000
  C   C8        1.0  0.9949943773935602  0.8141961799735212  0.7664346778816192  1.0000
  C   C9        1.0  0.03929756166372301  0.0013127194115228047  0.8584284670731746  1.0000
  C   C10       1.0  0.9946377307427953  0.0374933371134958  0.7941516385852905  1.0000
  C   C11       1.0  0.9417993028520615  0.9569872613534188  0.7166649912856327  1.0000
  C   C12       1.0  0.9984976640645374  0.15019885227140148  0.8018821641232063  1.0000
  C   C13       1.0  0.9451553628876398  0.17694343518848404  0.7334502798017579  1.0000
  C   C14       1.0  0.8658827666657061  0.09283958773088591  0.6611092713479818  1.0000
  C   C15       1.0  0.8703218271340988  0.9871917887225549  0.6521667236036348  1.0000
  C   C16       1.0  0.050145408468303294  0.2368413480887028  0.8764827925890796  1.0000
  C   C17       1.0  0.04781508440851919  0.3424418538380181  0.882427851428197  1.0000
  C   C18       1.0  0.0036500394625988987  0.3710567842177569  0.8143923865580188  1.0000
  C   C19       1.0  0.9598539735662115  0.28734104769073815  0.7375069188575194  1.0000
  C   C20       1.0  0.005199230846279987  0.4806409123202542  0.8228729449077574  1.0000
  C   C21       1.0  0.9651214835497369  0.5084171865398303  0.757293216972975  1.0000
  C   C22       1.0  0.9366709578519662  0.3172059787601427  0.6691324444175702  1.0000
  C   C23       1.0  0.1465592667640365  0.028685837967643107  0.1895677902326866  1.0000
  C   C24       1.0  0.9791331788602733  0.0719613734932807  0.21972737350956345  1.0000
  C   C25       1.0  0.8178011171197924  0.21307417250693567  0.3206299816512867  1.0000
  C   C26       1.0  0.9825097500868553  0.16797131225682446  0.28944369632896627  1.0000
  C   C27       1.0  0.4348377432615393  0.7692004603074878  0.6688587925480503  1.0000
  C   C28       1.0  0.5071085162514707  0.4718381118485837  0.8353460299703241  1.0000
  C   C29       1.0  0.5299727650131629  0.8590627389125913  0.8104267191047252  1.0000
  C   C30       1.0  0.504863733436558  0.7653118340355008  0.7437240504637186  1.0000
  C   C31       1.0  0.40026163142206184  0.8681539866143311  0.6621320779373148  1.0000
  C   C32       1.0  0.4426061933412769  0.9666107142251263  0.7283689692847516  1.0000
  C   C33       1.0  0.5032200089454123  0.9608659858504186  0.8042433640331124  1.0000
  C   C34       1.0  0.43415356541361666  0.0718351662856023  0.7217286343177418  1.0000
  C   C35       1.0  0.4831005400822265  0.16835494186550193  0.7901363675830593  1.0000
  C   C36       1.0  0.5332257802058109  0.1580507352272207  0.8652693180614573  1.0000
  C   C37       1.0  0.5426499372101716  0.058998753973362704  0.8720173163888771  1.0000
  C   C38       1.0  0.3881794446896977  0.07969975241996251  0.6459431479633719  1.0000
  C   C39       1.0  0.3917582321718883  0.17748714969553703  0.6374308526209302  1.0000
  C   C40       1.0  0.4334586028418954  0.2758420147580196  0.7043110936128298  1.0000
  C   C41       1.0  0.4814990362339202  0.27327542468029264  0.782115745060423  1.0000
  C   C42       1.0  0.4213170193604158  0.3757557607598798  0.6939186437093665  1.0000
  C   C43       1.0  0.45069305244994246  0.47168042893490275  0.7581752162121018  1.0000
  C   C44       1.0  0.5245407865253284  0.3743486328090171  0.8467622191535609  1.0000
  C   C45       1.0  0.31515855530062  0.5859327071397827  0.3110716723824039  1.0000
  C   C46       1.0  0.48014105559288817  0.6071758607407317  0.281278502812057  1.0000
  C   C47       1.0  0.6324826235823267  0.6583037528303562  0.18168577136356828  1.0000
  C   C48       1.0  0.47074307730363796  0.6396006435172764  0.2141423123005309  1.0000
  C   C49       1.0  0.6257866281700046  0.6920858289062222  0.11201234078539797  1.0000
  C   C50       1.0  0.5406088169346503  0.5820038259249786  0.9007142824523836  1.0000
  C   C51       1.0  0.05923232872471116  0.8417726490889021  0.9068284756418872  1.0000
  C   C52       1.0  0.13455167385030356  0.929506069253925  0.11737387152815859  1.0000
  C   C53       1.0  0.9322191304529426  0.24055604046396442  0.5836368046926024  1.0000
  C   C54       1.0  0.9080934671681931  0.7652914260040474  0.6201443115743428  1.0000
  O   O1        1.0  0.4992022392561567  0.5504843958429078  0.41646512119754664  1.0000
  O   O2        1.0  0.24287418146204234  0.6409298475070742  0.5517628164055493  1.0000
  O   O3        1.0  0.06516901211141858  0.49114347654428775  0.5901913771407263  1.0000
  O   O4        1.0  0.15804367468592062  0.5247941410251471  0.39678931369119386  1.0000
  O   O5        1.0  0.9942297350701496  0.35470785881525296  0.4276012259180673  1.0000
  O   O6        1.0  0.5605106897531229  0.6097776210968532  0.5849245899350561  1.0000
  O   O7        1.0  0.3529635831345886  0.4297546606509427  0.4927744343025251  1.0000
  O   O8        1.0  0.6530022361929256  0.3542574943854008  0.407265170030186  1.0000
  O   O9        1.0  0.7355196070972455  0.4361534635651197  0.5686791141207265  1.0000
  O   O10       1.0  0.8552325073108307  0.5511136106856895  0.48285493924169726  1.0000
  O   O11       1.0  0.3874851750616486  0.6374562744722924  0.9151875863411402  1.0000
  O   O12       1.0  0.7934625333245862  0.7143708425024613  0.09343034246929693  1.0000
  O   O13       1.0  0.9602321125929836  0.8925032039854558  0.07987022610551259  1.0000
  O   O14       1.0  0.7181904534050787  0.615962860243542  0.9354831778998969  1.0000
  O   O15       1.0  0.9000980787073729  0.7977816733137928  0.9181491236998836  1.0000
  O   O16       1.0  0.4511640251802831  0.6946441438151185  0.07797838023238056  1.0000
  O   O17       1.0  0.5996343054806914  0.8216543433266138  0.0069362847619061285  1.0000
  O   O18       1.0  0.2345570920004576  0.8395987168694319  0.9404576286583145  1.0000
  O   O19       1.0  0.30040319899899265  0.8886460166815767  0.09782688298491136  1.0000
  O   O20       1.0  0.09296712475825329  0.6964545020152428  0.004874888070567421  1.0000
  F   F1        1.0  0.6311490932619961  0.1672375709435698  0.286420914832881  1.0000
  F   F2        1.0  0.8204436196651133  0.64750593115955  0.21270870473487943  1.0000
