data_image0
_chemical_formula_structural       Fe4Ag8H40C64N40
_chemical_formula_sum              "Fe4 Ag8 H40 C64 N40"
_cell_length_a       10.10546489689152
_cell_length_b       10.150937210760114
_cell_length_c       29.915934357531167
_cell_angle_alpha    90.0009015476044
_cell_angle_beta     89.99438768075301
_cell_angle_gamma    101.09681535650644

_space_group_name_H-M_alt    "P 1"
_space_group_IT_number       1

loop_
  _space_group_symop_operation_xyz
  'x, y, z'

loop_
  _atom_site_type_symbol
  _atom_site_label
  _atom_site_symmetry_multiplicity
  _atom_site_fract_x
  _atom_site_fract_y
  _atom_site_fract_z
  _atom_site_occupancy
  Fe  Fe1       1.0  0.7628721197236529  0.23663130170398008  0.05877966498933063  1.0000
  Fe  Fe2       1.0  0.7371132686279579  0.2633891726631957  0.5587815938362369  1.0000
  Fe  Fe3       1.0  0.23713804310448683  0.7633737873139167  0.9412218313815761  1.0000
  Fe  Fe4       1.0  0.2628769019430521  0.7366101281010061  0.44121890004225883  1.0000
  Ag  Ag1       1.0  0.7680280940382147  0.737660986840133  0.050368288312725405  1.0000
  Ag  Ag2       1.0  0.7319126689565322  0.7623524781203416  0.5503570132963775  1.0000
  Ag  Ag3       1.0  0.23196944243968423  0.26234526657097484  0.9496352138912629  1.0000
  Ag  Ag4       1.0  0.26806898727539863  0.23764391001753885  0.4496351239657202  1.0000
  Ag  Ag5       1.0  0.26332127369286695  0.23977969592275633  0.050476356403031324  1.0000
  Ag  Ag6       1.0  0.23667087642842685  0.2602476205045789  0.5504802895933596  1.0000
  Ag  Ag7       1.0  0.7366887571946633  0.7602102986870632  0.9495217972312138  1.0000
  Ag  Ag8       1.0  0.7633172326269387  0.7397416420411386  0.44951351889329794  1.0000
  H   H1        1.0  0.8234625740278216  0.43885967042304935  0.3030169087977087  1.0000
  H   H2        1.0  0.6765406035279183  0.06115188163519039  0.8030151373072772  1.0000
  H   H3        1.0  0.17653121986003126  0.5611476362094693  0.6969896019014076  1.0000
  H   H4        1.0  0.32346005737602457  0.9388503070962455  0.19698134516390559  1.0000
  H   H5        1.0  0.8869035846344315  0.3195997024530683  0.3286460366135416  1.0000
  H   H6        1.0  0.6130991453219321  0.18039748620611823  0.8286560110435847  1.0000
  H   H7        1.0  0.11309464533275802  0.68039547185802  0.6713511144201478  1.0000
  H   H8        1.0  0.3869073488364234  0.8195945654396722  0.1713478252451069  1.0000
  H   H9        1.0  0.6022619530198978  0.044731647281608396  0.11860280761432312  1.0000
  H   H10       1.0  0.8977461098597314  0.45528084672329766  0.6185930228607862  1.0000
  H   H11       1.0  0.3977459853137474  0.95526743114506  0.8813980202381518  1.0000
  H   H12       1.0  0.10226387669229799  0.5447041164082618  0.38140646784140153  1.0000
  H   H13       1.0  0.552824846210285  0.022788237410040303  0.20065850701983126  1.0000
  H   H14       1.0  0.9471934341603895  0.4772061257576609  0.7006461873364886  1.0000
  H   H15       1.0  0.4471801307730629  0.9772108780714671  0.7993426551520034  1.0000
  H   H16       1.0  0.05282757270207839  0.5227746738550038  0.29935263463173106  1.0000
  H   H17       1.0  0.8362338691527498  0.39673724500016755  0.21920372908041236  1.0000
  H   H18       1.0  0.6637394017553501  0.10328565858947769  0.7192042699105061  1.0000
  H   H19       1.0  0.16376189971152397  0.6032700369477552  0.7807974332654557  1.0000
  H   H20       1.0  0.33626277608136224  0.8967094663001658  0.2807965580276389  1.0000
  H   H21       1.0  0.8741041272792315  0.40246425962955373  0.13855010898247855  1.0000
  H   H22       1.0  0.6258691274605113  0.09757059343689889  0.6385528828795801  1.0000
  H   H23       1.0  0.12590068759735118  0.5975388835010875  0.8614510532023589  1.0000
  H   H24       1.0  0.37412675936882783  0.9024276293884842  0.3614482794411417  1.0000
  H   H25       1.0  0.5538537744294486  0.024676372067119704  0.4017643647866224  1.0000
  H   H26       1.0  0.946113840197256  0.4753536707758315  0.9017517363212452  1.0000
  H   H27       1.0  0.44611460615310944  0.9753372910386137  0.5982357952209798  1.0000
  H   H28       1.0  0.0538762124571406  0.5246546891121185  0.09824842331237703  1.0000
  H   H29       1.0  0.6000935997902204  0.055766866907603685  0.48318416437614803  1.0000
  H   H30       1.0  0.8998808062220147  0.44426119735515357  0.9831739173309093  1.0000
  H   H31       1.0  0.3998778601076936  0.9442377000207641  0.5168156612869411  1.0000
  H   H32       1.0  0.10012951876133509  0.5557398640148251  0.016827244756967705  1.0000
  H   H33       1.0  0.8147474234541574  0.442241682228314  0.46465165978785467  1.0000
  H   H34       1.0  0.685288353015224  0.05775562379862719  0.964652923240003  1.0000
  H   H35       1.0  0.18526713000348136  0.557746242961933  0.535349502196077  1.0000
  H   H36       1.0  0.31474656110321314  0.9422350658216772  0.035348906952450014  1.0000
  H   H37       1.0  0.7742924910415637  0.4324186151585819  0.38290991641319766  1.0000
  H   H38       1.0  0.7257229004208482  0.06759593913811558  0.8829085479497683  1.0000
  H   H39       1.0  0.2257225190062541  0.5675763491524107  0.6170915798511774  1.0000
  H   H40       1.0  0.2742862313103202  0.9324041307620304  0.11709194561537126  1.0000
  C   C1        1.0  0.6502012596198269  0.11993708784527972  0.14238217223532967  1.0000
  C   C2        1.0  0.84979641786704  0.3800823218286808  0.6423752683964781  1.0000
  C   C3        1.0  0.34980236195612946  0.8800650638143142  0.8576186556967971  1.0000
  C   C4        1.0  0.15021143242545068  0.6199066936572565  0.3576238880815908  1.0000
  C   C5        1.0  0.6226191409951694  0.10919442334387951  0.18751908438055417  1.0000
  C   C6        1.0  0.8773864616137814  0.39081131207704795  0.6875099809293419  1.0000
  C   C7        1.0  0.37738349348016687  0.890807740667732  0.8124817435680146  1.0000
  C   C8        1.0  0.12262965379040484  0.6091745807666841  0.3124895096733057  1.0000
  C   C9        1.0  0.685916586263225  0.20935871964135794  0.21725127230367045  1.0000
  C   C10       1.0  0.814075137279495  0.29065491670367993  0.7172457671086295  1.0000
  C   C11       1.0  0.3140809506507195  0.7906475337806781  0.7827492214701197  1.0000
  C   C12       1.0  0.18593176995717894  0.7093391426052519  0.28275405793807823  1.0000
  C   C13       1.0  0.7800428891977802  0.31569624475519475  0.19902724903190724  1.0000
  C   C14       1.0  0.7199413283306624  0.1843227160919128  0.6990263357276664  1.0000
  C   C15       1.0  0.2199564156689319  0.6843089801385318  0.8009732447098517  1.0000
  C   C16       1.0  0.2800636045594301  0.815671367917403  0.3009744921619984  1.0000
  C   C17       1.0  0.8033059658621724  0.31940484778863265  0.15315800508707875  1.0000
  C   C18       1.0  0.6966754301141123  0.18062269939925096  0.6531598522036435  1.0000
  C   C19       1.0  0.19669510700575896  0.6805993485779992  0.8468421543526221  1.0000
  C   C20       1.0  0.3033230055201485  0.8193734787215304  0.3468413100694506  1.0000
  C   C21       1.0  0.6446972200796847  0.19358358113232302  0.26388325388472833  1.0000
  C   C22       1.0  0.8552922125305641  0.3064265565606661  0.763875121471209  1.0000
  C   C23       1.0  0.3552948068243963  0.8064247540528056  0.7361165714459833  1.0000
  C   C24       1.0  0.1447086098987568  0.6935716045070633  0.23612537222722815  1.0000
  C   C25       1.0  0.6314117769651444  0.20161850927362218  0.33735036345841973  1.0000
  C   C26       1.0  0.8685829368106893  0.298404851485408  0.8373417479818603  1.0000
  C   C27       1.0  0.36858024993893673  0.7983898259115066  0.6626494618722847  1.0000
  C   C28       1.0  0.131413819251101  0.701602418112927  0.16265874580751935  1.0000
  C   C29       1.0  0.6619536860131205  0.22470744805415419  0.38472199352701625  1.0000
  C   C30       1.0  0.8380430889594661  0.2753153707258988  0.8847149441461826  1.0000
  C   C31       1.0  0.33803533544740816  0.775295892713622  0.6152778318408921  1.0000
  C   C32       1.0  0.1619572030078657  0.7246898418158094  0.11528554957912725  1.0000
  C   C33       1.0  0.6116329330060137  0.11901932625397649  0.41414300142393773  1.0000
  C   C34       1.0  0.8883576559192078  0.38100023013846135  0.9141358224454382  1.0000
  C   C35       1.0  0.38834881039498  0.8809871248027717  0.5858568240729557  1.0000
  C   C36       1.0  0.11164263599967228  0.619004982402039  0.08586500554989132  1.0000
  C   C37       1.0  0.6369298531529992  0.1358697868459942  0.4595177736378276  1.0000
  C   C38       1.0  0.8630572471845495  0.36414831237568274  0.959510681261037  1.0000
  C   C39       1.0  0.3630510652056955  0.8641326489124238  0.5404823861325313  1.0000
  C   C40       1.0  0.13695681995280035  0.6358516957619499  0.04049048076191041  1.0000
  C   C41       1.0  0.7577562966648799  0.3515874231277821  0.4491292099398054  1.0000
  C   C42       1.0  0.7422627203107054  0.14841730660715058  0.9491277052767662  1.0000
  C   C43       1.0  0.24224900458043655  0.6484036370566884  0.5508716179359896  1.0000
  C   C44       1.0  0.25776216074326186  0.8515775341836687  0.05087379082313963  1.0000
  C   C45       1.0  0.7360644520865092  0.3439739290627202  0.40308218440922183  1.0000
  C   C46       1.0  0.7639480532660696  0.15604044155134028  0.9030796631297879  1.0000
  C   C47       1.0  0.2639391253961918  0.6560231911246817  0.5969183092407351  1.0000
  C   C48       1.0  0.23606403967004738  0.8439595912903284  0.09692149892605784  1.0000
  C   C49       1.0  0.7722218425989379  0.5405231515192597  0.055764169099759925  1.0000
  C   C50       1.0  0.727749973214088  0.959494898038791  0.5557630677397186  1.0000
  C   C51       1.0  0.22779942896837468  0.4594878369301937  0.9442356557514064  1.0000
  C   C52       1.0  0.2722263781905525  0.04050457565972469  0.44423575501892304  1.0000
  C   C53       1.0  0.07021050377776558  0.2606385035623831  0.058828014976711515  1.0000
  C   C54       1.0  0.4297707980579729  0.23939590244689407  0.5588321041775404  1.0000
  C   C55       1.0  0.9297992308821676  0.7393404242338306  0.9411818380848732  1.0000
  C   C56       1.0  0.5702172379976743  0.7606074507154189  0.44115602175603663  1.0000
  C   C57       1.0  0.7597882628294953  0.9345364243592443  0.05161375092064452  1.0000
  C   C58       1.0  0.7401533759809523  0.565483054477724  0.5516068763975357  1.0000
  C   C59       1.0  0.24018356445466077  0.06546511871997752  0.948392760129018  1.0000
  C   C60       1.0  0.2598423497106168  0.43451919602109274  0.44838760053574606  1.0000
  C   C61       1.0  0.4572873804642511  0.21605195416832856  0.04951739204933151  1.0000
  C   C62       1.0  0.042701791874691294  0.28396433951623834  0.5495208783166989  1.0000
  C   C63       1.0  0.5427249647515565  0.7839541140183997  0.9504707334869454  1.0000
  C   C64       1.0  0.9572806735344769  0.7160119103419832  0.4504806184409774  1.0000
  N   N1        1.0  0.7388869563735341  0.22462978902084535  0.12471379200405865  1.0000
  N   N2        1.0  0.7610981185015715  0.27539500287575436  0.6247116418804028  1.0000
  N   N3        1.0  0.26111391024593184  0.7753734035215059  0.875286367436502  1.0000
  N   N4        1.0  0.2388999047811139  0.7245991676001182  0.3752885175843448  1.0000
  N   N5        1.0  0.5330591436807876  0.1093887462659211  0.27697424034589363  1.0000
  N   N6        1.0  0.9669295006847561  0.39062629071591454  0.7769581462356147  1.0000
  N   N7        1.0  0.4669317340643602  0.8906236289215743  0.7230252507442503  1.0000
  N   N8        1.0  0.033068404632871286  0.609376938882491  0.2230420132542862  1.0000
  N   N9        1.0  0.5260923947387964  0.11299608176465625  0.3224347540497306  1.0000
  N   N10       1.0  0.9738993217237422  0.38702546625853523  0.8224184097234188  1.0000
  N   N11       1.0  0.4738968771603495  0.8870132943020222  0.6775647370594416  1.0000
  N   N12       1.0  0.02609509178159191  0.6129848518686813  0.17758208411272144  1.0000
  N   N13       1.0  0.7082500812504902  0.25601048523279957  0.3011812086083695  1.0000
  N   N14       1.0  0.791743801851723  0.2440062351694721  0.801177544401455  1.0000
  N   N15       1.0  0.29174116470453976  0.7439988661261907  0.6988192852779708  1.0000
  N   N16       1.0  0.20825587137021268  0.7559959658994018  0.19882294932644134  1.0000
  N   N17       1.0  0.835235649304252  0.3411111876076802  0.3010680028136577  1.0000
  N   N18       1.0  0.6647599894403128  0.15889947359106324  0.801071134747531  1.0000
  N   N19       1.0  0.16475539040231266  0.6588971599270365  0.6989324910735422  1.0000
  N   N20       1.0  0.33523968373317803  0.8411027274765954  0.19892969325037776  1.0000
  N   N21       1.0  0.7092320405617584  0.24939623083860601  0.47652552339545934  1.0000
  N   N22       1.0  0.7907717566670199  0.250611410043767  0.976523931146531  1.0000
  N   N23       1.0  0.2907590730650681  0.7505980261026008  0.5234743019143908  1.0000
  N   N24       1.0  0.20925291809003704  0.7493824269215635  0.02347789922426101  1.0000
  N   N25       1.0  0.7721780046334954  0.42529532708930146  0.058494526636366125  1.0000
  N   N26       1.0  0.7278049177617374  0.07472719405993901  0.5584951304992034  1.0000
  N   N27       1.0  0.22784643448412817  0.5747166281283782  0.9415052981646075  1.0000
  N   N28       1.0  0.272172008295044  0.9252702596392196  0.4415033579746891  1.0000
  N   N29       1.0  0.954266218076178  0.2597144428389768  0.06144267892818793  1.0000
  N   N30       1.0  0.5457126814422892  0.24030709009433338  0.5614481812259983  1.0000
  N   N31       1.0  0.045742618105691656  0.7402745602645735  0.9385648342839874  1.0000
  N   N32       1.0  0.4542759723897587  0.7596992745165138  0.4385466301054422  1.0000
  N   N33       1.0  0.7561527130727228  0.049074189205612094  0.053930041367870316  1.0000
  N   N34       1.0  0.7438136026073963  0.4509526151090099  0.5539303675058707  1.0000
  N   N35       1.0  0.24383635214191188  0.9509341830258504  0.94607245817236  1.0000
  N   N36       1.0  0.2561840966555593  0.5490496106699821  0.4460684549048042  1.0000
  N   N37       1.0  0.5729601187679805  0.21523851558630708  0.051492673527747015  1.0000
  N   N38       1.0  0.9270284136576875  0.28478703088250507  0.5514914039040593  1.0000
  N   N39       1.0  0.42705844285664785  0.7847785452411884  0.9485004659836139  1.0000
  N   N40       1.0  0.07295928178641728  0.7152002239867201  0.44851009279481974  1.0000
