data_image0
_chemical_formula_structural       Al4H36C76N8O20F16
_chemical_formula_sum              "Al4 H36 C76 N8 O20 F16"
_cell_length_a       6.639537243037897
_cell_length_b       25.357544918784573
_cell_length_c       28.89943457422118
_cell_angle_alpha    90.54734155755068
_cell_angle_beta     89.3258249833506
_cell_angle_gamma    88.5921606306783

_space_group_name_H-M_alt    "P 1"
_space_group_IT_number       1

loop_
  _space_group_symop_operation_xyz
  'x, y, z'

loop_
  _atom_site_type_symbol
  _atom_site_label
  _atom_site_symmetry_multiplicity
  _atom_site_fract_x
  _atom_site_fract_y
  _atom_site_fract_z
  _atom_site_occupancy
  Al  Al1       1.0  0.787872759071348  0.7488615668250419  0.746735115511072  1.0000
  Al  Al2       1.0  0.21521050891604432  0.2528686661783013  0.25315324592286  1.0000
  Al  Al3       1.0  0.29149707529833796  0.7471237427545104  0.7472476940096868  1.0000
  Al  Al4       1.0  0.7124918293786349  0.2540436331966518  0.252493084872043  1.0000
  H   H1        1.0  0.7332421668289087  0.6603137495764457  0.6353654576668362  1.0000
  H   H2        1.0  0.27635813243477975  0.3420010520129323  0.3650601146020591  1.0000
  H   H3        1.0  0.7091000729129817  0.5960976046291007  0.5695350279027025  1.0000
  H   H4        1.0  0.2968742565608978  0.40581255634305785  0.431203684630212  1.0000
  H   H5        1.0  0.34351341788705986  0.558490359891529  0.5822019505259277  1.0000
  H   H6        1.0  0.6618050437290678  0.4419485304968374  0.4178583447629904  1.0000
  H   H7        1.0  0.7260297247994386  0.6609464012319392  0.8636978501349546  1.0000
  H   H8        1.0  0.2701262554866517  0.3400215249042943  0.1362291619952813  1.0000
  H   H9        1.0  0.7122847276774492  0.6005098593376205  0.930495184238545  1.0000
  H   H10       1.0  0.28449500612951795  0.4004635210691774  0.0694163294173507  1.0000
  H   H11       1.0  0.3409236913673014  0.5588442612268876  0.9065142845370673  1.0000
  H   H12       1.0  0.6561529169213925  0.4427137409789807  0.0932973070671039  1.0000
  H   H13       1.0  0.2869431938427028  0.4878624633345296  0.0524517754107166  1.0000
  H   H14       1.0  0.7093152902538832  0.5132043201977934  0.9473905973832119  1.0000
  H   H15       1.0  0.1786322857187983  0.1009768529823276  0.43633919087829304  1.0000
  H   H16       1.0  0.8256541654425859  0.898597674105929  0.561366706671393  1.0000
  H   H17       1.0  0.17930014853406104  0.16742938967375656  0.37349422588302167  1.0000
  H   H18       1.0  0.8292748411828085  0.8332045310958945  0.6249239636742843  1.0000
  H   H19       1.0  0.21018499882500655  0.942385877120273  0.513005158574174  1.0000
  H   H20       1.0  0.7924540126761952  0.05677662395564909  0.4849041503733886  1.0000
  H   H21       1.0  0.7753147256131214  0.05095565047594158  0.1012517567380442  1.0000
  H   H22       1.0  0.21917527581986457  0.8943845104636595  0.9420146419436364  1.0000
  H   H23       1.0  0.17646221280143237  0.1683096085974185  0.1290577675894866  1.0000
  H   H24       1.0  0.8198193823490668  0.873267914063099  0.839257872586316  1.0000
  H   H25       1.0  0.9606576857796015  0.10392604764641077  0.34546284159124235  1.0000
  H   H26       1.0  0.8589079272552309  0.15760982211239846  0.3157973116439905  1.0000
  H   H27       1.0  0.04603709489785496  0.8953818087224192  0.6529164827953124  1.0000
  H   H28       1.0  0.15545991834943607  0.8443303690710663  0.6856235051706534  1.0000
  H   H29       1.0  0.7991683851461601  0.13265025224685437  0.2032683843400136  1.0000
  H   H30       1.0  0.9058145253093385  0.0806131118852136  0.17174185813976808  1.0000
  H   H31       1.0  0.05417023522987557  0.831539875555535  0.8974987691336552  1.0000
  H   H32       1.0  0.16709981019118203  0.7999700879904167  0.8491838229091826  1.0000
  H   H33       1.0  0.5478104535345026  0.6806109748077984  0.762136708520714  1.0000
  H   H34       1.0  0.4555045174468545  0.31897134699543983  0.23378780884716827  1.0000
  H   H35       1.0  0.03215717775523068  0.8141320275584645  0.7661460814261075  1.0000
  H   H36       1.0  0.9762778259431568  0.19544710768114015  0.2241760333407967  1.0000
  C   C1        1.0  0.5406429446693721  0.81149824914538  0.6852072302304535  1.0000
  C   C2        1.0  0.47577084512904116  0.19084563039184835  0.3153293981861154  1.0000
  C   C3        1.0  0.5251528115652704  0.8105323529942718  0.812604931127659  1.0000
  C   C4        1.0  0.46431037793472996  0.18640787107810303  0.1904715021071226  1.0000
  C   C5        1.0  0.03603487307559312  0.6834993907260125  0.8089199985581175  1.0000
  C   C6        1.0  0.9547338126644577  0.3168488186440115  0.1900054129205913  1.0000
  C   C7        1.0  0.05471846393737681  0.6857360619781898  0.6840530091583262  1.0000
  C   C8        1.0  0.9607441975049297  0.31657646629044933  0.3151777852146155  1.0000
  C   C9        1.0  0.8659851934977352  0.6382766360136356  0.6228057394302482  1.0000
  C   C10       1.0  0.14294699904124997  0.3639072937652656  0.37735675669915025  1.0000
  C   C11       1.0  0.852099769720766  0.6024373787425574  0.586475056113251  1.0000
  C   C12       1.0  0.15474195037864996  0.39946976581378385  0.413893163676974  1.0000
  C   C13       1.0  0.02433080203248041  0.5734119280239652  0.5715001083196825  1.0000
  C   C14       1.0  0.981267343977123  0.4279956727130808  0.428792707428407  1.0000
  C   C15       1.0  0.20953890364929603  0.5811304153225193  0.5931346572384939  1.0000
  C   C16       1.0  0.7973014275400628  0.4200730487947835  0.4067272412012599  1.0000
  C   C17       1.0  0.21927860937366003  0.6175626381365404  0.629040335006735  1.0000
  C   C18       1.0  0.7898360615050065  0.38415562339566367  0.3703281339088562  1.0000
  C   C19       1.0  0.0499434976540272  0.6470128239664061  0.6449019422667988  1.0000
  C   C20       1.0  0.9605794150293078  0.3551642085344469  0.3545041419649237  1.0000
  C   C21       1.0  0.9917535224127861  0.4663186095320597  0.46709868702867396  1.0000
  C   C22       1.0  0.011936261606358297  0.5344169735531705  0.5337800090195017  1.0000
  C   C23       1.0  0.8597280020968511  0.6383435035360419  0.8737715456481467  1.0000
  C   C24       1.0  0.1364815986678707  0.36259879179351634  0.126077398151466  1.0000
  C   C25       1.0  0.8521828174710109  0.6040244945365599  0.9107926888161443  1.0000
  C   C26       1.0  0.1443651305832176  0.39696263803917714  0.0890409448761886  1.0000
  C   C27       1.0  0.024729718794922886  0.5746587786045864  0.9237987706622874  1.0000
  C   C28       1.0  0.9719246116305696  0.4263305796259401  0.07595310028937521  1.0000
  C   C29       1.0  0.2040216973428102  0.5812037965811497  0.8985484628125563  1.0000
  C   C30       1.0  0.7922612852832528  0.41997675921154337  0.1011246622984103  1.0000
  C   C31       1.0  0.2082509528214089  0.6159390630837933  0.8617582054068436  1.0000
  C   C32       1.0  0.7874386079746855  0.3849625231774353  0.137651223089911  1.0000
  C   C33       1.0  0.03803154790826109  0.6455460889556477  0.8480769528962782  1.0000
  C   C34       1.0  0.9571731709118934  0.3552195699867653  0.15123735216355533  1.0000
  C   C35       1.0  0.17172889587479287  0.5272483010912906  0.9931483427878831  1.0000
  C   C36       1.0  0.8246948952371297  0.47377568239191686  0.006639618626259399  1.0000
  C   C37       1.0  0.15899996516422726  0.4922953155169905  0.029473148304411702  1.0000
  C   C38       1.0  0.837375664660186  0.5087675224462558  0.9703393191819459  1.0000
  C   C39       1.0  0.9829151850035914  0.46392703141777486  0.0374642098849804  1.0000
  C   C40       1.0  0.013637614369336895  0.537085936696492  0.9623124774675986  1.0000
  C   C41       1.0  0.6642822618119838  0.12094762795294396  0.3599188481138427  1.0000
  C   C42       1.0  0.3438125901765758  0.8790002612778949  0.6390521563108963  1.0000
  C   C43       1.0  0.6546557046458831  0.0830687158366459  0.3953061948440464  1.0000
  C   C44       1.0  0.35060977532618404  0.9160818733078598  0.6028273000010174  1.0000
  C   C45       1.0  0.48704941303974897  0.07466078261984417  0.42331491911655655  1.0000
  C   C46       1.0  0.5168963142768774  0.9245484199502055  0.574579809556198  1.0000
  C   C47       1.0  0.31202500193609245  0.10588370532766328  0.4147576313243135  1.0000
  C   C48       1.0  0.69309877450371  0.8936839797103387  0.5832034186408208  1.0000
  C   C49       1.0  0.3126452707163948  0.1427678468601314  0.3797920843266454  1.0000
  C   C50       1.0  0.6949906940453586  0.8574696241118501  0.6185949483901823  1.0000
  C   C51       1.0  0.48456626607401176  0.1511324542577697  0.3521668476920681  1.0000
  C   C52       1.0  0.5253626094364491  0.8495020369480811  0.6472593238864305  1.0000
  C   C53       1.0  0.3356726177976626  0.0026852627295  0.4715377682191075  1.0000
  C   C54       1.0  0.6671964572656249  0.9964235340134234  0.526289313245826  1.0000
  C   C55       1.0  0.33955228093784473  0.9671767912449809  0.5076323268362088  1.0000
  C   C56       1.0  0.6632560626901592  0.0319116645433937  0.4901988484901878  1.0000
  C   C57       1.0  0.5079545869713442  0.9628400028465265  0.5364827107592092  1.0000
  C   C58       1.0  0.49500727526823596  0.03621678921788879  0.4613135104406823  1.0000
  C   C59       1.0  0.6470193880238709  0.11272152044266898  0.1451546861309865  1.0000
  C   C60       1.0  0.34602680658242957  0.8518321161745277  0.883013545314661  1.0000
  C   C61       1.0  0.6440167758807717  0.0768143472534959  0.1076443491022374  1.0000
  C   C62       1.0  0.35177082562828577  0.8890338709099196  0.9196758017627289  1.0000
  C   C63       1.0  0.48115713393943327  0.07380270312950189  0.0780104886262052  1.0000
  C   C64       1.0  0.5178765173842591  0.9199423447678041  0.9275116420830755  1.0000
  C   C65       1.0  0.31369695775453  0.10749977557997425  0.08649282521583501  1.0000
  C   C66       1.0  0.6867444883571494  0.9129610979107666  0.8981801469935178  1.0000
  C   C67       1.0  0.3091335312188761  0.14302042566807668  0.1228931201845853  1.0000
  C   C68       1.0  0.6883444828470361  0.8772266656446914  0.8619951704576465  1.0000
  C   C69       1.0  0.4754788471290682  0.14685087409191766  0.152479460562617  1.0000
  C   C70       1.0  0.5189244677538979  0.8463903606547802  0.8532386116595488  1.0000
  C   C71       1.0  0.4949390354885139  0.9808739859483492  0.0479303282935035  1.0000
  C   C72       1.0  0.5062264754847307  0.013574129902529798  0.9570273292930055  1.0000
  C   C73       1.0  0.5061445416851668  0.943913959157662  0.011977458558362698  1.0000
  C   C74       1.0  0.49150809896538317  0.05056249515855878  0.9929888830608888  1.0000
  C   C75       1.0  0.5125473928002648  0.9593741735495339  0.9656888840991088  1.0000
  C   C76       1.0  0.48700327575173213  0.0350703765386555  0.0393285733169009  1.0000
  N   N1        1.0  0.18148188941984242  0.5061682087204744  0.5222647061873076  1.0000
  N   N2        1.0  0.8213715846580951  0.49388452013425177  0.4791357063839214  1.0000
  N   N3        1.0  0.17135342875464224  0.47152951748711297  0.4882986644007303  1.0000
  N   N4        1.0  0.8315176992025286  0.5285788072473494  0.5131107142216962  1.0000
  N   N5        1.0  0.8376800727873501  0.12432552429223875  0.33439997429024965  1.0000
  N   N6        1.0  0.1697041862311153  0.8751996525183187  0.6637916889997157  1.0000
  N   N7        1.0  0.8148827212036308  0.11325950982940469  0.1725462233427706  1.0000
  N   N8        1.0  0.17858304474876266  0.822258118558068  0.87833640062032  1.0000
  O   O1        1.0  0.35822229083483853  0.7900421102891216  0.8005049043625618  1.0000
  O   O2        1.0  0.629248879837789  0.19807799696954478  0.2104653806974142  1.0000
  O   O3        1.0  0.7134203867774643  0.792007343482581  0.6955996218158376  1.0000
  O   O4        1.0  0.3057243178370824  0.20226079077716005  0.2973801400527663  1.0000
  O   O5        1.0  0.8862671016125458  0.6965831364311723  0.7037778213568019  1.0000
  O   O6        1.0  0.13181700876250343  0.2964493694238044  0.3036977418967907  1.0000
  O   O7        1.0  0.6931882478833346  0.8023520083285617  0.7912865424665513  1.0000
  O   O8        1.0  0.2918089847630582  0.2065774902671507  0.2014766933891536  1.0000
  O   O9        1.0  0.8648539723245817  0.70341265930211  0.7982385984253852  1.0000
  O   O10       1.0  0.12346611331606987  0.3059652024067745  0.2086581244899293  1.0000
  O   O11       1.0  0.3774074493883147  0.8003757096352261  0.7069276625651925  1.0000
  O   O12       1.0  0.6425805526698694  0.21117010483921209  0.3029114183055341  1.0000
  O   O13       1.0  0.544018842753836  0.715083291326799  0.7479315394580225  1.0000
  O   O14       1.0  0.4598320653094774  0.2861254813535012  0.2507140756205857  1.0000
  O   O15       1.0  0.20323254570619295  0.6935068572147643  0.7892237871017045  1.0000
  O   O16       1.0  0.7855583673410251  0.2976486446463439  0.20110347718717492  1.0000
  O   O17       1.0  0.222602496520885  0.7049994869792896  0.6950120973514231  1.0000
  O   O18       1.0  0.7954180648860927  0.30642360844424127  0.2957221603052318  1.0000
  O   O19       1.0  0.037321639501676884  0.7812617782494158  0.7487114844805873  1.0000
  O   O20       1.0  0.9667861752326772  0.21967621933278994  0.2504412596461805  1.0000
  F   F1        1.0  0.8274198308146835  0.053107894813059886  0.4009587374775094  1.0000
  F   F2        1.0  0.17596186510873224  0.9451671440904333  0.5969174804657769  1.0000
  F   F3        1.0  0.1686098036606936  0.0036340500149947006  0.44436539775242784  1.0000
  F   F4        1.0  0.8339764463562175  0.9956188493743595  0.5535261686309383  1.0000
  F   F5        1.0  0.1500135393078992  0.10396539522879776  0.05836679896911081  1.0000
  F   F6        1.0  0.8537441608152393  0.9423219962289479  0.9061445301830419  1.0000
  F   F7        1.0  0.48916102165797076  0.9633991572231437  0.09211608443271051  1.0000
  F   F8        1.0  0.5109988162748919  0.030645418304068493  0.9128827653358728  1.0000
  F   F9        1.0  0.5126775703002409  0.8919307085270629  0.0225395846016738  1.0000
  F   F10       1.0  0.48500616695557847  0.1024149835738228  0.9826307945351546  1.0000
  F   F11       1.0  0.40037445686505174  0.6227647013231702  0.6497131700496297  1.0000
  F   F12       1.0  0.6085291623842649  0.37839850603087644  0.34994182313862143  1.0000
  F   F13       1.0  0.3874083916821078  0.6193182682315097  0.8387718577899363  1.0000
  F   F14       1.0  0.6093082041527607  0.3818640803013834  0.16119011289909932  1.0000
  F   F15       1.0  0.34663107838066765  0.5543667164176184  0.9886886696267184  1.0000
  F   F16       1.0  0.6498057877397655  0.4466666940968763  0.011097604496058  1.0000
