data_image0
_chemical_formula_structural       Cd2H20C24N4Cl4O12
_chemical_formula_sum              "Cd2 H20 C24 N4 Cl4 O12"
_cell_length_a       5.503402804299459
_cell_length_b       9.39198855213041
_cell_length_c       14.720850283209755
_cell_angle_alpha    89.99997036556931
_cell_angle_beta     96.05989415853286
_cell_angle_gamma    89.99955463050722

_space_group_name_H-M_alt    "P 1"
_space_group_IT_number       1

loop_
  _space_group_symop_operation_xyz
  'x, y, z'

loop_
  _atom_site_type_symbol
  _atom_site_label
  _atom_site_symmetry_multiplicity
  _atom_site_fract_x
  _atom_site_fract_y
  _atom_site_fract_z
  _atom_site_occupancy
  Cd  Cd1       1.0  0.9999978975536833  0.5000013813953288  0.9999977511765933  1.0000
  Cd  Cd2       1.0  0.49999667121021923  3.0478171098000006e-06  0.49999806571725713  1.0000
  H   H1        1.0  0.5731126157880908  0.3870566167723127  0.08169285371506867  1.0000
  H   H2        1.0  0.9268811813126804  0.8870468028420505  0.4183076031238002  1.0000
  H   H3        1.0  0.4268807897858409  0.612949633035015  0.9183040678739899  1.0000
  H   H4        1.0  0.07311749975963983  0.11295412326654741  0.5816943139818207  1.0000
  H   H5        1.0  0.8281493872331608  0.30398009388579084  0.10522597056014149  1.0000
  H   H6        1.0  0.6718439383888253  0.8039721436457441  0.3947778439088765  1.0000
  H   H7        1.0  0.17185120896669298  0.6960250911707888  0.8947739953887465  1.0000
  H   H8        1.0  0.3281528862734362  0.1960287824650351  0.6052246682295391  1.0000
  H   H9        1.0  0.7648078532339327  0.36562141452992597  0.81686185336995  1.0000
  H   H10       1.0  0.735211250924088  0.8656179349171754  0.6831331192247987  1.0000
  H   H11       1.0  0.23518351981603297  0.634367799480117  0.1831397316250474  1.0000
  H   H12       1.0  0.26479868609165896  0.13438618539242952  0.31686251543779775  1.0000
  H   H13       1.0  0.40501924526839156  0.2382728382089212  0.971539281925331  1.0000
  H   H14       1.0  0.0949913939527605  0.7382860362062543  0.528459688197934  1.0000
  H   H15       1.0  0.5949739547366235  0.7617248936962894  0.028462386095632997  1.0000
  H   H16       1.0  0.9050129150672034  0.26171914884595526  0.4715390876853718  1.0000
  H   H17       1.0  0.13697957473391395  0.990528420899949  0.7347880327872787  1.0000
  H   H18       1.0  0.36302847631535673  0.49054022520330415  0.7652074771664559  1.0000
  H   H19       1.0  0.8630263557973307  0.009462922561141304  0.2652155725580911  1.0000
  H   H20       1.0  0.6369740643803894  0.5094702835390947  0.23478985956403162  1.0000
  C   C1        1.0  0.7401062251840501  0.16696077269853052  0.6832821186548158  1.0000
  C   C2        1.0  0.7598980251396341  0.6669654860049975  0.8167162124280054  1.0000
  C   C3        1.0  0.25989065830159314  0.833032700252744  0.3167190373631925  1.0000
  C   C4        1.0  0.2401027179790702  0.33303650484283054  0.1832803632151823  1.0000
  C   C5        1.0  0.9301587585760132  0.1784393473184949  0.7643555254842198  1.0000
  C   C6        1.0  0.5698564813357052  0.6784479700252745  0.7356378723208722  1.0000
  C   C7        1.0  0.0698417202659201  0.8215488019398052  0.2356471527151527  1.0000
  C   C8        1.0  0.4301588486133808  0.32155934448591944  0.2643600456103883  1.0000
  C   C9        1.0  0.9149733256307258  0.2899417897211123  0.8262820124419719  1.0000
  C   C10       1.0  0.5850472352942617  0.789944095852782  0.6737109718363712  1.0000
  C   C11       1.0  0.08501619098993268  0.7100495537656003  0.1737201675851736  1.0000
  C   C12       1.0  0.41495551113408174  0.2100568302585941  0.3262816184676964  1.0000
  C   C13       1.0  0.26847950043747193  0.21800795073560408  0.9137524875301821  1.0000
  C   C14       1.0  0.23152976652067278  0.7180057294585609  0.5862443776677466  1.0000
  C   C15       1.0  0.7315081891029819  0.7819887164401109  0.0862496094668046  1.0000
  C   C16       1.0  0.7684690908292282  0.2819941319163704  0.41375347107020843  1.0000
  C   C17       1.0  0.29078313844481585  0.10156191861341313  0.8562469229400875  1.0000
  C   C18       1.0  0.2092372226824821  0.6015660432817569  0.6437538182831019  1.0000
  C   C19       1.0  0.7092137156243296  0.8984358132862343  0.143754911137961  1.0000
  C   C20       1.0  0.7907688546424511  0.398435947554745  0.35624639675237557  1.0000
  C   C21       1.0  0.12135734831662862  0.0809276332836859  0.780094867479832  1.0000
  C   C22       1.0  0.3786744657260498  0.5809279188344192  0.7199036721768763  1.0000
  C   C23       1.0  0.8786449575092234  0.9190658396580461  0.2199078937464662  1.0000
  C   C24       1.0  0.6213297257338084  0.41908258990162045  0.28009781595014255  1.0000
  N   N1        1.0  0.08114010672815651  0.31016444477396027  0.8986094038430607  1.0000
  N   N2        1.0  0.4188620123691038  0.8101722880428994  0.6013871564102331  1.0000
  N   N3        1.0  0.9188494979975913  0.689830092926272  0.1013907419991185  1.0000
  N   N4        1.0  0.581138730711082  0.1898339617539051  0.3986094192316685  1.0000
  Cl  Cl1       1.0  0.5328602523860865  0.9861803770684643  0.8790430907224547  1.0000
  Cl  Cl2       1.0  0.9671622112525781  0.4861804332306647  0.6209507017635332  1.0000
  Cl  Cl3       1.0  0.467145678087391  0.013817354816090704  0.1209605146209753  1.0000
  Cl  Cl4       1.0  0.032845693104413  0.5138215576030588  0.37904959630049007  1.0000
  O   O1        1.0  0.7918642666903964  0.084091193258935  0.6180471943364197  1.0000
  O   O2        1.0  0.7081507938750349  0.5840852892923679  0.8819475337515073  1.0000
  O   O3        1.0  0.20813818597727618  0.9159076033719985  0.3819521765816134  1.0000
  O   O4        1.0  0.2918517763046112  0.41591350734095306  0.1180491249211926  1.0000
  O   O5        1.0  0.5467914881263168  0.23810892952298696  0.6845833552860867  1.0000
  O   O6        1.0  0.9532151295340937  0.7381130733210525  0.8154150987311723  1.0000
  O   O7        1.0  0.45320168255847176  0.7618824139581692  0.3154189907981433  1.0000
  O   O8        1.0  0.04678366902130901  0.2618910470016543  0.1845841061281561  1.0000
  O   O9        1.0  0.7172528757726441  0.3488153268001782  0.054022033793557994  1.0000
  O   O10       1.0  0.7827451200735069  0.8488090813553059  0.44598200258597837  1.0000
  O   O11       1.0  0.2827459227635103  0.6511909229970172  0.9459771710651239  1.0000
  O   O12       1.0  0.21725353158230826  0.15119610370166467  0.5540205925796896  1.0000
