data_image0
_chemical_formula_structural       Sr4H20C20O24
_chemical_formula_sum              "Sr4 H20 C20 O24"
_cell_length_a       7.669739618334634
_cell_length_b       10.016300603589968
_cell_length_c       11.017240050124837
_cell_angle_alpha    97.7176244576283
_cell_angle_beta     90.00518169638617
_cell_angle_gamma    112.53050969438114

_space_group_name_H-M_alt    "P 1"
_space_group_IT_number       1

loop_
  _space_group_symop_operation_xyz
  'x, y, z'

loop_
  _atom_site_type_symbol
  _atom_site_label
  _atom_site_symmetry_multiplicity
  _atom_site_fract_x
  _atom_site_fract_y
  _atom_site_fract_z
  _atom_site_occupancy
  Sr  Sr1       1.0  0.604166521443524  0.4863321875203396  0.6835271068826428  1.0000
  Sr  Sr2       1.0  0.11792160956420614  0.5137257046017324  0.8164884743016286  1.0000
  Sr  Sr3       1.0  0.3958354697006141  0.5136644115907244  0.31647228737205063  1.0000
  Sr  Sr4       1.0  0.8820794177949479  0.48627418076971896  0.18351220557849499  1.0000
  H   H1        1.0  0.015494355694059275  0.6981347409069939  0.6033546953808224  1.0000
  H   H2        1.0  0.3170674583604481  0.30183833078586275  0.8967246213244733  1.0000
  H   H3        1.0  0.9845009000691363  0.3018640325671881  0.3966440410274287  1.0000
  H   H4        1.0  0.6829273800643633  0.6981648213920266  0.10327552636989165  1.0000
  H   H5        1.0  0.8672806387312517  0.7738033803982204  0.6322507637871195  1.0000
  H   H6        1.0  0.09316390839072848  0.22635397181755218  0.8678612073033846  1.0000
  H   H7        1.0  0.1327222437243165  0.2261976069443818  0.3677509505937237  1.0000
  H   H8        1.0  0.9068329772623542  0.7736480603292221  0.13213608853793346  1.0000
  H   H9        1.0  0.14648727221948826  0.26672315880153963  0.6748447804921296  1.0000
  H   H10       1.0  0.8800831361549869  0.7334467486270808  0.8251909197396895  1.0000
  H   H11       1.0  0.85351374568976  0.7332767079125232  0.32515408183900957  1.0000
  H   H12       1.0  0.1199154896611532  0.2665509423298786  0.17480859997903045  1.0000
  H   H13       1.0  0.21248135022188563  0.3491346448644493  0.5631787800464422  1.0000
  H   H14       1.0  0.863628917064325  0.6508965558536912  0.9367463714379549  1.0000
  H   H15       1.0  0.7875187039023857  0.650868508109994  0.4368213679101272  1.0000
  H   H16       1.0  0.13636709617713189  0.3491011253763005  0.06325223937516707  1.0000
  H   H17       1.0  0.7211700423656495  0.0602448340826953  0.8339718814797122  1.0000
  H   H18       1.0  0.6609140803786387  0.9399478955396886  0.6660980413272666  1.0000
  H   H19       1.0  0.2788334825700714  0.9397626515494221  0.16602513408717798  1.0000
  H   H20       1.0  0.3390840950244467  0.06005410882015378  0.3338965282561332  1.0000
  C   C1        1.0  0.5965060694872263  0.7791600697343738  0.8525353471208559  1.0000
  C   C2        1.0  0.817212941275514  0.2210486480870557  0.6475601417698157  1.0000
  C   C3        1.0  0.40350022548111036  0.22085295274389694  0.14746956694536098  1.0000
  C   C4        1.0  0.1827878845018843  0.77895344062928  0.3524426069150976  1.0000
  C   C5        1.0  0.5499049682251566  0.8915707303169353  0.9338929690942019  1.0000
  C   C6        1.0  0.6582895633843933  0.10850005245038827  0.5661227481704925  1.0000
  C   C7        1.0  0.450096040234186  0.10842911773975318  0.06610407568796009  1.0000
  C   C8        1.0  0.3417022451921241  0.8914944350095695  0.4338836644998877  1.0000
  C   C9        1.0  0.42713529521583377  0.855979170593528  0.029979306482879074  1.0000
  C   C10       1.0  0.5711348104837696  0.14399523266491343  0.46998745050831287  1.0000
  C   C11       1.0  0.5728559149395949  0.14401412180750836  0.9700169840074363  1.0000
  C   C12       1.0  0.4288735317775972  0.8560036360875783  0.5300203743003704  1.0000
  C   C13       1.0  0.6230913421186699  0.03484746792880599  0.906913387356262  1.0000
  C   C14       1.0  0.5882287020423149  0.9652472541022661  0.59315601669428  1.0000
  C   C15       1.0  0.37690156567524  0.96514139932421  0.09307694804105171  1.0000
  C   C16       1.0  0.4117732843768636  0.0347493356801039  0.4068424687859248  1.0000
  C   C17       1.0  0.3522900987103981  0.7087040055355159  0.07453448472976727  1.0000
  C   C18       1.0  0.6433489414938548  0.2913330532864292  0.4255165468930142  1.0000
  C   C19       1.0  0.6477092939691502  0.29130564552931293  0.9254609643472943  1.0000
  C   C20       1.0  0.35665503385491343  0.7086701189428197  0.5744854188091962  1.0000
  O   O1        1.0  0.48304960847119827  0.6449016261615624  0.8454957771045881  1.0000
  O   O2        1.0  0.8378983783162469  0.3552342260357619  0.6545102347198934  1.0000
  O   O3        1.0  0.5169632691450942  0.35510370416310616  0.1545037139888308  1.0000
  O   O4        1.0  0.16210743795407712  0.6447700201785691  0.34549003915957127  1.0000
  O   O5        1.0  0.7441405766257531  0.8227657275987992  0.7916643438539237  1.0000
  O   O6        1.0  0.9211660293955574  0.17755278916548886  0.7085945112987558  1.0000
  O   O7        1.0  0.2558599231866197  0.1772331026440809  0.20833984546347747  1.0000
  O   O8        1.0  0.07884267350474512  0.8224415889390071  0.29140099692993715  1.0000
  O   O9        1.0  0.1786398465539135  0.6279250604204589  0.04932089943230267  1.0000
  O   O10       1.0  0.5501594531313286  0.37182754675700364  0.450678704510885  1.0000
  O   O11       1.0  0.8213698720410958  0.3720791677339148  0.9506775570948418  1.0000
  O   O12       1.0  0.4498314011101102  0.6281702456207158  0.5493308113339024  1.0000
  O   O13       1.0  0.464096776082222  0.6787057485302411  0.14140220143089977  1.0000
  O   O14       1.0  0.785249676870137  0.32154498428496225  0.35869622664299766  1.0000
  O   O15       1.0  0.5358982875491237  0.32129524694620665  0.8586004213311251  1.0000
  O   O16       1.0  0.21475176782739408  0.6784505223827819  0.6413030419510191  1.0000
  O   O17       1.0  0.8824378027972275  0.6888836477503659  0.5856182773091873  1.0000
  O   O18       1.0  0.19336395197242945  0.3112684200141372  0.9145004899869488  1.0000
  O   O19       1.0  0.11756486390171965  0.31111951495105217  0.41438277955298014  1.0000
  O   O20       1.0  0.8066318691371777  0.6887314832181275  0.08550200717994018  1.0000
  O   O21       1.0  0.2517791432702054  0.3519630127133907  0.6501091522263704  1.0000
  O   O22       1.0  0.9001968215727417  0.6482141907360129  0.8498407188194288  1.0000
  O   O23       1.0  0.7482229864320543  0.6480390762020817  0.3498935965240974  1.0000
  O   O24       1.0  0.09980105149008975  0.35178460179383103  0.15015983526890858  1.0000
