data_image0
_chemical_formula_structural       Zr12H52C52N4O64
_chemical_formula_sum              "Zr12 H52 C52 N4 O64"
_cell_length_a       14.67635094804028
_cell_length_b       20.046761378564966
_cell_length_c       20.442626245151736
_cell_angle_alpha    88.27321272119549
_cell_angle_beta     67.98277167498962
_cell_angle_gamma    84.61719572201419

_space_group_name_H-M_alt    "P 1"
_space_group_IT_number       1

loop_
  _space_group_symop_operation_xyz
  'x, y, z'

loop_
  _atom_site_type_symbol
  _atom_site_label
  _atom_site_symmetry_multiplicity
  _atom_site_fract_x
  _atom_site_fract_y
  _atom_site_fract_z
  _atom_site_occupancy
  Zr  Zr1       1.0  0.844586018085927  0.4287961404448665  0.5408051881777781  1.0000
  Zr  Zr2       1.0  0.06881097077526022  0.5484925890424462  0.6254914872194846  1.0000
  Zr  Zr3       1.0  0.8195439749591101  0.513650886288417  0.6960030584368156  1.0000
  Zr  Zr4       1.0  0.09600285662607179  0.46057459745879475  0.4711283085382051  1.0000
  Zr  Zr5       1.0  0.9117803198099352  0.5954794800537684  0.5313124469906256  1.0000
  Zr  Zr6       1.0  0.004796065179995397  0.378661505842011  0.6365871682142414  1.0000
  Zr  Zr7       1.0  0.7108156412281516  0.9287364794583154  0.11478260122053999  1.0000
  Zr  Zr8       1.0  0.4577228982051197  0.012383260190972595  0.01808702481403656  1.0000
  Zr  Zr9       1.0  0.5077305757792417  0.8627579704434112  0.09528529952449102  1.0000
  Zr  Zr10      1.0  0.6645717993961355  0.08006111803079821  0.03297749707180487  1.0000
  Zr  Zr11      1.0  0.6952830817481938  0.9227604620045966  0.9431262265176984  1.0000
  Zr  Zr12      1.0  0.4701638948140072  0.021164516602219397  0.1853495225118067  1.0000
  H   H1        1.0  0.836179612396961  0.3128077165410729  0.28065295463179046  1.0000
  H   H2        1.0  0.7986688816441755  0.22979514539461127  0.19170198322834864  1.0000
  H   H3        1.0  0.2862887499716749  0.6264236787836238  0.8199339844318845  1.0000
  H   H4        1.0  0.3602152874362687  0.685847668410119  0.905146076371132  1.0000
  H   H5        1.0  0.9448929760976484  0.5036688419745374  0.4195368366615356  1.0000
  H   H6        1.0  0.9008059804822534  0.63843480524163  0.6769529834308089  1.0000
  H   H7        1.0  0.1908677445712428  0.4257102852092131  0.5633936277187389  1.0000
  H   H8        1.0  0.803823818575438  0.37146929145686874  0.6808380529585278  1.0000
  H   H9        1.0  0.8177259930281761  0.7089583237014523  0.5848939871682007  1.0000
  H   H10       1.0  0.7423212336421514  0.4365209879077341  0.8219593285048746  1.0000
  H   H11       1.0  0.9721216286083987  0.3412380615638355  0.7673407046842015  1.0000
  H   H12       1.0  0.9538010680385937  0.6335417712483817  0.39374082719871956  1.0000
  H   H13       1.0  0.07421100239024982  0.5751300932805279  0.3912398711940881  1.0000
  H   H14       1.0  0.1907250414386752  0.33301840834612056  0.4230610876462748  1.0000
  H   H15       1.0  0.17374228806051656  0.2953615024704348  0.6008053890787011  1.0000
  H   H16       1.0  0.990302711352726  0.7069233146864279  0.49201476006878414  1.0000
  H   H17       1.0  0.15728417338297615  0.6585875884031295  0.552234872343398  1.0000
  H   H18       1.0  0.7553819678340332  0.3154154601224873  0.5766775708558003  1.0000
  H   H19       1.0  0.999165739745692  0.25573285793508665  0.585183870935154  1.0000
  H   H20       1.0  0.13096938327408478  0.5134656883296033  0.33354791399033  1.0000
  H   H21       1.0  0.04011092674463868  0.6774625595890456  0.5697842265905778  1.0000
  H   H22       1.0  0.6854292479202043  0.5921120988671831  0.8038152707636924  1.0000
  H   H23       1.0  0.7335000996972243  0.6814451945243647  0.5645357099464761  1.0000
  H   H24       1.0  0.16957627447475693  0.3327442964657408  0.5076485573549618  1.0000
  H   H25       1.0  0.8559889398453321  0.40461435282686153  0.7760556694565893  1.0000
  H   H26       1.0  0.8961894659708847  0.2942856362106596  0.5844093838275556  1.0000
  H   H27       1.0  0.5593564585388647  0.5920795113845969  0.1895727830050689  1.0000
  H   H28       1.0  0.4475030627954837  0.5067129565384151  0.2869884789912476  1.0000
  H   H29       1.0  0.3085566232726932  0.20434828873303704  0.8974570794696035  1.0000
  H   H30       1.0  0.19839651473053982  0.2750877108817349  0.83159816382166  1.0000
  H   H31       1.0  0.8295699422898578  0.9865864300272378  0.9839672241395689  1.0000
  H   H32       1.0  0.5103493293377708  0.8831576488506699  0.9505005184006593  1.0000
  H   H33       1.0  0.4632881880041709  0.12846729820324038  0.08948056840790028  1.0000
  H   H34       1.0  0.51967755045478  0.8917821074366756  0.22806437655383155  1.0000
  H   H35       1.0  0.7404494428985515  0.7816769905882025  0.9143301064587065  1.0000
  H   H36       1.0  0.34689398561285145  0.7946578513709212  0.17487156972068627  1.0000
  H   H37       1.0  0.30070366069069376  0.9980450542433913  0.2844773163001051  1.0000
  H   H38       1.0  0.7899538190058096  0.9929949574118664  0.8280335011779202  1.0000
  H   H39       1.0  0.8412798611272693  0.11318913529078858  0.9419642767614251  1.0000
  H   H40       1.0  0.6717683335105562  0.174441884536364  0.11780599995287128  1.0000
  H   H41       1.0  0.4169437804695661  0.15850730490456036  0.21839901091114203  1.0000
  H   H42       1.0  0.6721662549658447  0.8809140271690408  0.8289651049481962  1.0000
  H   H43       1.0  0.3602988808090473  0.9895439094321432  0.930617154109868  1.0000
  H   H44       1.0  0.7120220417599227  0.9040348888424462  0.24444139717807908  1.0000
  H   H45       1.0  0.4893324232416773  0.0021077703283865004  0.310871001341603  1.0000
  H   H46       1.0  0.7989937247303587  0.0401778569130968  0.8908416876578756  1.0000
  H   H47       1.0  0.4215011439403966  0.0536563465722324  0.8995597428458595  1.0000
  H   H48       1.0  0.4806996090910616  0.7638942647762974  0.022051345528332354  1.0000
  H   H49       1.0  0.6256310098437863  0.7884039502766454  0.9687134985069225  1.0000
  H   H50       1.0  0.5374196113295255  0.14847464704459412  0.1686113094283286  1.0000
  H   H51       1.0  0.4394059938530646  0.7696670412527737  0.19527680086059016  1.0000
  H   H52       1.0  0.6049319424999382  0.9870998153100672  0.2557957954688277  1.0000
  C   C1        1.0  0.9772366678815416  0.25113493653461916  0.2496726587631457  1.0000
  C   C2        1.0  0.8836530800007196  0.2712737569801932  0.24941010988488438  1.0000
  C   C3        1.0  0.8649694985081807  0.22928629108597687  0.2033415284912508  1.0000
  C   C4        1.0  0.9459991397456521  0.1819529114350757  0.17610727382485447  1.0000
  C   C5        1.0  0.1655814515342087  0.7061100385185098  0.8583730657450206  1.0000
  C   C6        1.0  0.253975643053721  0.6701696632169457  0.8533670574173303  1.0000
  C   C7        1.0  0.2916869358659255  0.7006380455769871  0.8978605071211377  1.0000
  C   C8        1.0  0.22734504902880562  0.7560584608851783  0.9308713657545697  1.0000
  C   C9        1.0  0.753467951660049  0.5502630061860856  0.46425027838607497  1.0000
  C   C10       1.0  0.0096407454442371  0.37135797211846716  0.38528484767807925  1.0000
  C   C11       1.0  0.6411077402501987  0.4370172387165141  0.6841395511789444  1.0000
  C   C12       1.0  0.00038961012727868475  0.6578211786562704  0.7491513719266935  1.0000
  C   C13       1.0  0.1666569881520772  0.430712271893718  0.6951192476459767  1.0000
  C   C14       1.0  0.2776805003021607  0.5219688629268547  0.493454962426668  1.0000
  C   C15       1.0  0.621234930495845  0.6088368971158714  0.26933447648125514  1.0000
  C   C16       1.0  0.5629350855178998  0.5783250421649839  0.24033127288794995  1.0000
  C   C17       1.0  0.5064780602829373  0.533925752167633  0.28978161178363143  1.0000
  C   C18       1.0  0.528824785786341  0.5370572323810805  0.3501481352128766  1.0000
  C   C19       1.0  0.41999083871649384  0.27271513590473967  0.8408904305525767  1.0000
  C   C20       1.0  0.328913862708113  0.24569027914890995  0.8609111063647247  1.0000
  C   C21       1.0  0.27283776120007264  0.28164951851270087  0.8274777986800572  1.0000
  C   C22       1.0  0.3290301119945127  0.3311411616439699  0.7865443465657407  1.0000
  C   C23       1.0  0.8806059423016422  0.8548158744488603  0.9779521061903012  1.0000
  C   C24       1.0  0.8455122186312847  0.05143254403752451  0.0918167433995265  1.0000
  C   C25       1.0  0.6583811497237234  0.7776998452300958  0.1687459719390745  1.0000
  C   C26       1.0  0.31922351501271606  0.8809873425762761  0.039636346858444006  1.0000
  C   C27       1.0  0.27817166817571604  0.0878770579800019  0.14551239587727588  1.0000
  C   C28       1.0  0.5357258284861925  0.15554627806368876  0.9473644726910282  1.0000
  C   C29       1.0  0.49260752285452014  0.24770541210203592  0.86586467351151  1.0000
  C   C30       1.0  0.5227525827032621  0.20777679174378252  0.9012235076229659  1.0000
  C   C31       1.0  0.6760798669025903  0.717423595302904  0.2046737646668433  1.0000
  C   C32       1.0  0.6673341170217382  0.6666958359619457  0.24071257904391533  1.0000
  C   C33       1.0  0.6974231716486657  0.5684809438882112  0.4199324129250286  1.0000
  C   C34       1.0  0.6569901780305756  0.5809394994332776  0.3780274015358459  1.0000
  C   C35       1.0  0.4635979875947243  0.5230962469007422  0.41738512837067543  1.0000
  C   C36       1.0  0.38342993880123544  0.5163966000554864  0.46428613316201967  1.0000
  C   C37       1.0  0.5576588288288278  0.39933777748678506  0.7243800258903761  1.0000
  C   C38       1.0  0.49449478088745014  0.3637180049015499  0.7594592998016553  1.0000
  C   C39       1.0  0.2405342297140578  0.4079636114172374  0.7225113203559773  1.0000
  C   C40       1.0  0.29624509122442066  0.3786948598914464  0.7477573576074052  1.0000
  C   C41       1.0  0.06318434247730666  0.796915336079948  0.9319338987670208  1.0000
  C   C42       1.0  0.9802861866630294  0.8245887812748262  0.9502849161810758  1.0000
  C   C43       1.0  0.2414723201682988  0.8037442338169996  0.9741759273820849  1.0000
  C   C44       1.0  0.2675966876134622  0.8410023573156096  0.009003342305646794  1.0000
  C   C45       1.0  0.10039193456723439  0.6952795916484433  0.8252936900893177  1.0000
  C   C46       1.0  0.05020968526772409  0.6807738316382128  0.7925934388917855  1.0000
  C   C47       1.0  0.9153821355725142  0.08546208801731578  0.10960851848163598  1.0000
  C   C48       1.0  0.9470638077943576  0.12545103762997203  0.13784307193484582  1.0000
  C   C49       1.0  0.10502909588145568  0.16121655944130006  0.18750499586742111  1.0000
  C   C50       1.0  0.1837400150999713  0.12732389684759227  0.16820737045890874  1.0000
  C   C51       1.0  0.02525998084546899  0.32358020008707206  0.33064203764555344  1.0000
  C   C52       1.0  0.020506641832021402  0.28372698491983067  0.2881505331778698  1.0000
  N   N1        1.0  0.016570038609295103  0.1958432089736348  0.20379771087547746  1.0000
  N   N2        1.0  0.14906369006908438  0.7592200519994279  0.9065926671600553  1.0000
  N   N3        1.0  0.6046826808779356  0.5803122482681856  0.3362654509891669  1.0000
  N   N4        1.0  0.4201621274768073  0.32593239159486126  0.7947070990136779  1.0000
  O   O1        1.0  0.8218089166053415  0.3275687131588825  0.5502919796595053  1.0000
  O   O2        1.0  0.756942987227866  0.48924752882452766  0.4831315278351198  1.0000
  O   O3        1.0  0.6807916754528591  0.4258543813215994  0.6181112047104734  1.0000
  O   O4        1.0  0.0855112333774457  0.39816219764549027  0.3868475896296673  1.0000
  O   O5        1.0  0.6692414720644492  0.4754698144241233  0.720200375956715  1.0000
  O   O6        1.0  0.9207154234416066  0.3836483499471512  0.4266507052014177  1.0000
  O   O7        1.0  0.7967509130792436  0.5971282230526  0.4787237004468637  1.0000
  O   O8        1.0  0.8262872303422242  0.5209800956419385  0.5933896985009213  1.0000
  O   O9        1.0  0.9481916703632293  0.5002040432000712  0.4659692404879153  1.0000
  O   O10       1.0  0.8443348429262159  0.4058779420961187  0.6537705263051167  1.0000
  O   O11       1.0  0.9866296354988652  0.40666176583695085  0.5390646808332136  1.0000
  O   O12       1.0  0.19437488823997737  0.3601828885945223  0.46051158479748006  1.0000
  O   O13       1.0  0.7743791549458762  0.6721894792478267  0.5924637400012784  1.0000
  O   O14       1.0  0.0430250979968676  0.5476014280137136  0.5303384261885357  1.0000
  O   O15       1.0  0.9135199225474084  0.5991760449985434  0.6449824446712783  1.0000
  O   O16       1.0  0.9670769650570108  0.48012964531974933  0.672667923685438  1.0000
  O   O17       1.0  0.12418059271045927  0.44359092765571256  0.5702471454894111  1.0000
  O   O18       1.0  0.7451488049654813  0.5863794410661639  0.7622193555278401  1.0000
  O   O19       1.0  0.9284400154346951  0.6901768682329178  0.7418411521777417  1.0000
  O   O20       1.0  0.04139435958651919  0.5997993059535887  0.7198504308322882  1.0000
  O   O21       1.0  0.940116441434377  0.28388613702564663  0.6129984473333109  1.0000
  O   O22       1.0  0.1614504186308707  0.4914042892468374  0.676613071729321  1.0000
  O   O23       1.0  0.8073013098115355  0.4487977807769711  0.7919480003201687  1.0000
  O   O24       1.0  0.9284977600682255  0.3490020346097538  0.7413961441211399  1.0000
  O   O25       1.0  0.12383033158794629  0.3052976766848872  0.580498825111981  1.0000
  O   O26       1.0  0.11295944131665443  0.38492325299805685  0.6919074616618632  1.0000
  O   O27       1.0  0.09269468773486268  0.6582782346034648  0.5899653957018602  1.0000
  O   O28       1.0  0.12950051932010348  0.5330959457572604  0.3768591859855945  1.0000
  O   O29       1.0  0.2290300859533332  0.5532616871712861  0.5511099645987443  1.0000
  O   O30       1.0  0.24161995918607462  0.49412208324710594  0.45403029690994856  1.0000
  O   O31       1.0  0.9937297078208189  0.6256581157439456  0.4223466719896507  1.0000
  O   O32       1.0  0.959040162004385  0.6924245059979625  0.5407402629174315  1.0000
  O   O33       1.0  0.6974229982444414  0.9428023275360288  0.21934954491662492  1.0000
  O   O34       1.0  0.8472487082032815  0.8708711829035707  0.04285222778339904  1.0000
  O   O35       1.0  0.7154749201960225  0.8238753378686284  0.1585706820889285  1.0000
  O   O36       1.0  0.7929260243197404  0.09134219522816518  0.06714960128247327  1.0000
  O   O37       1.0  0.5828049646744445  0.778237833500107  0.1519010252329878  1.0000
  O   O38       1.0  0.8384578295700248  0.989552125410235  0.10433982365128718  1.0000
  O   O39       1.0  0.8354210955656142  0.8627011407290935  0.9351589553007784  1.0000
  O   O40       1.0  0.646810930069485  0.8853730041369728  0.049997875803249804  1.0000
  O   O41       1.0  0.7598220048156322  0.9807284248649425  0.006632239049245874  1.0000
  O   O42       1.0  0.5377412787126872  0.9116875107447909  0.18155305833665378  1.0000
  O   O43       1.0  0.6236390143693668  0.016542041986724605  0.12348057305305112  1.0000
  O   O44       1.0  0.6171750739739393  0.16258214955400518  0.10579247800018979  1.0000
  O   O45       1.0  0.6778286484059278  0.8086989060619275  0.9254727580168591  1.0000
  O   O46       1.0  0.6074762697120093  0.013778977498198203  0.9797951215900511  1.0000
  O   O47       1.0  0.5281488751730946  0.9078682735513862  0.9834066712181625  1.0000
  O   O48       1.0  0.4448614942403851  0.9627477987272214  0.10885946095378779  1.0000
  O   O49       1.0  0.49432805679058595  0.0830510402084812  0.08473303312968027  1.0000
  O   O50       1.0  0.5344500347933233  0.7745758396031945  0.035601921308966694  1.0000
  O   O51       1.0  0.3582198573108357  0.8495167735239303  0.07946126545017763  1.0000
  O   O52       1.0  0.3281399415963051  0.942047156284815  0.021296516501067172  1.0000
  O   O53       1.0  0.5402721067350312  0.0187182738974911  0.2691279307758307  1.0000
  O   O54       1.0  0.31375686335801584  0.06821316645520173  0.08107180978144164  1.0000
  O   O55       1.0  0.3962567535605927  0.808955003764183  0.19161898233203092  1.0000
  O   O56       1.0  0.3702032039617221  0.9874921218123092  0.275740975094898  1.0000
  O   O57       1.0  0.4767241834054304  0.1296740519910173  0.2119824271722806  1.0000
  O   O58       1.0  0.31776182751581666  0.0771210822741395  0.19099879214559226  1.0000
  O   O59       1.0  0.42530219343964853  0.0070988836844634  0.9148362454937883  1.0000
  O   O60       1.0  0.7810120068941514  0.10087311543373541  0.9382477660925731  1.0000
  O   O61       1.0  0.47292518440327297  0.11109440556529646  0.9587097345231046  1.0000
  O   O62       1.0  0.6005776834655663  0.15737547089899806  0.9734447292082963  1.0000
  O   O63       1.0  0.8054283389905875  0.992241857405297  0.8705204881356536  1.0000
  O   O64       1.0  0.6887196371242155  0.9209153172926959  0.8460328437147738  1.0000
