data_image0
_chemical_formula_structural       C48F16N16Zn4
_chemical_formula_sum              "C48 F16 N16 Zn4"
_cell_length_a       19.675819747269866
_cell_length_b       19.675708338927887
_cell_length_c       19.67563666695816
_cell_angle_alpha    102.19066865660766
_cell_angle_beta     113.22971384470267
_cell_angle_gamma    113.23108438064402

_space_group_name_H-M_alt    "P 1"
_space_group_IT_number       1

loop_
  _space_group_symop_operation_xyz
  'x, y, z'

loop_
  _atom_site_type_symbol
  _atom_site_label
  _atom_site_symmetry_multiplicity
  _atom_site_fract_x
  _atom_site_fract_y
  _atom_site_fract_z
  _atom_site_occupancy
  C   C1        1.0  0.07060014870103962  0.251677136275326  0.9982168164653942  1.0000
  C   C2        1.0  0.7465794752080231  0.92771032906969  0.9981934793737255  1.0000
  C   C3        1.0  0.07056100298281347  0.8188865459910414  0.07235053407179494  1.0000
  C   C4        1.0  0.9295553700504514  0.18114499522034314  0.9277373672365459  1.0000
  C   C5        1.0  0.7465618519458347  0.7483492578159529  0.8189097085520417  1.0000
  C   C6        1.0  0.2534173599822296  0.2516036663853497  0.1811342130515143  1.0000
  C   C7        1.0  0.9294222927523921  0.0018062123425083532  0.7483271811018355  1.0000
  C   C8        1.0  0.07048071976225864  0.9981838758974034  0.25158718969861144  1.0000
  C   C9        1.0  0.9295074500248578  0.7483766116678011  0.0018133975170541536  1.0000
  C   C10       1.0  0.7465519938890068  0.998225872941205  0.9276483557311933  1.0000
  C   C11       1.0  0.25340320471706695  0.0018027845815496134  0.07228934401721433  1.0000
  C   C12       1.0  0.9294091550550978  0.9276260177851441  0.18106539823485696  1.0000
  C   C13       1.0  0.07046891804595393  0.07229524160844389  0.8188669652451495  1.0000
  C   C14       1.0  0.2534614667650246  0.1810931368460231  0.2516788090930291  1.0000
  C   C15       1.0  0.7465948691838022  0.8188906645427138  0.7483992217682954  1.0000
  C   C16       1.0  0.2534348366268588  0.07235088983690469  0.0017740103846009146  1.0000
  C   C17       1.0  6.574265686492735e-05  0.26265543287422594  0.9647141050586754  1.0000
  C   C18       1.0  2.3229061284375155e-05  0.7373725849636515  0.03532381266948919  1.0000
  C   C19       1.0  0.702054150139922  0.9647110684722972  0.9646721373708473  1.0000
  C   C20       1.0  0.2979398413578238  0.035329020816035867  0.035294542822569476  1.0000
  C   C21       1.0  0.9999535917299127  0.9646543405062498  0.2625928159288479  1.0000
  C   C22       1.0  0.999952344925447  0.035303561245918144  0.7373325960409433  1.0000
  C   C23       1.0  0.29794717385012603  0.2626116749835816  0.262662070170613  1.0000
  C   C24       1.0  0.7020629804244012  0.7373719100476777  0.7373926539455484  1.0000
  C   C25       1.0  0.36390231759913416  0.3344501070639794  0.3344810910787288  1.0000
  C   C26       1.0  0.6361119933525003  0.665552874389675  0.6655583932518851  1.0000
  C   C27       1.0  5.344289202463467e-05  0.3344742942176779  0.9705765165535212  1.0000
  C   C28       1.0  1.0590537279135333e-05  0.6655440293979494  0.029452630792420033  1.0000
  C   C29       1.0  0.6360890321489379  0.9705724282847185  0.9705576499888267  1.0000
  C   C30       1.0  0.3639008027323314  0.02944954006499498  0.02943108726818621  1.0000
  C   C31       1.0  0.9999697714396593  0.9705212848531913  0.33443850062011665  1.0000
  C   C32       1.0  0.9999708014901363  0.02943597537358769  0.6655116693941139  1.0000
  C   C33       1.0  0.41783711661823725  0.3982778721536205  0.39829323447562354  1.0000
  C   C34       1.0  0.5821868926612196  0.6017367077066068  0.6017370664721966  1.0000
  C   C35       1.0  2.7599791053339896e-05  0.3982713285088407  0.9804543229454054  1.0000
  C   C36       1.0  4.56781191347689e-06  0.6017224610258436  0.01956830139085504  1.0000
  C   C37       1.0  0.5821556996895582  0.980449264463253  0.9804432976462183  1.0000
  C   C38       1.0  0.4178179711905942  0.019552031770821477  0.01954185479986852  1.0000
  C   C39       1.0  0.9999883064171727  0.9804182914329899  0.3982659357719173  1.0000
  C   C40       1.0  0.9999836698821911  0.019532657876993816  0.601693624778889  1.0000
  C   C41       1.0  0.4745023200366776  0.46787046366787177  0.4678766544181557  1.0000
  C   C42       1.0  0.5255212271509963  0.5321353812728589  0.5321352134640094  1.0000
  C   C43       1.0  1.2516579651878324e-05  0.4678626628825384  0.9933874077087738  1.0000
  C   C44       1.0  5.7963923651509805e-06  0.5321232798946622  0.0066356826700086574  1.0000
  C   C45       1.0  0.5254898842780662  0.9933715998358607  0.9933703174657608  1.0000
  C   C46       1.0  0.47447547359893605  0.006615085230407704  0.006612231080303806  1.0000
  C   C47       1.0  0.9999953889467297  0.993356164930674  0.46785480094789034  1.0000
  C   C48       1.0  0.9999913655045136  0.006596337239230396  0.5321090832290453  1.0000
  F   F1        1.0  0.15484797263250272  0.30962941478210837  0.036967722930811  1.0000
  F   F2        1.0  0.7274195205429382  0.882253412858688  0.036995210740570925  1.0000
  F   F3        1.0  0.1548057161173163  0.8451745410796149  0.11782673373952701  1.0000
  F   F4        1.0  0.8452963403864332  0.15483860189757345  0.8822903364837203  1.0000
  F   F5        1.0  0.727375546433045  0.6903927115340948  0.8451944877900318  1.0000
  F   F6        1.0  0.2725621019068571  0.3095550879301854  0.15483322585618714  1.0000
  F   F7        1.0  0.8451661721524886  0.9630428659734915  0.6903607882756545  1.0000
  F   F8        1.0  0.15473129921132775  0.03698002878837772  0.3095411311784915  1.0000
  F   F9        1.0  0.8452577787771104  0.6904318146332783  0.9630191727901051  1.0000
  F   F10       1.0  0.7273530715240785  0.03699013702242133  0.8821702662600404  1.0000
  F   F11       1.0  0.27255779205510344  0.9630083828211012  0.11774837974289211  1.0000
  F   F12       1.0  0.8451687466799599  0.8821436016502489  0.15478643639299625  1.0000
  F   F13       1.0  0.15474257668749664  0.11775182737586938  0.8451653543506623  1.0000
  F   F14       1.0  0.27266348395910006  0.15480867054248657  0.30963676018873804  1.0000
  F   F15       1.0  0.7274404194024413  0.8451935296605199  0.6904453527933612  1.0000
  F   F16       1.0  0.2726391262302598  0.1178293494996794  0.9630104474833417  1.0000
  N   N1        1.0  0.04560405713380065  0.17414220248878112  0.9854045750567053  1.0000
  N   N2        1.0  0.8112781820354444  0.9398834992972525  0.9853393556283623  1.0000
  N   N3        1.0  0.04556028910104695  0.8714248481180318  0.060185948245454375  1.0000
  N   N4        1.0  0.9545680913316306  0.12861258696514713  0.9399161595248486  1.0000
  N   N5        1.0  0.8112751999507637  0.8258873738781459  0.8714474196358921  1.0000
  N   N6        1.0  0.18871694255278026  0.17405231620402617  0.12860081672046425  1.0000
  N   N7        1.0  0.9544177896124071  0.014628646552012053  0.8258752360862618  1.0000
  N   N8        1.0  0.04545705196161239  0.985351584648441  0.1740426705760001  1.0000
  N   N9        1.0  0.954525709068449  0.8259194670865638  0.014658498437071973  1.0000
  N   N10       1.0  0.8112586050027629  0.985386983929146  0.9398078915287018  1.0000
  N   N11       1.0  0.18869012804458413  0.014640103327735696  0.0601079181043715  1.0000
  N   N12       1.0  0.9544155441170048  0.9398147954942856  0.12853322697127115  1.0000
  N   N13       1.0  0.04546252940867375  0.0601256446973509  0.871402615592558  1.0000
  N   N14       1.0  0.18875129757259404  0.1285432196736949  0.1741340578367243  1.0000
  N   N15       1.0  0.8113041142739167  0.8714173632854596  0.825948463527631  1.0000
  N   N16       1.0  0.18871858073249115  0.060180543001351276  0.01460047782631342  1.0000
  Zn  Zn1       1.0  0.12084383314181214  0.12083508016935002  0.9999984272104143  1.0000
  Zn  Zn2       1.0  0.8791583081409019  0.8791591679532685  0.9999947015342202  1.0000
  Zn  Zn3       1.0  0.8791699771899819  1.4642356142001555e-05  0.8791714666677282  1.0000
  Zn  Zn4       1.0  0.12083186460269954  0.9999904017032363  0.12083082602185864  1.0000
