data_image0
_chemical_formula_structural       Zn3H12C6O18
_chemical_formula_sum              "Zn3 H12 C6 O18"
_cell_length_a       7.10570778150962
_cell_length_b       7.105521894312854
_cell_length_c       9.734393368097619
_cell_angle_alpha    89.9727067344979
_cell_angle_beta     90.02737507497491
_cell_angle_gamma    120.01380368665335

_space_group_name_H-M_alt    "P 1"
_space_group_IT_number       1

loop_
  _space_group_symop_operation_xyz
  'x, y, z'

loop_
  _atom_site_type_symbol
  _atom_site_label
  _atom_site_symmetry_multiplicity
  _atom_site_fract_x
  _atom_site_fract_y
  _atom_site_fract_z
  _atom_site_occupancy
  Zn  Zn1       1.0  0.6285514234678972  0.00013480433349870189  0.3333110596213942  1.0000
  Zn  Zn2       1.0  0.00012421150142220936  0.6285335023157329  0.6666861866152374  1.0000
  Zn  Zn3       1.0  0.3713580643017451  0.3713645952704566  7.141413867400023e-06  1.0000
  H   H1        1.0  0.28315958078987785  0.9324134964985971  0.1820791415986989  1.0000
  H   H2        1.0  0.06760042087459787  0.35114888030071256  0.5153045961288215  1.0000
  H   H3        1.0  0.6490254682979925  0.7161541326296401  0.8484855202205921  1.0000
  H   H4        1.0  0.3511480001848213  0.06757551494470691  0.48470134507955737  1.0000
  H   H5        1.0  0.7161438030002002  0.6490223949289982  0.15151058291726124  1.0000
  H   H6        1.0  0.9324171373082207  0.2831775955938408  0.8179165661267476  1.0000
  H   H7        1.0  0.2864500711173649  0.707631955861217  0.1748868557628072  1.0000
  H   H8        1.0  0.2925968962863124  0.5792156005705422  0.5083283995850962  1.0000
  H   H9        1.0  0.4211586258352043  0.7133216883433134  0.8414713729852252  1.0000
  H   H10       1.0  0.5792327005589826  0.29260444294578764  0.49167667886510463  1.0000
  H   H11       1.0  0.7133240256564053  0.4211592823962961  0.1585313145907463  1.0000
  H   H12       1.0  0.7076258724413547  0.2864642166307476  0.8251031308048198  1.0000
  C   C1        1.0  0.9279851606069799  0.9279654821842841  0.49999870209909153  1.0000
  C   C2        1.0  0.07235073559922967  0.9997908438044476  0.8333625570314497  1.0000
  C   C3        1.0  0.9997878107521599  0.0723546841752239  0.1666194191272794  1.0000
  C   C4        1.0  0.7096019890652415  0.7096028435962438  0.49999606865157636  1.0000
  C   C5        1.0  0.2906801301410129  0.9999201912466945  0.8334814665059725  1.0000
  C   C6        1.0  0.9999216003164622  0.2907134779998585  0.1665247089824788  1.0000
  O   O1        1.0  0.5481066875754904  0.7088956455310792  0.4440669424767947  1.0000
  O   O2        1.0  0.29144887137257314  0.8393082321873137  0.7774536169391197  1.0000
  O   O3        1.0  0.16066485328211394  0.4520389715489586  0.1104555319635594  1.0000
  O   O4        1.0  0.8392918954887705  0.291437285038512  0.22255522345205486  1.0000
  O   O5        1.0  0.4520485951813881  0.1606636250077357  0.8895262634888822  1.0000
  O   O6        1.0  0.7089066593144439  0.5481035585606833  0.5559216880515763  1.0000
  O   O7        1.0  0.9202799551971451  0.09480648085601469  0.4634934213881223  1.0000
  O   O8        1.0  0.9054875987456089  0.8252109611411031  0.7969473868033958  1.0000
  O   O9        1.0  0.1742652417859745  0.0799131764936547  0.1302887939169395  1.0000
  O   O10       1.0  0.825201251344602  0.9055078287400775  0.203043512335185  1.0000
  O   O11       1.0  0.0799359656187164  0.1742936133854585  0.8697074632753115  1.0000
  O   O12       1.0  0.0948375783643837  0.9202715294697722  0.5364945756843156  1.0000
  O   O13       1.0  0.36477801786422503  0.8587411664290838  0.21029512070008852  1.0000
  O   O14       1.0  0.14130487099647135  0.5064792776381211  0.5434382443288754  1.0000
  O   O15       1.0  0.4936205854002154  0.6343748587246338  0.8764113134620359  1.0000
  O   O16       1.0  0.5064893841042489  0.1412819714253857  0.456590902278414  1.0000
  O   O17       1.0  0.6343594625759648  0.49360501617732666  0.12359752044550731  1.0000
  O   O18       1.0  0.8587402709232635  0.3647948836007374  0.7897057438380699  1.0000
