data_image0
_chemical_formula_structural       Al2H30C48O24
_chemical_formula_sum              "Al2 H30 C48 O24"
_cell_length_a       3.9676849842494812
_cell_length_b       28.49055807641842
_cell_length_c       28.49011491316021
_cell_angle_alpha    119.99949047721458
_cell_angle_beta     89.998937345366
_cell_angle_gamma    89.9999225468695

_space_group_name_H-M_alt    "P 1"
_space_group_IT_number       1

loop_
  _space_group_symop_operation_xyz
  'x, y, z'

loop_
  _atom_site_type_symbol
  _atom_site_label
  _atom_site_symmetry_multiplicity
  _atom_site_fract_x
  _atom_site_fract_y
  _atom_site_fract_z
  _atom_site_occupancy
  Al  Al1       1.0  0.010434041134708102  0.5000022784264717  0.4999985379633928  1.0000
  Al  Al2       1.0  0.0104517333958967  0.16666641865352028  0.8333321325821643  1.0000
  H   H1        1.0  0.19690171115846064  0.24303667402656265  0.655344080256036  1.0000
  H   H2        1.0  0.771204466714309  0.36821300788178485  0.789257050385835  1.0000
  H   H3        1.0  0.7711629842198847  0.29845253049220594  0.5440704353748131  1.0000
  H   H4        1.0  0.19685136656220692  0.4236304401201141  0.6779871347707385  1.0000
  H   H5        1.0  0.5045167959509984  0.3866554714567415  0.7212663382731038  1.0000
  H   H6        1.0  0.504431291519296  0.2800091628654045  0.6120558152575555  1.0000
  H   H7        1.0  0.19690404084688137  0.9123132056677505  0.7569703167994248  1.0000
  H   H8        1.0  0.7711715197878136  0.9210410126727526  0.6317805871018578  1.0000
  H   H9        1.0  0.7711552753827962  0.7456185214875861  0.7015522324836567  1.0000
  H   H10       1.0  0.1968083802272318  0.7543562049194179  0.5763789910775755  1.0000
  H   H11       1.0  0.5044786356269029  0.8346094093585279  0.6133448543175177  1.0000
  H   H12       1.0  0.5044287948397611  0.8320554261052138  0.720000997417074  1.0000
  H   H13       1.0  0.1969082219613298  0.3446540671885927  0.08768395125605367  1.0000
  H   H14       1.0  0.7712015788978023  0.2107398171367478  0.07895689587729045  1.0000
  H   H15       1.0  0.7711484093192597  0.45593615260283843  0.2543795584458977  1.0000
  H   H16       1.0  0.19689292344334322  0.3220172040562446  0.2456414466756485  1.0000
  H   H17       1.0  0.5045135763427098  0.2787350636630778  0.16538929010059894  1.0000
  H   H18       1.0  0.5044724961979057  0.38794341783891195  0.16794403190105103  1.0000
  H   H19       1.0  0.8547081457659687  0.28658461222283926  0.848501039303443  1.0000
  H   H20       1.0  0.1635359586328775  0.16466919026841975  0.718497588123263  1.0000
  H   H21       1.0  0.1635258368723385  0.5020007325150007  0.6148295999305375  1.0000
  H   H22       1.0  0.8547038167788018  0.38008046501402504  0.4848250383643347  1.0000
  H   H23       1.0  0.85469302575612  0.061911939604094315  0.713406765642098  1.0000
  H   H24       1.0  0.1635339172087811  0.053837514452823115  0.8353347944333223  1.0000
  H   H25       1.0  0.1635077146506205  0.6128336600726955  0.4980037778582441  1.0000
  H   H26       1.0  0.8546634885291482  0.604753365532794  0.6199239982584716  1.0000
  H   H27       1.0  0.8546979442148057  0.15149437775773583  0.9380814413213016  1.0000
  H   H28       1.0  0.16351785084872006  0.2814992964344753  0.9461651167141625  1.0000
  H   H29       1.0  0.16354142402363442  0.38516994956838607  0.3871662581379097  1.0000
  H   H30       1.0  0.8546837738554559  0.5151737643860488  0.3952464854139137  1.0000
  C   C1        1.0  0.5096099937317646  0.4611303607624322  0.4152196582739265  1.0000
  C   C2        1.0  0.5095918250496894  0.45409056112566765  0.5388699562554535  1.0000
  C   C3        1.0  0.5095755384753602  0.5847821412844214  0.5459091108414427  1.0000
  C   C4        1.0  0.5095990108082304  0.21257510153911605  0.7944560543581857  1.0000
  C   C5        1.0  0.5096026950561736  0.08188408568077686  0.7874247594644216  1.0000
  C   C6        1.0  0.509585882488885  0.2055377442900479  0.9181116318391601  1.0000
  C   C7        1.0  0.5056612183733195  0.2448728243774597  0.7684956768918525  1.0000
  C   C8        1.0  0.3312152831349806  0.22675547978965244  0.7182640430759122  1.0000
  C   C9        1.0  0.33474778997914006  0.25784072745172903  0.6931918346614623  1.0000
  C   C10       1.0  0.48845511265639635  0.30914761941352964  0.7187776649992941  1.0000
  C   C11       1.0  0.6479401659370153  0.32875845183215097  0.7691430373767005  1.0000
  C   C12       1.0  0.6709471627721086  0.2964210678383027  0.7928208149864416  1.0000
  C   C13       1.0  0.4871762377869473  0.3429041242507014  0.6936673239168273  1.0000
  C   C14       1.0  0.48712192109804425  0.32376187930100303  0.6396598748291709  1.0000
  C   C15       1.0  0.6478880553754964  0.3379075464372435  0.5641818671378687  1.0000
  C   C16       1.0  0.48840373341452903  0.35751954318951834  0.6145490695252604  1.0000
  C   C17       1.0  0.3346798952228696  0.4088271828361486  0.6401371143989039  1.0000
  C   C18       1.0  0.3311805938298562  0.43991188378375784  0.6150647703028368  1.0000
  C   C19       1.0  0.5056434065894635  0.42179515464598444  0.5648322512430966  1.0000
  C   C20       1.0  0.6709179794301079  0.3702466943678361  0.5405050053072387  1.0000
  C   C21       1.0  0.5056557238984639  0.023627039179992176  0.755127301179286  1.0000
  C   C22       1.0  0.3312025225294947  0.99151297219737  0.7732457478768991  1.0000
  C   C23       1.0  0.3347132095791282  0.9353571879440494  0.7421631793945521  1.0000
  C   C24       1.0  0.4884259987858642  0.9096328435923484  0.690852749709478  1.0000
  C   C25       1.0  0.6478878665301694  0.940385984859958  0.6712396165733522  1.0000
  C   C26       1.0  0.6709190236650288  0.9963980490527433  0.7035742903870883  1.0000
  C   C27       1.0  0.48713054665771693  0.8507650840943983  0.6571007381427663  1.0000
  C   C28       1.0  0.4871093129136029  0.8159055245103846  0.6762464568057353  1.0000
  C   C29       1.0  0.647844250683427  0.7262768026347146  0.6620962523697784  1.0000
  C   C30       1.0  0.4883896705001902  0.7570357253743082  0.6424887557893442  1.0000
  C   C31       1.0  0.3346536562090421  0.7313127764096022  0.5911819989606711  1.0000
  C   C32       1.0  0.33113253504646434  0.6751560944501377  0.5600989438013855  1.0000
  C   C33       1.0  0.505611095027291  0.643038370443847  0.5782102165197572  1.0000
  C   C34       1.0  0.6708852997338611  0.6702643023458422  0.6297590783547591  1.0000
  C   C35       1.0  0.5056627530529171  0.23149844379384643  0.9763688265914608  1.0000
  C   C36       1.0  0.33120365897971743  0.2817295618927176  0.008486348398619713  1.0000
  C   C37       1.0  0.3347409420936103  0.306805125098002  0.06464168503988793  1.0000
  C   C38       1.0  0.4884562297835869  0.2812185990654116  0.09036476660225647  1.0000
  C   C39       1.0  0.6479343873213567  0.23085546432083962  0.05961175989064323  1.0000
  C   C40       1.0  0.6709440539775287  0.20717589631345135  0.0035955801422104857  1.0000
  C   C41       1.0  0.48716180154011113  0.3063357157961946  0.14923460573477598  1.0000
  C   C42       1.0  0.487154180194338  0.3603399521532468  0.18409390449212282  1.0000
  C   C43       1.0  0.6478814119977869  0.4358194527453351  0.2737222217924541  1.0000
  C   C44       1.0  0.488445642642013  0.38545413525869787  0.24296526614323713  1.0000
  C   C45       1.0  0.33471968837857713  0.35986440196434444  0.2686853913661054  1.0000
  C   C46       1.0  0.3311949187480465  0.3849358251713113  0.3248434838077117  1.0000
  C   C47       1.0  0.5056443920975866  0.43517047960504135  0.3569616671212756  1.0000
  C   C48       1.0  0.670916227578644  0.45949520856454745  0.329735767624328  1.0000
  O   O1        1.0  0.7421742379921669  0.5576614402902395  0.554387750906919  1.0000
  O   O2        1.0  0.7421920093072886  0.49673274937455864  0.4423397307770641  1.0000
  O   O3        1.0  0.7421832394713805  0.44561277858846904  0.5032689050554993  1.0000
  O   O4        1.0  0.280162209000828  0.5600827252150965  0.5088909787813733  1.0000
  O   O5        1.0  0.2801623206035729  0.4911063807678531  0.5511858261274368  1.0000
  O   O6        1.0  0.2801673387904914  0.448813151294374  0.43991762339978646  1.0000
  O   O7        1.0  0.7421693242936342  0.16993605932621858  0.8909902620957267  1.0000
  O   O8        1.0  0.7421906960377171  0.22105235728740533  0.8300598467359067  1.0000
  O   O9        1.0  0.7421870956351881  0.10900474857308501  0.7789420538931467  1.0000
  O   O10       1.0  0.28015390221550973  0.217853096893869  0.8934125896947408  1.0000
  O   O11       1.0  0.2801590319185863  0.10658361702114404  0.824440544258067  1.0000
  O   O12       1.0  0.2801841243630393  0.17555873492165125  0.7821392014495386  1.0000
  O   O13       1.0  0.842257965458991  0.3162086047785593  0.8399178455472976  1.0000
  O   O14       1.0  0.1657655486334519  0.17888179321912662  0.6931304917497342  1.0000
  O   O15       1.0  0.1657522457165612  0.48778917815271694  0.6401977412660571  1.0000
  O   O16       1.0  0.8422528266896664  0.3504563486252579  0.4934077233136093  1.0000
  O   O17       1.0  0.842234510946163  0.023705722411968135  0.6837815507491739  1.0000
  O   O18       1.0  0.16575046131914922  0.014257812473943058  0.8211223226831237  1.0000
  O   O19       1.0  0.16570180271927631  0.6524148014257777  0.5122197118905377  1.0000
  O   O20       1.0  0.8422031902284245  0.6429586880782026  0.649551581225097  1.0000
  O   O21       1.0  0.8422624447766796  0.16007911064787822  0.9762895516425588  1.0000
  O   O22       1.0  0.16573051144477094  0.30686159427228427  0.9857459576420806  1.0000
  O   O23       1.0  0.1657494772170054  0.3598026500983238  0.3475868966957591  1.0000
  O   O24       1.0  0.842223143468061  0.5065947950176195  0.3570397007109917  1.0000
