data_image0
_chemical_formula_structural       Cu4Mo8H36C48N12O26
_chemical_formula_sum              "Cu4 Mo8 H36 C48 N12 O26"
_cell_length_a       8.28984153827976
_cell_length_b       13.458739201070534
_cell_length_c       15.027086937631736
_cell_angle_alpha    70.95484511542016
_cell_angle_beta     84.09965070529032
_cell_angle_gamma    73.91160128064155

_space_group_name_H-M_alt    "P 1"
_space_group_IT_number       1

loop_
  _space_group_symop_operation_xyz
  'x, y, z'

loop_
  _atom_site_type_symbol
  _atom_site_label
  _atom_site_symmetry_multiplicity
  _atom_site_fract_x
  _atom_site_fract_y
  _atom_site_fract_z
  _atom_site_occupancy
  Cu  Cu1       1.0  0.05486087127250268  0.7527972569797328  0.15011578265831824  1.0000
  Cu  Cu2       1.0  0.9451383476989507  0.2472027412999225  0.8498846652591895  1.0000
  Cu  Cu3       1.0  0.7782839803448095  0.30495187548148556  0.45953087243361784  1.0000
  Cu  Cu4       1.0  0.22171734856323858  0.6950489272241217  0.5404678892812881  1.0000
  Mo  Mo1       1.0  0.023746112572631296  0.04638868056693471  0.5907922958734417  1.0000
  Mo  Mo2       1.0  0.9762506847878639  0.9536113160153974  0.4092069572130088  1.0000
  Mo  Mo3       1.0  0.4126268182513968  0.0627861570160633  0.5857100958722228  1.0000
  Mo  Mo4       1.0  0.5873727284673578  0.9372130219094572  0.41428924426303126  1.0000
  Mo  Mo5       1.0  0.44284492110467977  0.8059571123314483  0.6424122464962212  1.0000
  Mo  Mo6       1.0  0.5571546202564264  0.19404207213590755  0.3575884232443444  1.0000
  Mo  Mo7       1.0  0.16618167494033284  0.18665406125612094  0.3719808698283913  1.0000
  Mo  Mo8       1.0  0.8338194049735461  0.8133443047057582  0.628019289545442  1.0000
  H   H1        1.0  0.558363145223332  0.5350415707512965  0.7739222448807652  1.0000
  H   H2        1.0  0.4416467487914772  0.46495597071339034  0.2260783294088995  1.0000
  H   H3        1.0  0.47867696175446645  0.3670175281968043  0.8744297367834692  1.0000
  H   H4        1.0  0.5213289694177943  0.6329808328469612  0.125570817844519  1.0000
  H   H5        1.0  0.5097235428023126  0.2107055580324158  0.8156959095421286  1.0000
  H   H6        1.0  0.4902765753002637  0.7892952438245333  0.18430225475724876  1.0000
  H   H7        1.0  0.6068809819277803  0.21965456642860204  0.6512247996543793  1.0000
  H   H8        1.0  0.3931158181115465  0.7803454273828122  0.3487737886294155  1.0000
  H   H9        1.0  0.7496083189957259  0.47797248039369583  0.3355459233534077  1.0000
  H   H10       1.0  0.25038815061747494  0.5220283355427782  0.6644544375153032  1.0000
  H   H11       1.0  0.8829934366466929  0.577387578429942  0.19259695378673325  1.0000
  H   H12       1.0  0.11700303564533238  0.42261323473561413  0.8074027422793223  1.0000
  H   H13       1.0  0.006516189026150687  0.7659191787630775  0.3338153329327512  1.0000
  H   H14       1.0  0.9934851398818976  0.2340816239425295  0.6661834287821621  1.0000
  H   H15       1.0  0.8841875554581619  0.6719479781582509  0.4822816693074187  1.0000
  H   H16       1.0  0.11581498425536545  0.32805282539602143  0.517717689823016  1.0000
  H   H17       1.0  0.13289498548724762  0.9607515857499962  0.1694511344020312  1.0000
  H   H18       1.0  0.8671072264789856  0.039250037158410606  0.8305493325106641  1.0000
  H   H19       1.0  0.22361571450954196  0.13216504734123194  0.114192531950053  1.0000
  H   H20       1.0  0.7763856170773239  0.8678357525934502  0.8858055649622044  1.0000
  H   H21       1.0  0.3316160547669256  0.1982964850224462  0.951483601896797  1.0000
  H   H22       1.0  0.6683816363670445  0.801704320679015  0.048514697176827305  1.0000
  H   H23       1.0  0.36129558189090727  0.090228892641818  0.8391895648919672  1.0000
  H   H24       1.0  0.6387005760479384  0.9097727260232847  0.16080791494307783  1.0000
  H   H25       1.0  0.1202630962472285  0.7924909126334183  0.8006493235321416  1.0000
  H   H26       1.0  0.8797345841714516  0.2075099041517205  0.1993516347520981  1.0000
  H   H27       1.0  0.10942042089438787  0.6236960615143018  0.7720040302604404  1.0000
  H   H28       1.0  0.8905787927194165  0.3763039423071959  0.22799774726237843  1.0000
  H   H29       1.0  0.2310804511801833  0.43851875414133457  0.04863681991647438  1.0000
  H   H30       1.0  0.7689220778180541  0.5614820604966085  0.9513651984245755  1.0000
  H   H31       1.0  0.25317614874995076  0.6000959821540377  0.08825634808880523  1.0000
  H   H32       1.0  0.7468248524107964  0.39990563990570394  0.9117435214083541  1.0000
  H   H33       1.0  0.6943128868430436  0.6197408975206998  0.5903944486627639  1.0000
  H   H34       1.0  0.30568940119749044  0.3802574720607624  0.4096069729292465  1.0000
  H   H35       1.0  0.3205562951135191  0.8807028623453094  0.838876350820449  1.0000
  H   H36       1.0  0.679440174499689  0.11929795359117182  0.16112401004826177  1.0000
  C   C1        1.0  0.631865402434272  0.46863808860095457  0.6572061956689126  1.0000
  C   C2        1.0  0.36813778205855385  0.5313610873287118  0.34279360710762324  1.0000
  C   C3        1.0  0.5718205229674425  0.46625375843202477  0.7482030338205874  1.0000
  C   C4        1.0  0.4281848394998136  0.5337429769094015  0.25179803184062177  1.0000
  C   C5        1.0  0.5281681464967748  0.3718781850536317  0.8034876484907372  1.0000
  C   C6        1.0  0.4718377873543034  0.6281201732192159  0.1965122413346023  1.0000
  C   C7        1.0  0.54291786271304  0.2834764268999379  0.7694060565373634  1.0000
  C   C8        1.0  0.4570822500318812  0.7165243804988465  0.23059343736731813  1.0000
  C   C9        1.0  0.5979840536806479  0.2868917410745482  0.6781798308234598  1.0000
  C   C10       1.0  0.4020148536164428  0.7131090599337353  0.32181773606038894  1.0000
  C   C11       1.0  0.6424118965477986  0.3814293820011655  0.6215875424164922  1.0000
  C   C12       1.0  0.3575909682341987  0.6185706049698821  0.3784113737343374  1.0000
  C   C13       1.0  0.7326886538781352  0.5068911141469955  0.5103160468520116  1.0000
  C   C14       1.0  0.2673102453824896  0.4931096951740486  0.48968351443980407  1.0000
  C   C15       1.0  0.8060720177790017  0.5644620082039324  0.42322935687560925  1.0000
  C   C16       1.0  0.1939265590919774  0.43553961492941085  0.5767699825931487  1.0000
  C   C17       1.0  0.8083741846577793  0.5394306225900891  0.33931595121271135  1.0000
  C   C18       1.0  0.19162528330785011  0.460571812433301  0.6606830990458762  1.0000
  C   C19       1.0  0.8820819612204644  0.5954832660106463  0.2584994336300639  1.0000
  C   C20       1.0  0.11791539948738711  0.4045183618158746  0.7415006380284768  1.0000
  C   C21       1.0  0.949552379933216  0.7010512333350789  0.33729244413839155  1.0000
  C   C22       1.0  0.050448943617190885  0.29894957491236346  0.6627076471818256  1.0000
  C   C23       1.0  0.8793337398607051  0.6477237136951928  0.4205315041717697  1.0000
  C   C24       1.0  0.12066693891039637  0.3522787221768554  0.5794681435023464  1.0000
  C   C25       1.0  0.20017603290025207  0.9284057560654589  0.0357438853239388  1.0000
  C   C26       1.0  0.7998216421607794  0.0715950662615157  0.964258402565605  1.0000
  C   C27       1.0  0.18368613809788298  0.9880393881547535  0.09847041344411174  1.0000
  C   C28       1.0  0.8163130862312187  0.011960604583066503  0.901528704868092  1.0000
  C   C29       1.0  0.2334190358887156  0.08455935578142261  0.0664890631981976  1.0000
  C   C30       1.0  0.7665826154089856  0.9154406331118851  0.9335099203397589  1.0000
  C   C31       1.0  0.2955607992320068  0.12164840695901089  0.9738765019494622  1.0000
  C   C32       1.0  0.7044393188705699  0.8783523948979308  0.02612166234991518  1.0000
  C   C33       1.0  0.3128435095352984  0.0630635687298096  0.9106194233688498  1.0000
  C   C34       1.0  0.6871538538513776  0.9369380563257864  0.089379983487035  1.0000
  C   C35       1.0  0.26500257613611927  0.9653612644791851  0.9434176273235906  1.0000
  C   C36       1.0  0.734993893477089  0.03463955145728901  0.05658273354512029  1.0000
  C   C37       1.0  0.20560203514903455  0.8072063493234509  0.9657694928365217  1.0000
  C   C38       1.0  0.794396861432773  0.19279446276851084  0.03423073325794228  1.0000
  C   C39       1.0  0.19129196225839717  0.7102057510533228  0.9467348627283271  1.0000
  C   C40       1.0  0.8087069316445862  0.2897950638095566  0.053266028168792424  1.0000
  C   C41       1.0  0.15008837083687607  0.715404962716093  0.8570278383359876  1.0000
  C   C42       1.0  0.8499093069029868  0.2845958568399638  0.14297378475090738  1.0000
  C   C43       1.0  0.14199187973542135  0.6201564976719497  0.8417158825797273  1.0000
  C   C44       1.0  0.858006120394087  0.37984350807180806  0.1582859623302113  1.0000
  C   C45       1.0  0.2085668628232682  0.5182752808370097  0.9947805171528968  1.0000
  C   C46       1.0  0.7914344580483076  0.4817255301813502  0.005220238969968718  1.0000
  C   C47       1.0  0.2195581024425906  0.6087066927463951  0.017347253305246096  1.0000
  C   C48       1.0  0.780444112202467  0.3912949273910939  0.9826525488047936  1.0000
  N   N1        1.0  0.6905484210548422  0.5451180919631753  0.5857491244955357  1.0000
  N   N2        1.0  0.3094559769222868  0.45488108204423133  0.4142506108938733  1.0000
  N   N3        1.0  0.7045624695218679  0.4081115857875162  0.5297079879479725  1.0000
  N   N4        1.0  0.2954364350963985  0.5918892179916853  0.4702902437385319  1.0000
  N   N5        1.0  0.952761115747009  0.6758510392286753  0.2567439732355794  1.0000
  N   N6        1.0  0.047237458445145805  0.324150586675593  0.7432560310358343  1.0000
  N   N7        1.0  0.1631289338437938  0.8299733852767233  0.04721402756791087  1.0000
  N   N8        1.0  0.8368709272281409  0.17002498814925096  0.9527875287983465  1.0000
  N   N9        1.0  0.26613219040552133  0.8870948470045195  0.9021116159194875  1.0000
  N   N10       1.0  0.733865492691983  0.11290596700969502  0.09788867756209642  1.0000
  N   N11       1.0  0.1715684908602881  0.5223546275360889  0.9083477055784995  1.0000
  N   N12       1.0  0.8284307200746993  0.4776453790563266  0.0916547367469747  1.0000
  O   O1        1.0  0.5104748629032017  0.16512901123488175  0.5220642026031754  1.0000
  O   O2        1.0  0.48952468113672154  0.8348701704615566  0.4779358023347341  1.0000
  O   O3        1.0  0.2804336589958679  0.9411292293901142  0.595110008027561  1.0000
  O   O4        1.0  0.7195658823652379  0.05886995507724182  0.4048906617130044  1.0000
  O   O5        1.0  0.9895889796082642  0.2898353997196921  0.3821217140281519  1.0000
  O   O6        1.0  0.010409998405492586  0.7101621535034823  0.6178781371403234  1.0000
  O   O7        1.0  0.0254309946374178  0.0159863234824371  0.7103580744002187  1.0000
  O   O8        1.0  0.9745645892387811  0.9840136750221621  0.28964124607335856  1.0000
  O   O9        1.0  0.3413007441038685  0.7092279295098366  0.6392966284609116  1.0000
  O   O10       1.0  0.6586979061625867  0.2907704430674798  0.36070433048982414  1.0000
  O   O11       1.0  0.4399103051097626  0.7987473312918069  0.7590346764680262  1.0000
  O   O12       1.0  0.5600910971937694  0.20125022085777292  0.24096570472885054  1.0000
  O   O13       1.0  0.4007078586009527  0.063846700313178  0.699288569081709  1.0000
  O   O14       1.0  0.599292655286753  0.9361500371754374  0.3007114365226898  1.0000
  O   O15       1.0  0.8526956766731643  0.159800107962937  0.5573604711566916  1.0000
  O   O16       1.0  0.1473035503347617  0.8401998820039651  0.4426379823528635  1.0000
  O   O17       1.0  0.1847835554633903  0.13957942831965647  0.5402038405464751  1.0000
  O   O18       1.0  0.8152172020608359  0.8604197514545221  0.4597960970043077  1.0000
  O   O19       1.0  0.936653065697513  0.9370046395230675  0.5712598770604274  1.0000
  O   O20       1.0  0.06334648370005877  0.0629945366315283  0.4287387982721782  1.0000
  O   O21       1.0  0.1726527300897445  0.1879539202063754  0.2581361717697277  1.0000
  O   O22       1.0  0.8273477050448365  0.8120460733801095  0.7418635439580044  1.0000
  O   O23       1.0  0.5879833713635704  0.9340462587411621  0.5866479920779781  1.0000
  O   O24       1.0  0.41201649774482957  0.06595210637205891  0.4133515698803266  1.0000
  O   O25       1.0  0.6765070482515438  0.7287510172453224  0.6319113990367954  1.0000
  O   O26       1.0  0.3234924931095549  0.2712481672220335  0.36808927070376285  1.0000
