data_image0
_chemical_formula_structural       Zn8H72C96N24O32
_chemical_formula_sum              "Zn8 H72 C96 N24 O32"
_cell_length_a       13.182699977164418
_cell_length_b       13.658778354003669
_cell_length_c       20.34858040025351
_cell_angle_alpha    89.99991672407708
_cell_angle_beta     90.00056914407497
_cell_angle_gamma    90.00000505360394

_space_group_name_H-M_alt    "P 1"
_space_group_IT_number       1

loop_
  _space_group_symop_operation_xyz
  'x, y, z'

loop_
  _atom_site_type_symbol
  _atom_site_label
  _atom_site_symmetry_multiplicity
  _atom_site_fract_x
  _atom_site_fract_y
  _atom_site_fract_z
  _atom_site_occupancy
  Zn  Zn1       1.0  0.16415462468599168  0.42927379162247786  0.3073711480922867  1.0000
  Zn  Zn2       1.0  0.33584783069119334  0.07072728574352989  0.807369412612914  1.0000
  Zn  Zn3       1.0  0.33584927328399766  0.9292756406624036  0.6926268345043881  1.0000
  Zn  Zn4       1.0  0.16415148105907923  0.5707250719584778  0.19263039629203862  1.0000
  Zn  Zn5       1.0  0.8358447053358589  0.5707267572565796  0.6926276453837588  1.0000
  Zn  Zn6       1.0  0.6641514993270193  0.9292754595257474  0.19262888942728307  1.0000
  Zn  Zn7       1.0  0.6641584010110366  0.0707256403463532  0.3073724504330714  1.0000
  Zn  Zn8       1.0  0.83584481471307  0.4292776733059256  0.8073723286513045  1.0000
  H   H1        1.0  0.42187084019066395  0.7504819339367187  0.2610314908536964  1.0000
  H   H2        1.0  0.07813171572989573  0.7495303455882619  0.7610313521909051  1.0000
  H   H3        1.0  0.07813531616385208  0.2504791494138701  0.7389710902012966  1.0000
  H   H4        1.0  0.421860786265242  0.24951768233996313  0.23897024688947252  1.0000
  H   H5        1.0  0.5781504883884382  0.249495186782262  0.7389712341832181  1.0000
  H   H6        1.0  0.9218698900283756  0.2504775245861595  0.23897088133233518  1.0000
  H   H7        1.0  0.9218480838920088  0.7495030962165714  0.2610281946669702  1.0000
  H   H8        1.0  0.5781408194855048  0.750489455705619  0.761031003764572  1.0000
  H   H9        1.0  0.49282205002350576  0.8905952951509587  0.4443314163705382  1.0000
  H   H10       1.0  0.007163578002270301  0.609418054253176  0.9443265331747029  1.0000
  H   H11       1.0  0.0071757756879904004  0.3906002206467462  0.5556739757006924  1.0000
  H   H12       1.0  0.4928342203567695  0.10940945169586766  0.0556722548727961  1.0000
  H   H13       1.0  0.5071954856802067  0.10939353964992897  0.5556678686049423  1.0000
  H   H14       1.0  0.9928327177211359  0.39058395888820036  0.05566980311694181  1.0000
  H   H15       1.0  0.9928099001198022  0.6094003282254191  0.44433071494846393  1.0000
  H   H16       1.0  0.5071734539719445  0.8905910971782304  0.9443314529779843  1.0000
  H   H17       1.0  0.2956856132293098  0.6374496646783356  0.44096064312499555  1.0000
  H   H18       1.0  0.2043128591479046  0.862557102801226  0.9409636671984815  1.0000
  H   H19       1.0  0.20430308499360447  0.13744874162376416  0.5590356601943114  1.0000
  H   H20       1.0  0.2956864809318703  0.36254774514539884  0.05903536376017371  1.0000
  H   H21       1.0  0.7043129582600686  0.36255088419540726  0.5590430646963327  1.0000
  H   H22       1.0  0.7956788852122473  0.13744930311141704  0.059040040597885514  1.0000
  H   H23       1.0  0.7956848664377817  0.862550343000862  0.440957727463136  1.0000
  H   H24       1.0  0.7043174004983755  0.637452071605523  0.9409619554266443  1.0000
  H   H25       1.0  0.35521336776356083  0.9882628184339096  0.5036819922229301  1.0000
  H   H26       1.0  0.1447807126394736  0.51173976498508  0.0036781150740168005  1.0000
  H   H27       1.0  0.14477460598353534  0.48826495409427634  0.4963183895812123  1.0000
  H   H28       1.0  0.35522314477344713  0.011737913124242997  0.9963178202805453  1.0000
  H   H29       1.0  0.6447844451334889  0.011739926832667896  0.4963187669862279  1.0000
  H   H30       1.0  0.8552186173636116  0.4882600517667229  0.9963182212285275  1.0000
  H   H31       1.0  0.8552186554863894  0.5117385233030659  0.5036813867433099  1.0000
  H   H32       1.0  0.6447807366606568  0.988264100015847  0.0036799903399682005  1.0000
  H   H33       1.0  0.2517236108993757  0.9771255944469244  0.5593179764260868  1.0000
  H   H34       1.0  0.24827511067403663  0.5228732086197709  0.05931180943493792  1.0000
  H   H35       1.0  0.24826739605761358  0.4771315187194673  0.4406838906247259  1.0000
  H   H36       1.0  0.25172874781983273  0.022871468200399588  0.9406841149888834  1.0000
  H   H37       1.0  0.7482787534319827  0.022869829518739903  0.44068474854048395  1.0000
  H   H38       1.0  0.7517234607591378  0.47712734026190146  0.9406845268647929  1.0000
  H   H39       1.0  0.751725865404815  0.5228719586789338  0.5593149028302521  1.0000
  H   H40       1.0  0.7482766507504836  0.9771320092000759  0.05931320420103962  1.0000
  H   H41       1.0  0.24865231448779213  0.9172938276864641  0.48030855301940534  1.0000
  H   H42       1.0  0.251340689247904  0.58270919449145  0.9803038017868887  1.0000
  H   H43       1.0  0.2513371695202764  0.4172995822086206  0.5196933727686998  1.0000
  H   H44       1.0  0.2486624164891253  0.08270577476848469  0.019692555323821605  1.0000
  H   H45       1.0  0.7513485326963263  0.08270452479978728  0.5196931890712762  1.0000
  H   H46       1.0  0.7486571236229977  0.4172950150386184  0.019693517378137  1.0000
  H   H47       1.0  0.748653816220866  0.5826995024118914  0.48030394637675045  1.0000
  H   H48       1.0  0.7513422235112089  0.9172969705020576  0.9803047638640123  1.0000
  H   H49       1.0  0.40966148536814023  0.5553939098648044  0.5382646458945644  1.0000
  H   H50       1.0  0.09033919096521001  0.9446071348795682  0.03826785440379151  1.0000
  H   H51       1.0  0.0903401005959097  0.05539465132996208  0.4617341952008759  1.0000
  H   H52       1.0  0.4096571228052  0.4446075581716116  0.9617315874192729  1.0000
  H   H53       1.0  0.5903423960773467  0.44461103179329325  0.4617346390288263  1.0000
  H   H54       1.0  0.9096533119232789  0.05539121761005111  0.9617304476164749  1.0000
  H   H55       1.0  0.9096599880185822  0.9446102903253359  0.5382675468841144  1.0000
  H   H56       1.0  0.5903414486467754  0.5553944549672137  0.0382672060536038  1.0000
  H   H57       1.0  0.5046834415969741  0.5859192742400836  0.5971737160888537  1.0000
  H   H58       1.0  0.9953173761477248  0.9140816836589707  0.0971756437094484  1.0000
  H   H59       1.0  0.9953173905150765  0.0859172462501903  0.4028263648052288  1.0000
  H   H60       1.0  0.5046774192585417  0.4140829335084533  0.902823132107905  1.0000
  H   H61       1.0  0.49532574983417277  0.414081274639365  0.4028250774191022  1.0000
  H   H62       1.0  0.004673609604658701  0.08591740095995698  0.9028231497403214  1.0000
  H   H63       1.0  0.0046773881280657  0.914078177713584  0.5971778344411192  1.0000
  H   H64       1.0  0.495321910770983  0.5859212760190358  0.0971766442358941  1.0000
  H   H65       1.0  0.5197836498153309  0.6190511722906036  0.5125344290756431  1.0000
  H   H66       1.0  0.9802173944913691  0.8809485034566934  0.012536782947187006  1.0000
  H   H67       1.0  0.9802171855097939  0.11905042524755055  0.48746512785454144  1.0000
  H   H68       1.0  0.5197789148529496  0.3809510366613295  0.9874639911433009  1.0000
  H   H69       1.0  0.48022402447573853  0.38094571593929766  0.487464364429208  1.0000
  H   H70       1.0  0.019776625551926903  0.11904838477107656  0.9874634848178019  1.0000
  H   H71       1.0  0.019780627398432702  0.8809508557576391  0.5125371056596608  1.0000
  H   H72       1.0  0.4802196566103731  0.6190531728655985  0.0125362766328223  1.0000
  C   C1        1.0  0.29546765898410854  0.6095593175860685  0.3095485405021989  1.0000
  C   C2        1.0  0.20452349962259583  0.8904565181971474  0.8095505557059895  1.0000
  C   C3        1.0  0.2045301393398731  0.109549326250594  0.6904438587552306  1.0000
  C   C4        1.0  0.2954743260149897  0.3904512705591898  0.19044697355010246  1.0000
  C   C5        1.0  0.7045293953876807  0.39043757063494416  0.6904581159246562  1.0000
  C   C6        1.0  0.795476588961776  0.1095454949427861  0.19044725490225292  1.0000
  C   C7        1.0  0.7954661563305123  0.8904409728198174  0.3095455974553332  1.0000
  C   C8        1.0  0.7045295554452341  0.6095485461875043  0.8095542771148986  1.0000
  C   C9        1.0  0.353970381796131  0.6853947583794949  0.3472992375573157  1.0000
  C   C10       1.0  0.1460259038472458  0.8146187997913258  0.8473004572263036  1.0000
  C   C11       1.0  0.14602742394730941  0.18539362915006302  0.652700458763036  1.0000
  C   C12       1.0  0.35396963873213133  0.31460704887228985  0.15269911222127772  1.0000
  C   C13       1.0  0.6460403268119067  0.3145962728060567  0.6527044703079596  1.0000
  C   C14       1.0  0.8539726676313536  0.18539126677266882  0.1527017762860297  1.0000
  C   C15       1.0  0.8539643203635308  0.8146003305611914  0.34729686038738095  1.0000
  C   C16       1.0  0.6460312084260381  0.6853971606568406  0.8472991898231114  1.0000
  C   C17       1.0  0.41396391311147335  0.7539616897559397  0.31426613540239157  1.0000
  C   C18       1.0  0.08603111025527  0.746051207360857  0.8142650684276095  1.0000
  C   C19       1.0  0.08603845071996122  0.2539597525342002  0.6857349679192168  1.0000
  C   C20       1.0  0.41396214994212244  0.2460401222829987  0.18573260259203292  1.0000
  C   C21       1.0  0.5860528640406814  0.24601982374329617  0.6857356067480966  1.0000
  C   C22       1.0  0.9139667026270076  0.2539559306872191  0.1857337250402935  1.0000
  C   C23       1.0  0.9139495007409694  0.7460305465274216  0.31426235122073365  1.0000
  C   C24       1.0  0.5860424900732683  0.7539640872452296  0.8142666823341714  1.0000
  C   C25       1.0  0.4641375177773528  0.8273086235203305  0.3493900878657855  1.0000
  C   C26       1.0  0.035856524006902604  0.6727049301560796  0.8493872939201312  1.0000
  C   C27       1.0  0.0358633360504754  0.3273082221244366  0.6506129091781007  1.0000
  C   C28       1.0  0.46414128050417963  0.1726975852981312  0.1506124148619961  1.0000
  C   C29       1.0  0.5358785007938636  0.1726780148897475  0.6506101799754092  1.0000
  C   C30       1.0  0.9641443231549831  0.327298547242627  0.15061149955938902  1.0000
  C   C31       1.0  0.9641261325841485  0.6726835411922849  0.3493888328789936  1.0000
  C   C32       1.0  0.5358618423938708  0.8273080884866598  0.8493898186672268  1.0000
  C   C33       1.0  0.45337848203877945  0.8328829867443233  0.4176080769675894  1.0000
  C   C34       1.0  0.046610531386605196  0.6671304201535262  0.9176068324048006  1.0000
  C   C35       1.0  0.046620096628060985  0.3328856615021607  0.5823958974641315  1.0000
  C   C36       1.0  0.4533865140169553  0.16712102482715346  0.0823933732836437  1.0000
  C   C37       1.0  0.5466337436790667  0.16710584805582576  0.582391699425486  1.0000
  C   C38       1.0  0.9533880400690862  0.33287086085486817  0.08239245250320691  1.0000
  C   C39       1.0  0.9533708891504773  0.6671119588532761  0.41760633602977054  1.0000
  C   C40       1.0  0.5466188845869767  0.8328802561788674  0.9176083688203253  1.0000
  C   C41       1.0  0.39319985604997504  0.7644192861857204  0.45016743535130394  1.0000
  C   C42       1.0  0.1067942052591064  0.7355889257490561  0.9501660215726419  1.0000
  C   C43       1.0  0.1067941645276491  0.26442276793292757  0.5498336576734958  1.0000
  C   C44       1.0  0.3932036053535839  0.23558105993465964  0.0498331340362057  1.0000
  C   C45       1.0  0.6068093353921215  0.2355754056529591  0.5498328324638493  1.0000
  C   C46       1.0  0.8932036076267097  0.26441381951910603  0.049833263332189404  1.0000
  C   C47       1.0  0.8931953040924797  0.7355792452044696  0.4501661186394799  1.0000
  C   C48       1.0  0.6067995175330197  0.7644202210723277  0.9501676251908509  1.0000
  C   C49       1.0  0.3438386845042701  0.6902062421143141  0.4156666252345148  1.0000
  C   C50       1.0  0.15615864359884307  0.8098027761800068  0.9156669323257988  1.0000
  C   C51       1.0  0.1561553288491311  0.1902059929223582  0.5843320834797369  1.0000
  C   C52       1.0  0.343839174215404  0.30979336793936346  0.08433165898676981  1.0000
  C   C53       1.0  0.6561697483941415  0.30978918185053317  0.5843370826212395  1.0000
  C   C54       1.0  0.8438368935885522  0.19020362973596858  0.08433382687420021  1.0000
  C   C55       1.0  0.8438333811746473  0.8097923595692221  0.4156642527891634  1.0000
  C   C56       1.0  0.6561647072297917  0.69020571667955  0.9156676259395057  1.0000
  C   C57       1.0  0.5317880422540854  0.8993385313168645  0.3147785202926769  1.0000
  C   C58       1.0  0.9682054735201221  0.6006707439504452  0.8147761376322792  1.0000
  C   C59       1.0  0.9682075103354536  0.3993351614320916  0.6852261672213305  1.0000
  C   C60       1.0  0.5317999114401246  0.10066987929085507  0.185223437358367  1.0000
  C   C61       1.0  0.4682165977080005  0.10064810710122168  0.6852138845553313  1.0000
  C   C62       1.0  0.03180068363484171  0.3993268764087645  0.18522314730206804  1.0000
  C   C63       1.0  0.03178119975886771  0.600650012711284  0.3147795063147356  1.0000
  C   C64       1.0  0.46820548713390764  0.8993328659791896  0.814774373266694  1.0000
  C   C65       1.0  0.3421830240476567  0.8501984406537131  0.553197511312078  1.0000
  C   C66       1.0  0.1578156042254477  0.649801839837991  0.0531945658181243  1.0000
  C   C67       1.0  0.15781403913793923  0.3502006838903922  0.4468034975061954  1.0000
  C   C68       1.0  0.342183715187204  0.1498008256034637  0.9468031997126901  1.0000
  C   C69       1.0  0.6578246502623984  0.1498035724828241  0.44680373936412116  1.0000
  C   C70       1.0  0.8421822086564817  0.35019797691110444  0.9468042276533811  1.0000
  C   C71       1.0  0.8421777051771145  0.6498027935090107  0.5531943130743215  1.0000
  C   C72       1.0  0.6578186491107517  0.8502011875360367  0.05319510233768201  1.0000
  C   C73       1.0  0.4151143157785668  0.7064535083904601  0.5674238716688152  1.0000
  C   C74       1.0  0.08488528802102731  0.7935467414874607  0.0674252274590685  1.0000
  C   C75       1.0  0.0848850091569346  0.2064543121569286  0.4325767868498147  1.0000
  C   C76       1.0  0.4151125282342535  0.29354942433726444  0.9325758369814068  1.0000
  C   C77       1.0  0.5848979099549823  0.2935499690055322  0.4325778704561572  1.0000
  C   C78       1.0  0.9151079734561095  0.20645087886964564  0.932575531737875  1.0000
  C   C79       1.0  0.9151074937393345  0.7935498973708163  0.567422498037125  1.0000
  C   C80       1.0  0.5848913532148715  0.7064533209306062  0.06742393937783933  1.0000
  C   C81       1.0  0.2965783256458892  0.9381001840694979  0.522225626876704  1.0000
  C   C82       1.0  0.20341831322307513  0.5619016273211698  0.0222220799156858  1.0000
  C   C83       1.0  0.2034141946506907  0.4381038285671649  0.47777480419049584  1.0000
  C   C84       1.0  0.2965855490599979  0.06189907854996329  0.9777738061908966  1.0000
  C   C85       1.0  0.7034240386706614  0.06189890054777439  0.4777751323489738  1.0000
  C   C86       1.0  0.7965810167913218  0.4380996536888446  0.9777757306904605  1.0000
  C   C87       1.0  0.796579066807958  0.561898916701864  0.522223497830069  1.0000
  C   C88       1.0  0.7034198495102474  0.9381029345907165  0.0222235129997514  1.0000
  C   C89       1.0  0.46512520050013245  0.6114289222183442  0.5529935894372997  1.0000
  C   C90       1.0  0.034876458987987705  0.8885720908358437  0.05299649405762352  1.0000
  C   C91       1.0  0.03487639090796791  0.11142749455776617  0.44700568807947855  1.0000
  C   C92       1.0  0.465119849345797  0.38857328237313726  0.9470034942143715  1.0000
  C   C93       1.0  0.5348847495048049  0.38857382305030086  0.4470056955068103  1.0000
  C   C94       1.0  0.9651168024816529  0.1114255295223217  0.947003282269776  1.0000
  C   C95       1.0  0.9651191462866039  0.8885723221880681  0.5529960539933044  1.0000
  C   C96       1.0  0.5348809978235779  0.6114301950245106  0.0529962821346928  1.0000
  N   N1        1.0  0.35056419021614715  0.8320144620979872  0.6169823409132107  1.0000
  N   N2        1.0  0.1494323763796501  0.6679812883743635  0.11698079763164773  1.0000
  N   N3        1.0  0.14943742262732942  0.33201537764404065  0.3830191772080269  1.0000
  N   N4        1.0  0.3505623933748652  0.16798553695987542  0.8830164585987178  1.0000
  N   N5        1.0  0.649447276936108  0.1679868189098599  0.3830179269060708  1.0000
  N   N6        1.0  0.8505608850900259  0.33201706411369963  0.8830189786953966  1.0000
  N   N7        1.0  0.8505543217026316  0.6679866354934489  0.6169805991123027  1.0000
  N   N8        1.0  0.6494384537833399  0.832019404699153  0.11698184344530922  1.0000
  N   N9        1.0  0.39652980255071674  0.7424054150967264  0.626275565190852  1.0000
  N   N10       1.0  0.10346918146647252  0.7575910475093007  0.12627511079971754  1.0000
  N   N11       1.0  0.10347407729494051  0.24240488271103536  0.37372505804601275  1.0000
  N   N12       1.0  0.396525596995737  0.2575960518892017  0.8737230403220337  1.0000
  N   N13       1.0  0.6034854574476968  0.25759952656129304  0.3737242112041343  1.0000
  N   N14       1.0  0.8965225628557151  0.24240510859006284  0.8737236826539461  1.0000
  N   N15       1.0  0.8965184256049739  0.7575971304264895  0.6262747182767754  1.0000
  N   N16       1.0  0.6034775258835481  0.7424088897683345  0.12627673603368092  1.0000
  N   N17       1.0  0.38209113120502286  0.771869364564452  0.519900024372845  1.0000
  N   N18       1.0  0.11790774793753661  0.7281339160863637  0.0198996923382708  1.0000
  N   N19       1.0  0.11790289009589831  0.27187226510375234  0.4801010613378409  1.0000
  N   N20       1.0  0.3820930962276777  0.22813210126905395  0.9800989791618947  1.0000
  N   N21       1.0  0.6179180602374289  0.22813264857320087  0.48010024343871294  1.0000
  N   N22       1.0  0.8820900649481019  0.27186516853230813  0.9800995925683582  1.0000
  N   N23       1.0  0.8820880956641943  0.7281312122935047  0.5198987149793198  1.0000
  N   N24       1.0  0.6179123023575174  0.7718691797396104  0.019900305768203504  1.0000
  O   O1        1.0  0.2711124856565519  0.5319886564310179  0.3404602384679905  1.0000
  O   O2        1.0  0.2288708000160042  0.9680293092334504  0.8404613522204728  1.0000
  O   O3        1.0  0.22888454660044744  0.0319897154918252  0.6595366598524706  1.0000
  O   O4        1.0  0.2711300674702954  0.4680233940247048  0.15954101523345807  1.0000
  O   O5        1.0  0.7288860858102737  0.4680104281860977  0.6595405207454165  1.0000
  O   O6        1.0  0.7711186686123599  0.03198807863073939  0.15953940695450095  1.0000
  O   O7        1.0  0.77110947343175  0.9680101012571212  0.3404621336067564  1.0000
  O   O8        1.0  0.7288760896928325  0.5319881368015089  0.8404592525636121  1.0000
  O   O9        1.0  0.27368563363587844  0.6315071701496106  0.2506549159954973  1.0000
  O   O10       1.0  0.22631221264951756  0.8685102566096247  0.7506556194158166  1.0000
  O   O11       1.0  0.22631368401905413  0.13150144660885835  0.7493453246729871  1.0000
  O   O12       1.0  0.27369167943165007  0.3685004877342307  0.2493438971478028  1.0000
  O   O13       1.0  0.726299283613713  0.36850362853950697  0.7493512489504895  1.0000
  O   O14       1.0  0.773706840258356  0.1314902922607075  0.24935201994997414  1.0000
  O   O15       1.0  0.7736894388488127  0.8684998344007724  0.2506529773802058  1.0000
  O   O16       1.0  0.7263099262850546  0.6315000611470297  0.7506529305965162  1.0000
  O   O17       1.0  0.5609583486462811  0.9729548899705733  0.34811309065714374  1.0000
  O   O18       1.0  0.9390326411225232  0.5270645633948021  0.8481091171934096  1.0000
  O   O19       1.0  0.9390417625065979  0.47295232161074796  0.6518910331607586  1.0000
  O   O20       1.0  0.5609651510103363  0.0270579157397535  0.15189298721507072  1.0000
  O   O21       1.0  0.4390379470584663  0.027048587433235096  0.6518807884599199  1.0000
  O   O22       1.0  0.06097958457323219  0.4729323248373943  0.1518877105870686  1.0000
  O   O23       1.0  0.060951499019211  0.5270445666095895  0.3481161146886009  1.0000
  O   O24       1.0  0.43902355911099994  0.9729433652576773  0.8481161263565012  1.0000
  O   O25       1.0  0.5548496353971757  0.8789927057831689  0.2558403410751993  1.0000
  O   O26       1.0  0.9451513259135852  0.6210137677812425  0.7558323834505175  1.0000
  O   O27       1.0  0.9451398466385259  0.37898554660052497  0.7441619092224558  1.0000
  O   O28       1.0  0.5548677152438657  0.121024492223242  0.24416225725834553  1.0000
  O   O29       1.0  0.4451542460438135  0.12099686114759577  0.7441584524209688  1.0000
  O   O30       1.0  0.0548517969429412  0.3789853168402855  0.2441644442994289  1.0000
  O   O31       1.0  0.05484355344352561  0.6209959668963234  0.2558408156895879  1.0000
  O   O32       1.0  0.4451566476021967  0.8789972884217292  0.7558385020273661  1.0000
