data_image0
_chemical_formula_structural       K2H26C22S2N4O12
_chemical_formula_sum              "K2 H26 C22 S2 N4 O12"
_cell_length_a       5.47744573903729
_cell_length_b       7.754314617851417
_cell_length_c       16.881039228208383
_cell_angle_alpha    88.2512056353006
_cell_angle_beta     91.6880770185109
_cell_angle_gamma    105.44385141955243

_space_group_name_H-M_alt    "P 1"
_space_group_IT_number       1

loop_
  _space_group_symop_operation_xyz
  'x, y, z'

loop_
  _atom_site_type_symbol
  _atom_site_label
  _atom_site_symmetry_multiplicity
  _atom_site_fract_x
  _atom_site_fract_y
  _atom_site_fract_z
  _atom_site_occupancy
  K   K1        1.0  0.6086494477396441  0.25306170754738844  0.47966707739252723  1.0000
  K   K2        1.0  0.39133566577780243  0.7469350587128649  0.5203255917370984  1.0000
  H   H1        1.0  0.5277612196331914  0.7355170738715203  0.2923133435988917  1.0000
  H   H2        1.0  0.4722467962873012  0.2644912575713363  0.7076889182078718  1.0000
  H   H3        1.0  0.448458121385073  0.6270232098505559  0.15369987035608554  1.0000
  H   H4        1.0  0.5515461595910266  0.37296081246195467  0.8463072193535484  1.0000
  H   H5        1.0  0.7877931704068215  0.7354505276391023  0.053688456303973515  1.0000
  H   H6        1.0  0.21220152739434886  0.2645228876984617  0.9463168360969052  1.0000
  H   H7        1.0  0.18937854290884104  0.9556733730044517  0.09165463242427313  1.0000
  H   H8        1.0  0.8106061370541723  0.0443124967720863  0.908342232685847  1.0000
  H   H9        1.0  0.0549911934765746  0.5498150496829269  0.33088434045928505  1.0000
  H   H10       1.0  0.9450006296800666  0.4501987539480937  0.6691165920251836  1.0000
  H   H11       1.0  0.07830824450922341  0.5857264930444617  0.22504950614439426  1.0000
  H   H12       1.0  0.9216880852552976  0.4142752083239571  0.7749521091382977  1.0000
  H   H13       1.0  0.1915925226320851  0.41445507337616055  0.2705327199931632  1.0000
  H   H14       1.0  0.8084055792440948  0.5855559500790407  0.7294700490768877  1.0000
  H   H15       1.0  0.807545781142977  0.35988496077570187  0.9870777505129528  1.0000
  H   H16       1.0  0.19249767954001126  0.6400777539459102  0.012923209086039805  1.0000
  H   H17       1.0  0.5152531161355682  0.32385895550349625  0.039099125646338016  1.0000
  H   H18       1.0  0.4847874399267696  0.6761015490056864  0.9608911581477035  1.0000
  H   H19       1.0  0.6433666179355412  0.14188539070880785  0.02455034247452661  1.0000
  H   H20       1.0  0.35669533577494406  0.8580823844561536  0.9754560608709614  1.0000
  H   H21       1.0  0.3585504461853617  0.14115243471641756  0.288380025861109  1.0000
  H   H22       1.0  0.6414175822578017  0.8588710681961446  0.7116153541754999  1.0000
  H   H23       1.0  0.1584089816545102  0.3199055122234925  0.4295897978962203  1.0000
  H   H24       1.0  0.841592740219319  0.6801057268745367  0.5704076640971112  1.0000
  H   H25       1.0  0.1268380466988859  0.34543346754764315  0.5191508361328803  1.0000
  H   H26       1.0  0.8731592872573799  0.6545710883400278  0.48084662544879125  1.0000
  C   C1        1.0  0.900483303277241  0.9024016327087808  0.26989571648617533  1.0000
  C   C2        1.0  0.0995004204320438  0.0976149325121867  0.7301039586915865  1.0000
  C   C3        1.0  0.6710924184075822  0.7823136651305946  0.2475002348834893  1.0000
  C   C4        1.0  0.32889582723672117  0.21769067034841072  0.7525030863203386  1.0000
  C   C5        1.0  0.6265711839993954  0.7225424879140547  0.17005108906156616  1.0000
  C   C6        1.0  0.3734278439068959  0.27744699062241557  0.829954158880476  1.0000
  C   C7        1.0  0.8156222100395565  0.7839715503421233  0.11409131109557083  1.0000
  C   C8        1.0  0.18437759761769706  0.21601539821141816  0.8859103995217767  1.0000
  C   C9        1.0  0.04211481833541337  0.9060138864692036  0.1348219895852552  1.0000
  C   C10       1.0  0.9578757849543253  0.09398270608578943  0.8651742755179159  1.0000
  C   C11       1.0  0.08841829096226654  0.968164969901757  0.21264260964910164  1.0000
  C   C12       1.0  0.9115550299705931  0.031843849773530115  0.7873511011521688  1.0000
  C   C13       1.0  0.043519197703005774  0.48557481720919793  0.27356637959718466  1.0000
  C   C14       1.0  0.9564770834453497  0.5144361876601524  0.7264369687517205  1.0000
  C   C15       1.0  0.7878617406630466  0.3566440709163886  0.2638143039060879  1.0000
  C   C16       1.0  0.21212598602554075  0.6433589775302837  0.7361878345976084  1.0000
  C   C17       1.0  0.6986826581585319  0.2752385703433974  0.18691024330738065  1.0000
  C   C18       1.0  0.30131811120514834  0.7247604852385765  0.8130902319663209  1.0000
  C   C19       1.0  0.8435980710008194  0.3233893544113188  0.11278350650110272  1.0000
  C   C20       1.0  0.15642208063536597  0.6765935226457317  0.8872177796442318  1.0000
  C   C21       1.0  0.6940069168941035  0.28617585408200347  0.035661478068306  1.0000
  C   C22       1.0  0.3060291816071725  0.7137963447558208  0.9643376052566456  1.0000
  S   S1        1.0  0.9468051421041324  0.9495894155216505  0.3730801156975972  1.0000
  S   S2        1.0  0.05318478411967931  0.05043390248727771  0.6269177953218162  1.0000
  N   N1        1.0  0.3186912481004143  0.09347150078453845  0.231345450032535  1.0000
  N   N2        1.0  0.6812974127057673  0.9065438841534291  0.7686501193173714  1.0000
  N   N3        1.0  0.4763883085660723  0.15713394733142397  0.17486264035169805  1.0000
  N   N4        1.0  0.5236121724135286  0.8428691547286608  0.8251372211366859  1.0000
  O   O1        1.0  0.6415989835388487  0.3192973611107561  0.3211151403187814  1.0000
  O   O2        1.0  0.35837796088774354  0.6807205442784581  0.6788850714467006  1.0000
  O   O3        1.0  0.07534398654175328  0.39232673980726673  0.11332616852006792  1.0000
  O   O4        1.0  0.9246652197001808  0.6076650997726958  0.8866856601747773  1.0000
  O   O5        1.0  0.04808082213302355  0.8051167610442392  0.40748359863473393  1.0000
  O   O6        1.0  0.9519143024135771  0.19491045523340494  0.592516701927359  1.0000
  O   O7        1.0  0.6999157018296387  0.9487466970798908  0.4043021894513928  1.0000
  O   O8        1.0  0.3000705860039687  0.0512765582614492  0.5956974727713205  1.0000
  O   O9        1.0  0.1346707662457831  0.1252524868236193  0.3773191439926792  1.0000
  O   O10       1.0  0.8653180611887308  0.8747776626050695  0.6226757641104188  1.0000
  O   O11       1.0  0.19905155247564466  0.4114664783192765  0.4706485746295997  1.0000
  O   O12       1.0  0.8009585572296202  0.5885379527107022  0.5293507584557562  1.0000
