data_image0
_chemical_formula_structural       Ni6H78C102N12O36
_chemical_formula_sum              "Ni6 H78 C102 N12 O36"
_cell_length_a       16.407195155682356
_cell_length_b       16.405724158698625
_cell_length_c       17.526020996658637
_cell_angle_alpha    90.01325290649139
_cell_angle_beta     89.99083597826487
_cell_angle_gamma    120.00274886887733

_space_group_name_H-M_alt    "P 1"
_space_group_IT_number       1

loop_
  _space_group_symop_operation_xyz
  'x, y, z'

loop_
  _atom_site_type_symbol
  _atom_site_label
  _atom_site_symmetry_multiplicity
  _atom_site_fract_x
  _atom_site_fract_y
  _atom_site_fract_z
  _atom_site_occupancy
  Ni  Ni1       1.0  0.01080945957400568  0.332619332313044  0.1480767317480627  1.0000
  Ni  Ni2       1.0  0.32156917605472335  0.9890730343897192  0.1479049251287847  1.0000
  Ni  Ni3       1.0  0.6678827811605716  0.679211413990558  0.7706910440748089  1.0000
  Ni  Ni4       1.0  0.32086722435287396  0.9885137987387651  0.7707154269151176  1.0000
  Ni  Ni5       1.0  0.6674091191471165  0.6783922684666379  0.1479010215040688  1.0000
  Ni  Ni6       1.0  0.011485749018383708  0.3322665551295502  0.7708506363877704  1.0000
  H   H1        1.0  0.42778635266072473  0.12464608037153367  0.6560302259468713  1.0000
  H   H2        1.0  0.4655904618677484  0.0686864176282285  0.009783410628806201  1.0000
  H   H3        1.0  0.2109544748093273  0.8483509617104943  0.6573101962769456  1.0000
  H   H4        1.0  0.3903781365944213  0.1381384979275211  0.4031887051740455  1.0000
  H   H5        1.0  0.15880702518431636  0.14363850535085027  0.758483942067315  1.0000
  H   H6        1.0  0.7680241370328746  0.6346100122572126  0.0330709721937197  1.0000
  H   H7        1.0  0.5028653019450007  0.7900248078568239  0.7332840701320081  1.0000
  H   H8        1.0  0.6965836815246649  0.5719002925114937  0.6559832846966458  1.0000
  H   H9        1.0  0.5246485639179497  0.6304418221217106  0.9076310847309871  1.0000
  H   H10       1.0  0.8707446124706878  0.30436827249248205  0.5140741016003504  1.0000
  H   H11       1.0  0.1668653952902589  0.4064429624018402  0.4025045216195197  1.0000
  H   H12       1.0  0.2914827406966652  0.09947770860978267  0.8851421116877135  1.0000
  H   H13       1.0  0.8682769387027278  0.2609196549369059  0.2612654857902045  1.0000
  H   H14       1.0  0.20209442901256852  0.841301270623873  0.516170239820312  1.0000
  H   H15       1.0  0.36929248173311174  0.8939449816314846  0.9079695075679127  1.0000
  H   H16       1.0  0.17425943672397917  0.9294523051945588  0.9056164934843595  1.0000
  H   H17       1.0  0.15136963978250872  0.36193742001816537  0.6573910075629784  1.0000
  H   H18       1.0  0.5235479898462219  0.5736298206894548  0.0339047393913745  1.0000
  H   H19       1.0  0.6001829968077246  0.7596073003664046  0.2616485346838715  1.0000
  H   H20       1.0  0.8139448444149694  0.7561710279955279  0.014145996186798002  1.0000
  H   H21       1.0  0.6353672554693477  0.7900282392411742  0.8863112526203382  1.0000
  H   H22       1.0  0.8564734153244515  0.015157184791355999  0.7584074192473765  1.0000
  H   H23       1.0  0.20963342300665755  0.845369885067015  0.8862421427861166  1.0000
  H   H24       1.0  0.6381550097463632  0.7893734014065642  0.6572983525024655  1.0000
  H   H25       1.0  0.15934926330486826  0.399773079049524  0.26169829582910614  1.0000
  H   H26       1.0  0.550138867067297  0.5405559645889967  0.8838650851150335  1.0000
  H   H27       1.0  0.6398880991775331  0.7981778267024994  0.5161541876010604  1.0000
  H   H28       1.0  0.9906671274108664  0.4501250094972067  0.8840200269160122  1.0000
  H   H29       1.0  0.3649734837555485  0.1333777696053389  0.033135171241106307  1.0000
  H   H30       1.0  0.7103123217512178  0.8242671377334647  0.034173577955492404  1.0000
  H   H31       1.0  0.4096391174851917  0.13130970848938972  0.9038267032619701  1.0000
  H   H32       1.0  0.07077690014390474  0.2450054254462017  0.9056551993303547  1.0000
  H   H33       1.0  0.21007287432043864  0.7125999296861281  0.7333402349407693  1.0000
  H   H34       1.0  0.7475496193899147  0.609222005649734  0.40305047897854257  1.0000
  H   H35       1.0  0.789032737348606  0.5028095860649201  0.14549826287296952  1.0000
  H   H36       1.0  0.8686907114404294  0.2781580816111956  0.9037314620384438  1.0000
  H   H37       1.0  0.5036715928201191  0.7872613850362101  0.18013191122951613  1.0000
  H   H38       1.0  0.9821535900004579  0.8401514775326435  0.1630999542965981  1.0000
  H   H39       1.0  0.2435315910521041  0.05741379120854617  0.0138315396863646  1.0000
  H   H40       1.0  0.15842053454870353  0.3602317658278551  0.5162470238280363  1.0000
  H   H41       1.0  0.6026468815236328  0.5343032681495145  0.009995866496019802  1.0000
  H   H42       1.0  0.25398699346258985  0.8429903546130292  0.016098124916432303  1.0000
  H   H43       1.0  0.28349448381686687  0.49635978139787096  0.18029598434995361  1.0000
  H   H44       1.0  0.7135354210268972  0.2108437636874854  0.14545577036714263  1.0000
  H   H45       1.0  0.7177242521639969  0.21383305526373428  0.7807568630486729  1.0000
  H   H46       1.0  0.5935807732093041  0.7603947899054121  0.40247343157131615  1.0000
  H   H47       1.0  0.23950721378408726  0.8329253319670898  0.4023420891215467  1.0000
  H   H48       1.0  0.7391698895443215  0.6075159222291477  0.2609707481883278  1.0000
  H   H49       1.0  0.04988261360998083  0.4764642648815639  0.0341331033104595  1.0000
  H   H50       1.0  0.9315114780274102  0.39731584911206863  0.010051363171903901  1.0000
  H   H51       1.0  0.7861636357179836  0.503808001081055  0.7806250668904228  1.0000
  H   H52       1.0  0.2127912760586812  0.7165839747458024  0.1801955101938333  1.0000
  H   H53       1.0  0.6956929739578401  0.5662846053783142  0.5138420939060424  1.0000
  H   H54       1.0  0.5893034485968446  0.7464095786140775  0.016313277458770904  1.0000
  H   H55       1.0  0.42672787436799126  0.9504401525018906  0.0340570634130231  1.0000
  H   H56       1.0  0.392029187209218  0.13153506829159778  0.2610728950414369  1.0000
  H   H57       1.0  0.15471086803196238  0.364606385637849  0.8864983866025896  1.0000
  H   H58       1.0  0.24025472881693613  0.8404795364521437  0.26154591619450684  1.0000
  H   H59       1.0  0.8579084617614329  0.01785403985033461  0.16331987283751914  1.0000
  H   H60       1.0  0.7221104092242929  0.5907015926017182  0.9035444638285244  1.0000
  H   H61       1.0  0.15984613255965743  0.14207891871045325  0.16319911492742992  1.0000
  H   H62       1.0  0.8754764010700172  0.30344533651861366  0.6562165829460299  1.0000
  H   H63       1.0  0.4971157927117815  0.286319720079085  0.14526488573984864  1.0000
  H   H64       1.0  0.43321176651742377  0.12930024536526463  0.5138731291948276  1.0000
  H   H65       1.0  0.4962206494815221  0.282238552385529  0.7805530390526769  1.0000
  H   H66       1.0  0.8665253883839766  0.2319038900906777  0.033198162147215306  1.0000
  H   H67       1.0  0.9422635926555784  0.18611962339512894  0.014182707051723802  1.0000
  H   H68       1.0  0.9849947705029862  0.8412694139122507  0.7582931527940746  1.0000
  H   H69       1.0  0.7549998566078672  0.8259006253796811  0.9054126947381677  1.0000
  H   H70       1.0  0.2874022291352747  0.4972307351517814  0.7332279153895983  1.0000
  H   H71       1.0  0.1570511660232442  0.4108398469409523  0.016464304542616  1.0000
  H   H72       1.0  0.4593528370926309  0.009092405856520751  0.883887998357281  1.0000
  H   H73       1.0  0.8617550019519628  0.25259150802990865  0.4033828968966234  1.0000
  H   H74       1.0  0.8082288121999712  0.7091004606318522  0.8852660524812564  1.0000
  H   H75       1.0  0.11393909210612928  0.28987116461161844  0.0343929030548722  1.0000
  H   H76       1.0  0.10591579083876482  0.4754370106457985  0.9079358480883003  1.0000
  H   H77       1.0  0.9007546697262399  0.19190365169908574  0.8853533553547592  1.0000
  H   H78       1.0  0.17587799239997562  0.8857764543325006  0.03421933290741921  1.0000
  C   C1        1.0  0.30475153231698476  0.5708359210876282  0.17956583530600062  1.0000
  C   C2        1.0  0.09001126561641119  0.07973425046883881  0.16389994675039082  1.0000
  C   C3        1.0  0.47618852657632277  0.6115914594786177  0.7269812573823345  1.0000
  C   C4        1.0  0.3144343819733066  0.06979871203240155  0.0023652288611373  1.0000
  C   C5        1.0  0.23822652037226547  0.5976701162492335  0.7333959063161188  1.0000
  C   C6        1.0  0.014282399902526893  0.3305424678524745  0.41685431575878346  1.0000
  C   C7        1.0  0.7333512485348948  0.42931316918004836  0.7789576965103607  1.0000
  C   C8        1.0  0.3919555646231246  0.86508145275635  0.18937831987209822  1.0000
  C   C9        1.0  0.2644566513127274  0.6929655960434573  0.7338270567743808  1.0000
  C   C10       1.0  0.5870517328596353  0.5910678108104649  0.0014364678328960003  1.0000
  C   C11       1.0  0.7090854417462042  0.6409465337813389  0.2957391913824381  1.0000
  C   C12       1.0  0.47302382448428676  0.608115558733033  0.18939474339534712  1.0000
  C   C13       1.0  0.2397153149973833  0.9000524052864378  0.0034236359445075004  1.0000
  C   C14       1.0  0.22861927025927317  0.9108266042690334  0.9166911117594199  1.0000
  C   C15       1.0  0.6033820039387265  0.4702808313464289  0.7855933559738021  1.0000
  C   C16       1.0  0.9895903078712469  0.9099675892092098  0.1638726653432201  1.0000
  C   C17       1.0  0.4005751605470354  0.638230324752499  0.18008523181125471  1.0000
  C   C18       1.0  0.5979873676954384  0.23754573710323262  0.14671737580158611  1.0000
  C   C19       1.0  0.6393668409849128  0.40193286166107356  0.14677143793493744  1.0000
  C   C20       1.0  0.307118602329915  0.5712691766306152  0.7338095972473085  1.0000
  C   C21       1.0  0.3617970821051558  0.7624904798730371  0.1800809979839073  1.0000
  C   C22       1.0  0.9108194735799701  0.9194581605065082  0.7578865916539074  1.0000
  C   C23       1.0  0.9300956109483354  0.24473525350281738  0.0025375564081216006  1.0000
  C   C24       1.0  0.9299270424846783  0.2885033829793002  0.37511403342485755  1.0000
  C   C25       1.0  0.13495797288561573  0.5270314283573327  0.1895525844269557  1.0000
  C   C26       1.0  0.0894747963388696  0.08061178397590399  0.7578084234928754  1.0000
  C   C27       1.0  0.4024090850653297  0.6403318172808597  0.7333723506633306  1.0000
  C   C28       1.0  0.3581917030609958  0.06991836167808431  0.37496111567002544  1.0000
  C   C29       1.0  0.16506360278449256  0.9800146370295125  0.7611545935856087  1.0000
  C   C30       1.0  0.6286177866113293  0.7269075259315372  0.37470049804222333  1.0000
  C   C31       1.0  0.8135567328020915  0.8367369413376767  0.15996877646821162  1.0000
  C   C32       1.0  0.39404241902875015  0.9687870570936852  0.9166514292552536  1.0000
  C   C33       1.0  0.7629441493380257  0.3626161816273168  0.7792170351478377  1.0000
  C   C34       1.0  0.0938549224741011  0.34844205334233896  0.5436326858477188  1.0000
  C   C35       1.0  0.02309928391836282  0.1864718878141929  0.16006788577915643  1.0000
  C   C36       1.0  0.9202732377980781  0.010391755747384828  0.16402709085194542  1.0000
  C   C37       1.0  0.9345135454842933  0.31562033844729587  0.5425442453835032  1.0000
  C   C38       1.0  0.9912617137038001  0.9105960908560676  0.7577518516638834  1.0000
  C   C39       1.0  0.570709187953753  0.30396735601285496  0.7789425324681646  1.0000
  C   C40       1.0  0.23753708771999277  0.5994299301933097  0.18012281368351074  1.0000
  C   C41       1.0  0.09117008099459417  0.34924358307257114  0.6227353539097606  1.0000
  C   C42       1.0  0.6066990190287316  0.473154531408028  0.1410632053257785  1.0000
  C   C43       1.0  0.08061914253644197  0.9913017511065121  0.7578435885388332  1.0000
  C   C44       1.0  0.6508752676125485  0.7418756719462254  0.6226015714539203  1.0000
  C   C45       1.0  0.163187402171701  0.976856978341594  0.1598364954603895  1.0000
  C   C46       1.0  0.2583135077204164  0.9086793730601245  0.6226590127278301  1.0000
  C   C47       1.0  0.4090032263915265  0.9961923154886705  0.0014655077199421003  1.0000
  C   C48       1.0  0.6685168701139121  0.6827448313304388  0.50093762044812  1.0000
  C   C49       1.0  0.09547613574929419  0.37005798200826234  0.29578286288931827  1.0000
  C   C50       1.0  0.5711100226829233  0.3061230671574863  0.1468762740127687  1.0000
  C   C51       1.0  0.010250184777504522  0.08998765452695781  0.16389385321868843  1.0000
  C   C52       1.0  0.6821342857651232  0.7714111249363498  0.9166908744954796  1.0000
  C   C53       1.0  0.5297359044642037  0.13300902868169837  0.785720427625833  1.0000
  C   C54       1.0  0.5267196891429436  0.13362422242457936  0.14109065159027523  1.0000
  C   C55       1.0  0.3597408765740937  0.7618650282349648  0.733398351720645  1.0000
  C   C56       1.0  0.6937708589183772  0.2650785474302495  0.146980841838996  1.0000
  C   C57       1.0  0.6694669066650504  0.6836950984785517  0.41667950805880594  1.0000
  C   C58       1.0  0.014370139852061963  0.3315534501883093  0.5011085689780117  1.0000
  C   C59       1.0  0.3809144755280656  0.0654773655541661  0.5423979824511137  1.0000
  C   C60       1.0  0.02007509275315303  0.1850040453247601  0.7613133841989779  1.0000
  C   C61       1.0  0.8662475230585828  0.393213513960319  0.14126524046100292  1.0000
  C   C62       1.0  0.35871266459364654  0.06801488219392848  0.2958259661127657  1.0000
  C   C63       1.0  0.31710490084265786  0.9855228960916734  0.5009781714789057  1.0000
  C   C64       1.0  0.7552999116740227  0.6854229943842399  0.0024309763270267005  1.0000
  C   C65       1.0  0.09985648419606015  0.3396043810433866  0.0036484751851731004  1.0000
  C   C66       1.0  0.27437167773334903  0.9043467178576422  0.2956407384590136  1.0000
  C   C67       1.0  0.5748734074341612  0.6059055474026352  0.9165383077938147  1.0000
  C   C68       1.0  0.6842163539427379  0.6198018107201054  0.6214281971503226  1.0000
  C   C69       1.0  0.13564131370500848  0.523954918044332  0.72708151654534  1.0000
  C   C70       1.0  0.08926414012427847  0.3179343932182874  0.9168930078379349  1.0000
  C   C71       1.0  0.6605253374635683  0.7604161946496791  0.0034737317153883005  1.0000
  C   C72       1.0  0.910004968648842  0.9203573353894684  0.16389453192578432  1.0000
  C   C73       1.0  0.27291380822276795  0.9014985149857894  0.3746664632788992  1.0000
  C   C74       1.0  0.931809804355659  0.29101073427484175  0.2959923827566655  1.0000
  C   C75       1.0  0.9194853482573392  0.008827550558919477  0.7578189240425035  1.0000
  C   C76       1.0  0.6299665354561698  0.7254940659379514  0.2956811677548218  1.0000
  C   C77       1.0  0.0039137855916991735  0.412988362775792  0.0015957459699578005  1.0000
  C   C78       1.0  0.031115409018120554  0.4252635640373228  0.9167366082168302  1.0000
  C   C79       1.0  0.815097551424721  0.8350033576997689  0.7611796724356169  1.0000
  C   C80       1.0  0.711555726415405  0.6414517142879319  0.37487396775186005  1.0000
  C   C81       1.0  0.6516709300403534  0.7453679072812278  0.5435017899732274  1.0000
  C   C82       1.0  0.2547129881973122  0.905962826757744  0.5435508985713541  1.0000
  C   C83       1.0  0.3160742402045926  0.9855586347380692  0.41672067789753  1.0000
  C   C84       1.0  0.9357534611686021  0.315874786628932  0.6216294455305801  1.0000
  C   C85       1.0  0.2659716436669728  0.6952624763414477  0.17954393160954402  1.0000
  C   C86       1.0  0.37999636772493534  0.06427044360091123  0.6214883201191982  1.0000
  C   C87       1.0  0.7348212682397278  0.4288121247306621  0.14701545805282024  1.0000
  C   C88       1.0  0.09831788815279205  0.371363263591924  0.374809858488888  1.0000
  C   C89       1.0  0.9210281093067393  0.2573368796633416  0.9162004911532408  1.0000
  C   C90       1.0  0.008782923782476406  0.0892565783151653  0.7579169118491579  1.0000
  C   C91       1.0  0.07959975268344281  0.9897297116030401  0.1637257493358035  1.0000
  C   C92       1.0  0.8669650762814245  0.39664936357277725  0.7857586856882933  1.0000
  C   C93       1.0  0.33640071684795464  0.07901221398886081  0.9160968159145356  1.0000
  C   C94       1.0  0.6844253568702998  0.6187821505668013  0.5423416655775669  1.0000
  C   C95       1.0  0.6960287902720527  0.2666241179831276  0.7790450205502212  1.0000
  C   C96       1.0  0.6373843922039413  0.40025204373454665  0.7791265787015078  1.0000
  C   C97       1.0  0.7623422087023217  0.3605469313052226  0.1468696691330607  1.0000
  C   C98       1.0  0.42881325820498256  0.7356507333601953  0.733811478854996  1.0000
  C   C99       1.0  0.5997599117068049  0.2370469911281176  0.7792144399838891  1.0000
  C   C100      1.0  0.7428003934683572  0.663830545239179  0.9160687886937141  1.0000
  C   C101      1.0  0.4291911539646875  0.7340606219326915  0.17950405370290673  1.0000
  C   C102      1.0  0.38854145515278304  0.8644267495833234  0.7270487512139853  1.0000
  N   N1        1.0  0.6678692512451008  0.6815478716444757  0.25721878345584065  1.0000
  N   N2        1.0  0.6677803125604812  0.6791352659919738  0.03340389232931781  1.0000
  N   N3        1.0  0.3182587912557797  0.986226788158831  0.2572325888801856  1.0000
  N   N4        1.0  0.6674262046843538  0.680291327843996  0.6606085915544498  1.0000
  N   N5        1.0  0.6673926452652525  0.6805454240009824  0.8854702731343522  1.0000
  N   N6        1.0  0.013211442130526219  0.3327352029505307  0.8856250427794023  1.0000
  N   N7        1.0  0.011274816436682066  0.33228182236161535  0.033569778955651906  1.0000
  N   N8        1.0  0.013051914329949618  0.3326912980425832  0.66077252753189  1.0000
  N   N9        1.0  0.013587656349209143  0.3321592346729646  0.2573973543521078  1.0000
  N   N10       1.0  0.319771927904256  0.9868822097886465  0.6606652518706754  1.0000
  N   N11       1.0  0.31954372051837526  0.9867945400325625  0.885469852952369  1.0000
  N   N12       1.0  0.32084730336292516  0.9886574477381278  0.0334254398921772  1.0000
  O   O1        1.0  0.08618328926011293  0.5356705537010242  0.23849522998819592  1.0000
  O   O2        1.0  0.7414815532698855  0.8455904913905672  0.16066719812239683  1.0000
  O   O3        1.0  0.9452681875355253  0.19264180817636875  0.7665912850459479  1.0000
  O   O4        1.0  0.546856366051543  0.6626898036569601  0.7737759536343348  1.0000
  O   O5        1.0  0.7425131301487017  0.8431518695662351  0.7611340191649845  1.0000
  O   O6        1.0  0.6697473622303604  0.5571745376615382  0.7726142669848387  1.0000
  O   O7        1.0  0.33737023965120755  0.8839689748692622  0.773797731012401  1.0000
  O   O8        1.0  0.9227520165969025  0.4792162821544821  0.8046091588173924  1.0000
  O   O9        1.0  0.3442776698760995  0.8883841506959128  0.14196517151712842  1.0000
  O   O10       1.0  0.08264420578242249  0.5317224502943675  0.6818769413281206  1.0000
  O   O11       1.0  0.4644416573580943  0.5506812565415659  0.23828333008501099  1.0000
  O   O12       1.0  0.6760536918715374  0.5606101089884916  0.14714760923438064  1.0000
  O   O13       1.0  0.44940480133364274  0.9174996544069742  0.6819444639858503  1.0000
  O   O14       1.0  0.11155101894546263  0.45598332650591544  0.1421331440007094  1.0000
  O   O15       1.0  0.4493525621760102  0.9139450570178341  0.23829688873090052  1.0000
  O   O16       1.0  0.8058466363277008  0.7543142551550376  0.1531237503774818  1.0000
  O   O17       1.0  0.8875716429326986  0.33034767804898724  0.7727567392938113  1.0000
  O   O18       1.0  0.5440382012958483  0.6557902853932237  0.1419657167062525  1.0000
  O   O19       1.0  0.9484086282745069  0.19421436470266687  0.15327630693780492  1.0000
  O   O20       1.0  0.8843293012740504  0.3238497298731888  0.1473462044599927  1.0000
  O   O21       1.0  0.11601476838858825  0.4533061186834786  0.7739216829709862  1.0000
  O   O22       1.0  0.10082811558760349  0.2575877292319505  0.7613083854626269  1.0000
  O   O23       1.0  0.4684398837458375  0.5508292476033603  0.6817573584510229  1.0000
  O   O24       1.0  0.5564454458806481  0.0772147327358824  0.8046813530704854  1.0000
  O   O25       1.0  0.154270921712538  0.895886521430228  0.16057986157412074  1.0000
  O   O26       1.0  0.4392948416843439  0.11552829883876829  0.1472540292323359  1.0000
  O   O27       1.0  0.5524244396526967  0.0755834117505998  0.12897647155356404  1.0000
  O   O28       1.0  0.5229646024425705  0.4474208327644362  0.1289412420045863  1.0000
  O   O29       1.0  0.44286290928158684  0.1124309408039608  0.7726053038009227  1.0000
  O   O30       1.0  0.1568740736219427  0.8992509383369339  0.7610854219059534  1.0000
  O   O31       1.0  0.5208206558824885  0.4435188258017179  0.8043818046614818  1.0000
  O   O32       1.0  0.10404260713659143  0.2585287972472443  0.1608211170371803  1.0000
  O   O33       1.0  0.24752155919679103  0.05481599071142538  0.7664307739205968  1.0000
  O   O34       1.0  0.8074480509945658  0.7525331658207719  0.7664149601088612  1.0000
  O   O35       1.0  0.924298978878895  0.47697446972170354  0.1291976467280307  1.0000
  O   O36       1.0  0.24564311711865375  0.051520679654629455  0.1530717077218924  1.0000
