data_image0
_chemical_formula_structural       Cd2H36C38N4O8
_chemical_formula_sum              "Cd2 H36 C38 N4 O8"
_cell_length_a       9.905442110958013
_cell_length_b       10.01859954770088
_cell_length_c       11.267136685448396
_cell_angle_alpha    66.42672443683995
_cell_angle_beta     86.87792000611137
_cell_angle_gamma    63.43311775962971

_space_group_name_H-M_alt    "P 1"
_space_group_IT_number       1

loop_
  _space_group_symop_operation_xyz
  'x, y, z'

loop_
  _atom_site_type_symbol
  _atom_site_label
  _atom_site_symmetry_multiplicity
  _atom_site_fract_x
  _atom_site_fract_y
  _atom_site_fract_z
  _atom_site_occupancy
  Cd  Cd1       1.0  0.9288648006685847  0.8348365559730483  0.5880590916872706  1.0000
  Cd  Cd2       1.0  0.07113179531592809  0.16516485468771694  0.4119400429286485  1.0000
  H   H1        1.0  0.21726184988401798  0.7567655308984698  0.4272338505495055  1.0000
  H   H2        1.0  0.7827382646990202  0.24323710281642968  0.5727735557349546  1.0000
  H   H3        1.0  0.3169247512978687  0.640589612472546  0.2606524466749179  1.0000
  H   H4        1.0  0.6830768716886979  0.359404418061068  0.7393535694421727  1.0000
  H   H5        1.0  0.1610720185293245  0.5488283608354295  0.17275437873556138  1.0000
  H   H6        1.0  0.8389316310990864  0.45116564061710573  0.8272542178829596  1.0000
  H   H7        1.0  0.9246013425548655  0.5229109883223944  0.16645507466071036  1.0000
  H   H8        1.0  0.07539572031279111  0.47708679368776075  0.833547128376857  1.0000
  H   H9        1.0  0.675644835962366  0.5640391737251633  0.24052082883035544  1.0000
  H   H10       1.0  0.32434923453548936  0.43596594639831215  0.759476189938475  1.0000
  H   H11       1.0  0.47621468921914784  0.6705684286395341  0.3735535370670106  1.0000
  H   H12       1.0  0.5237774301962902  0.32944396979208085  0.6264364962423059  1.0000
  H   H13       1.0  0.3989310589589294  0.7908783534626949  0.5380642684126611  1.0000
  H   H14       1.0  0.6010614716397669  0.2091255921220991  0.4619323588030326  1.0000
  H   H15       1.0  0.5873879062716297  0.8435189335933871  0.6305307438602837  1.0000
  H   H16       1.0  0.4126096394600084  0.15647519390064704  0.36947276106094756  1.0000
  H   H17       1.0  0.3211659594819665  0.9328325692678875  0.7053568971777578  1.0000
  H   H18       1.0  0.6788408898009948  0.0671635872706773  0.29463923351210747  1.0000
  H   H19       1.0  0.3934450076909711  0.7290416952139723  0.8297064054992659  1.0000
  H   H20       1.0  0.6065582510797327  0.27095335466525233  0.17028940294302689  1.0000
  H   H21       1.0  0.18193340881006032  0.8165780243630467  0.9529602628637618  1.0000
  H   H22       1.0  0.8180759339978892  0.1834144744438291  0.04704151674918218  1.0000
  H   H23       1.0  0.0933968457217276  0.016682744450974996  0.8279002171491213  1.0000
  H   H24       1.0  0.9066099357592207  0.9833110646532645  0.1721020926280873  1.0000
  H   H25       1.0  0.4086018406205054  0.8555860221096553  0.9899588010912196  1.0000
  H   H26       1.0  0.5914065245903756  0.14441134776585332  0.0100403709587695  1.0000
  H   H27       1.0  0.32277454500126623  0.05326639993687371  0.8608138799575399  1.0000
  H   H28       1.0  0.6772312470134877  0.9467298422723901  0.13918581846109382  1.0000
  H   H29       1.0  0.19042631299832644  0.9417954629876776  0.11374572426023381  1.0000
  H   H30       1.0  0.8095830816308123  0.05819940911903393  0.8862516428033587  1.0000
  H   H31       1.0  0.10089314295957051  0.138257669980419  0.9836424003033456  1.0000
  H   H32       1.0  0.8991105906846923  0.8617337383154438  0.016355593291599625  1.0000
  H   H33       1.0  0.4189045754658664  0.9860481728592206  0.1365844576276486  1.0000
  H   H34       1.0  0.5810961016522782  0.013955591737492104  0.8634180752487595  1.0000
  H   H35       1.0  0.3152848247219424  0.1920694120334474  0.0173418138702885  1.0000
  H   H36       1.0  0.6847148471821997  0.807931896808306  0.9826572167872881  1.0000
  C   C1        1.0  0.1546796942388226  0.7147493571541617  0.3867957072350804  1.0000
  C   C2        1.0  0.8453173444245863  0.2852533783797496  0.6132118030077222  1.0000
  C   C3        1.0  0.20828675792932208  0.651314685039722  0.29283184554157066  1.0000
  C   C4        1.0  0.7917133169346541  0.3486830986134564  0.7071773196896273  1.0000
  C   C5        1.0  0.12248333307442034  0.6030561544683338  0.242916857076203  1.0000
  C   C6        1.0  0.8775172803534234  0.39694279886492717  0.7570900845539296  1.0000
  C   C7        1.0  0.9806261163846699  0.6222051898676995  0.28529030462062366  1.0000
  C   C8        1.0  0.01937249026086356  0.37779621757750453  0.7147131770347172  1.0000
  C   C9        1.0  0.8845789303173316  0.5775734765864016  0.23612452788727006  1.0000
  C   C10       1.0  0.11542074957722553  0.4224278193225929  0.7638736195013108  1.0000
  C   C11       1.0  0.7467154333751154  0.6007635416313593  0.27743441241872796  1.0000
  C   C12       1.0  0.25328225160624374  0.3992426463531801  0.7225602787906951  1.0000
  C   C13       1.0  0.6950818228127671  0.6692413142538527  0.3708353058040927  1.0000
  C   C14       1.0  0.30491125022849985  0.3307662519073915  0.6291599848751587  1.0000
  C   C15       1.0  0.5523273112072856  0.698663547832801  0.4141888802865807  1.0000
  C   C16       1.0  0.44766424179434233  0.30134526882062573  0.5858051393661654  1.0000
  C   C17       1.0  0.5102825583477182  0.763325347881434  0.5059334412073041  1.0000
  C   C18       1.0  0.48970743078350404  0.23668233303158107  0.4940628366992853  1.0000
  C   C19       1.0  0.6128107251679323  0.797489318122999  0.5549530349538684  1.0000
  C   C20       1.0  0.38718332547039574  0.20251337696961974  0.4450448632883308  1.0000
  C   C21       1.0  0.7892562344712957  0.7117669126134701  0.4238561231801014  1.0000
  C   C22       1.0  0.2107388056332198  0.28823334937413136  0.5761443864206724  1.0000
  C   C23       1.0  0.9348267770579779  0.6879471303939512  0.37996906613451387  1.0000
  C   C24       1.0  0.06517181383973279  0.3120493881912623  0.6200335246605704  1.0000
  C   C25       1.0  0.1867250991337245  0.8123561763032967  0.7088432823350173  1.0000
  C   C26       1.0  0.8132766313739238  0.18764505172636348  0.2911547957480067  1.0000
  C   C27       1.0  0.2882200455914159  0.8447360803414128  0.7780861464658527  1.0000
  C   C28       1.0  0.7117821796493189  0.15526393113573533  0.22191323729646228  1.0000
  C   C29       1.0  0.20588224871255514  0.910832215312212  0.8770967105614104  1.0000
  C   C30       1.0  0.7941255779344586  0.08916398488321423  0.12290468508965091  1.0000
  C   C31       1.0  0.29671043494898436  0.962144646974572  0.9387706989840578  1.0000
  C   C32       1.0  0.7032963702701948  0.03785403805689211  0.061231618384411504  1.0000
  C   C33       1.0  0.21355766175294377  0.0333681711435361  0.0338710315020592  1.0000
  C   C34       1.0  0.7864486329853191  0.9666268415804639  0.9661290893268697  1.0000
  C   C35       1.0  0.3032744881497749  0.0888118717567181  0.0929888191499941  1.0000
  C   C36       1.0  0.6967256506375107  0.911185808434425  0.907013279929238  1.0000
  C   C37       1.0  0.2286235425197489  0.1374613438296066  0.20067707095437018  1.0000
  C   C38       1.0  0.7713786509923393  0.8625338046530758  0.7993231884856724  1.0000
  N   N1        1.0  0.023027763771970768  0.7305893339371681  0.42983164879697705  1.0000
  N   N2        1.0  0.9769698335478411  0.26941208158218904  0.5701701009731507  1.0000
  N   N3        1.0  0.7467757643639813  0.7743107017763792  0.5140758012830274  1.0000
  N   N4        1.0  0.2532187691383286  0.22568833880011852  0.4859233988428214  1.0000
  O   O1        1.0  0.13806128900130682  0.7124572058226664  0.775161772838423  1.0000
  O   O2        1.0  0.8619384187431933  0.28754650218443356  0.22483461180780037  1.0000
  O   O3        1.0  0.14832370756835178  0.8921878853746181  0.5830062502809666  1.0000
  O   O4        1.0  0.8516764791614264  0.10780971721999323  0.4169905491842911  1.0000
  O   O5        1.0  0.21025405876007847  0.02476855146746  0.297198631720576  1.0000
  O   O6        1.0  0.7897430598074706  0.9752340547388982  0.7028000458322694  1.0000
  O   O7        1.0  0.18795311919053864  0.2790713203675423  0.19419835078452508  1.0000
  O   O8        1.0  0.8120455155379457  0.720927584450273  0.8058007107302101  1.0000
