data_image0
_chemical_formula_structural       Zr6H20C52O34F10
_chemical_formula_sum              "Zr6 H20 C52 O34 F10"
_cell_length_a       14.80123977885465
_cell_length_b       14.782020020093581
_cell_length_c       14.804443989606686
_cell_angle_alpha    59.966510234111574
_cell_angle_beta     59.922784769822805
_cell_angle_gamma    60.06027812054839

_space_group_name_H-M_alt    "P 1"
_space_group_IT_number       1

loop_
  _space_group_symop_operation_xyz
  'x, y, z'

loop_
  _atom_site_type_symbol
  _atom_site_label
  _atom_site_symmetry_multiplicity
  _atom_site_fract_x
  _atom_site_fract_y
  _atom_site_fract_z
  _atom_site_occupancy
  Zr  Zr1       1.0  0.8765807033917098  0.8829925045226406  0.6208409394117852  1.0000
  Zr  Zr2       1.0  0.11633753224354139  0.1227115356874506  0.3838285557498224  1.0000
  Zr  Zr3       1.0  0.11496120855839805  0.8818071724355432  0.6230940655124118  1.0000
  Zr  Zr4       1.0  0.8782396320522708  0.1232137588661431  0.38210161880300575  1.0000
  Zr  Zr5       1.0  0.11704340440912395  0.8836366661822268  0.38273705282677645  1.0000
  Zr  Zr6       1.0  0.8766715455390754  0.12172029796825966  0.6228317101934024  1.0000
  H   H1        1.0  0.09091938019403044  0.7202674432262697  0.5938484559875407  1.0000
  H   H2        1.0  0.09393902709837218  0.09639625512956229  0.22006729375366527  1.0000
  H   H3        1.0  0.08935154984188642  0.09626080355425164  0.5991243213114075  1.0000
  H   H4        1.0  0.714231277962213  0.0974560412810135  0.5958541262782121  1.0000
  H   H5        1.0  0.1561506041715575  0.5665985968240506  0.39250398340740134  1.0000
  H   H6        1.0  0.813677094538008  0.4695637405444516  0.575764629118062  1.0000
  H   H7        1.0  0.605717005077331  0.12490777660099879  0.9307924798540058  1.0000
  H   H8        1.0  0.4080457913871954  0.8597808780229315  0.09463811443916363  1.0000
  H   H9        1.0  0.8148734558155155  0.07318123967242217  0.14798853370515264  1.0000
  H   H10       1.0  0.15402366565837142  0.8901735010440747  0.8899301051565376  1.0000
  H   H11       1.0  0.5900776966592858  0.4165890265672303  0.35741009725675355  1.0000
  H   H12       1.0  0.4250531217625734  0.6101330637162192  0.6258062368256533  1.0000
  H   H13       1.0  0.9759040882239702  0.5761039682605329  0.7393205671193358  1.0000
  H   H14       1.0  0.9680838926436268  0.24219507937290533  0.07992720249607285  1.0000
  H   H15       1.0  0.03946005614881904  0.4823130567296305  0.14991100285843123  1.0000
  H   H16       1.0  0.038769111304574555  0.651945260541254  0.9803268390485371  1.0000
  H   H17       1.0  0.594548387047212  0.8537386669018473  0.6359404869020651  1.0000
  H   H18       1.0  0.41971609468534865  0.13014880199761342  0.3480201969121738  1.0000
  H   H19       1.0  0.9574271302551695  0.3411410025518223  0.7490960401319315  1.0000
  H   H20       1.0  0.948493874539267  0.17447662573579242  0.9765580566200996  1.0000
  C   C1        1.0  0.9867765199002888  0.7093911124195318  0.49227515870760635  1.0000
  C   C2        1.0  0.3065789947736663  0.9995562464658149  0.20617112570155882  1.0000
  C   C3        1.0  0.9925118709885935  0.31220742503573723  0.49532192844289835  1.0000
  C   C4        1.0  0.698264584735  0.994590310906105  0.8102247190316377  1.0000
  C   C5        1.0  0.9966563570248183  0.6976913095566883  0.8053940158213351  1.0000
  C   C6        1.0  0.6995785292193518  0.0008783229022383599  0.49202480832956746  1.0000
  C   C7        1.0  0.9963979289368651  0.30707910494435003  0.1982587121245699  1.0000
  C   C8        1.0  0.3040901497627998  0.9939266266110637  0.5022766034134635  1.0000
  C   C9        1.0  0.30506427707715  0.7042491383368275  0.4948867637009685  1.0000
  C   C10       1.0  0.9846146269993528  0.9929081581389454  0.8166084587456272  1.0000
  C   C11       1.0  0.7008894839819252  0.3128844653534698  0.49809656438004873  1.0000
  C   C12       1.0  0.9950398893787734  0.9928978685386979  0.20443766017373843  1.0000
  C   C13       1.0  0.989127872382774  0.41921029041284913  0.4859865151369435  1.0000
  C   C14       1.0  0.9815214346178253  0.6155649783425119  0.4839757613839881  1.0000
  C   C15       1.0  0.08401048296708778  0.45030367158069146  0.4329201970423001  1.0000
  C   C16       1.0  0.8857045197991552  0.5873756399749939  0.5322755345819417  1.0000
  C   C17       1.0  0.0807621805637664  0.5461072090311634  0.43165030627618256  1.0000
  C   C18       1.0  0.8888084349397047  0.4911238929574183  0.5342299308928133  1.0000
  C   C19       1.0  0.4112072886498764  0.996029868080967  0.10893163672739099  1.0000
  C   C20       1.0  0.6013584746960986  0.9899836118917732  0.9151563230345231  1.0000
  C   C21       1.0  0.47015000179735716  0.06889973371391281  0.06149187275561016  1.0000
  C   C22       1.0  0.5444581179578021  0.9148086076081655  0.9646533228611601  1.0000
  C   C23       1.0  0.5625286417928024  0.06657088383060031  0.9666455936913039  1.0000
  C   C24       1.0  0.4515417301458273  0.9178257551815606  0.0589238337277892  1.0000
  C   C25       1.0  0.9801681833196979  0.9838095626115475  0.9242107281259777  1.0000
  C   C26       1.0  0.9904841141241577  0.9830704962695477  0.11099385237324812  1.0000
  C   C27       1.0  0.8849475629276499  0.03177050931787322  0.0005771613072838208  1.0000
  C   C28       1.0  0.0840614595074812  0.9292578789653304  0.03821238080416126  1.0000
  C   C29       1.0  0.8894525745472421  0.03272056975492182  0.09162023866576863  1.0000
  C   C30       1.0  0.07935639652949085  0.9296996811757055  0.9467886187049147  1.0000
  C   C31       1.0  0.4100891422012937  0.6076086464085577  0.489792551536084  1.0000
  C   C32       1.0  0.6039100124311859  0.4176992827740662  0.494791648081801  1.0000
  C   C33       1.0  0.46002834660784947  0.5518907195524464  0.41368837080861454  1.0000
  C   C34       1.0  0.5562155396103777  0.4757307784778319  0.5683965758019269  1.0000
  C   C35       1.0  0.5542804614186139  0.45913555141422085  0.41616602697299493  1.0000
  C   C36       1.0  0.4613473508129074  0.5678976350183121  0.566649857659911  1.0000
  C   C37       1.0  0.0011925656587621373  0.5926746857196928  0.9017574414293109  1.0000
  C   C38       1.0  0.9856731700255282  0.5027407302950592  0.9054552311607867  1.0000
  C   C39       1.0  0.022850088119440552  0.5837606760423243  0.9874613187203565  1.0000
  C   C40       1.0  0.978059334797159  0.5032713371483838  0.8133379459239621  1.0000
  C   C41       1.0  0.9715088373849101  0.4122529881334602  0.8163549044305398  1.0000
  C   C42       1.0  0.0006212203248736236  0.40292749831609603  0.09273507605945504  1.0000
  C   C43       1.0  0.023009877396788166  0.4890417288855248  0.08240244864443726  1.0000
  C   C44       1.0  0.9841753717128653  0.40601805391805357  0.0037859411936409745  1.0000
  C   C45       1.0  0.9733317911149868  0.31478554539145165  0.005537769343540259  1.0000
  C   C46       1.0  0.968447986896244  0.3175569982105486  0.9138919509328076  1.0000
  C   C47       1.0  0.4096586829559073  0.9890662924969434  0.49783958881017304  1.0000
  C   C48       1.0  0.6029738766481787  0.9965430169485285  0.48772897541113747  1.0000
  C   C49       1.0  0.4625695229292791  0.9107321372412471  0.5769124394630438  1.0000
  C   C50       1.0  0.552736324366755  0.0720664136162555  0.4061104433218788  1.0000
  C   C51       1.0  0.5564196973747358  0.9144357032063153  0.5725606589299018  1.0000
  C   C52       1.0  0.4581258396356062  0.06919893180165093  0.4111507307311228  1.0000
  O   O1        1.0  0.9133213711283761  0.7443877841966682  0.5727895593571051  1.0000
  O   O2        1.0  0.26404239743658314  0.07806459153527359  0.24398417276208315  1.0000
  O   O3        1.0  0.07070352986769998  0.26892146401245753  0.42194180819146965  1.0000
  O   O4        1.0  0.7366647685586402  0.9206977113968478  0.767632287927171  1.0000
  O   O5        1.0  0.07127693789284002  0.7396113013498533  0.7684306479506448  1.0000
  O   O6        1.0  0.7375752758630298  0.07961040027906557  0.41814644248157856  1.0000
  O   O7        1.0  0.9191964009647293  0.2668784626504888  0.23941655729350222  1.0000
  O   O8        1.0  0.2609294366543724  0.92040536653122  0.5812603665075999  1.0000
  O   O9        1.0  0.2624162849599047  0.7421437486004335  0.4212444636350057  1.0000
  O   O10       1.0  0.9121087350438016  0.0744489471005708  0.7745047021600797  1.0000
  O   O11       1.0  0.7377329147095893  0.2696753603638485  0.5773692975187714  1.0000
  O   O12       1.0  0.0743573835014855  0.9212497333283453  0.24100403628531814  1.0000
  O   O13       1.0  0.06495801531053766  0.9198975984973429  0.7740514104005244  1.0000
  O   O14       1.0  0.7375265536645018  0.2729446988773391  0.4224766813239214  1.0000
  O   O15       1.0  0.9195964114647027  0.07365417992047431  0.23813562402314392  1.0000
  O   O16       1.0  0.26494348237748255  0.7405708951604665  0.5740331929120472  1.0000
  O   O17       1.0  0.9193804555373717  0.7391047820041196  0.7660622909581393  1.0000
  O   O18       1.0  0.26402845400613006  0.07337639760134346  0.42710219949642436  1.0000
  O   O19       1.0  0.06962148512540269  0.2710715970337533  0.24087626235159834  1.0000
  O   O20       1.0  0.7349959897409948  0.9261940228019582  0.5718137874004301  1.0000
  O   O21       1.0  0.7343119481621797  0.07424445063011119  0.7699883830080196  1.0000
  O   O22       1.0  0.06830485710646168  0.7436815164508771  0.4205673969915439  1.0000
  O   O23       1.0  0.2658927582339317  0.9244599684294386  0.24228651663194264  1.0000
  O   O24       1.0  0.9177518056115163  0.27188415430936874  0.5764225716323851  1.0000
  O   O25       1.0  0.7944605120756805  0.07082133987798042  0.56892273776365  1.0000
  O   O26       1.0  0.06253577874414153  0.06949865794402395  0.572443669335627  1.0000
  O   O27       1.0  0.06516131803544306  0.070074173202002  0.3002950609560457  1.0000
  O   O28       1.0  0.06364356821477223  0.8005319758500703  0.5684871679171267  1.0000
  O   O29       1.0  0.14509079983993414  0.953240946911791  0.453888842746011  1.0000
  O   O30       1.0  0.9474232424217633  0.9540111923360186  0.4516807164934421  1.0000
  O   O31       1.0  0.94733134875856  0.15115818991258587  0.4536426813184136  1.0000
  O   O32       1.0  0.946279749307884  0.9528280986546918  0.6508451501796987  1.0000
  O   O33       1.0  0.9674731540373858  0.41085609179484817  0.7271523995548251  1.0000
  O   O34       1.0  0.9610858850193298  0.2337130666526263  0.9051245569074595  1.0000
  F   F1        1.0  0.18398350475267478  0.38443579805184663  0.38503403044973794  1.0000
  F   F2        1.0  0.7862927585546376  0.6540977529041071  0.5796658269606214  1.0000
  F   F3        1.0  0.43855553522816854  0.14457265081083653  0.10684479058245702  1.0000
  F   F4        1.0  0.5771553420303518  0.8375543418836173  0.9208855515182536  1.0000
  F   F5        1.0  0.7852833405875616  0.07972654399940647  0.9868649261003027  1.0000
  F   F6        1.0  0.1838936573504456  0.8790715512436191  0.05192697432945444  1.0000
  F   F7        1.0  0.41686705390529954  0.5856587951999047  0.33564833295483254  1.0000
  F   F8        1.0  0.6013425044362464  0.4433898511460087  0.6444711420828996  1.0000
  F   F9        1.0  0.42279035453427855  0.8288492087639836  0.6618896882735542  1.0000
  F   F10       1.0  0.5949183022953619  0.15158762364713854  0.3190609042175439  1.0000
