data_image0
_chemical_formula_structural       U2H8C10N4O14
_chemical_formula_sum              "U2 H8 C10 N4 O14"
_cell_length_a       5.69660945139833
_cell_length_b       8.942244155544566
_cell_length_c       9.842227118749586
_cell_angle_alpha    99.93648231125104
_cell_angle_beta     97.83612845005429
_cell_angle_gamma    114.51815121883632

_space_group_name_H-M_alt    "P 1"
_space_group_IT_number       1

loop_
  _space_group_symop_operation_xyz
  'x, y, z'

loop_
  _atom_site_type_symbol
  _atom_site_label
  _atom_site_symmetry_multiplicity
  _atom_site_fract_x
  _atom_site_fract_y
  _atom_site_fract_z
  _atom_site_occupancy
  U   U1        1.0  0.9989134881633959  0.7854167354570478  0.4325789696522975  1.0000
  U   U2        1.0  0.0010856086464840972  0.21458088063446465  0.5674218090455554  1.0000
  H   H1        1.0  0.36578978690527464  0.07746441927911721  0.6441221571016484  1.0000
  H   H2        1.0  0.6342211647632328  0.9225379726252426  0.35587448337166455  1.0000
  H   H3        1.0  0.2265758544306492  0.5522614976920293  0.06278757747782043  1.0000
  H   H4        1.0  0.7734273972907746  0.4477399909859231  0.9372143752749478  1.0000
  H   H5        1.0  0.8628649675365452  0.07496275376772843  0.12574165409337473  1.0000
  H   H6        1.0  0.13713315006356208  0.9250361463491571  0.8742583098243556  1.0000
  H   H7        1.0  0.26144846276091027  0.0967348004118875  0.2536868963246803  1.0000
  H   H8        1.0  0.738553100187268  0.9032668057379496  0.746312911457764  1.0000
  C   C1        1.0  0.7389523971065232  0.3697554682884316  0.32703599231780334  1.0000
  C   C2        1.0  0.2610509892820475  0.6302433736515242  0.6729674296192981  1.0000
  C   C3        1.0  0.4931463486768167  0.3504382330238016  0.23648262015915122  1.0000
  C   C4        1.0  0.5068533905189556  0.6495632944387779  0.7635170272473673  1.0000
  C   C5        1.0  0.48029387008835306  0.4872636653166325  0.1823195993152353  1.0000
  C   C6        1.0  0.5197051595439534  0.5127366955924515  0.8176787179010886  1.0000
  C   C7        1.0  0.0082148104020092  0.3044070751681645  0.07262188630731001  1.0000
  C   C8        1.0  0.9917625363582019  0.6955897928354489  0.9273749832849986  1.0000
  C   C9        1.0  0.26523644946815494  0.20189414273147577  0.21039925129537804  1.0000
  C   C10       1.0  0.7347630200813031  0.7981098353099726  0.7896009115211983  1.0000
  N   N1        1.0  0.2384423431392265  0.4521186086759386  0.0998187147564096  1.0000
  N   N2        1.0  0.7615565515139197  0.5478815560740175  0.9001815870543054  1.0000
  N   N3        1.0  0.03386594153244005  0.17961456696257733  0.1310763896353606  1.0000
  N   N4        1.0  0.9661382222211828  0.8203883825075736  0.8689239164160083  1.0000
  O   O1        1.0  0.7127928342740334  0.6890742122751944  0.504460416096009  1.0000
  O   O2        1.0  0.28720872867413766  0.31092739387463547  0.4955393916864352  1.0000
  O   O3        1.0  0.27630127682599004  0.8738227287357178  0.3480087898213783  1.0000
  O   O4        1.0  0.7237087624983047  0.12617535947931918  0.6519929511320511  1.0000
  O   O5        1.0  0.9515518207104563  0.5085642773479934  0.349630100224715  1.0000
  O   O6        1.0  0.04845247771032051  0.49143602538415376  0.6503716750109874  1.0000
  O   O7        1.0  0.7277096256339421  0.24512889326854295  0.37537014576156474  1.0000
  O   O8        1.0  0.27228612860912466  0.7548719864217049  0.6246341423790724  1.0000
  O   O9        1.0  0.6666205504298119  0.6343683308921158  0.20324028429946137  1.0000
  O   O10       1.0  0.33338050511162726  0.36562956004578956  0.7967586701799333  1.0000
  O   O11       1.0  0.7924265643332548  0.28188424829149744  0.0032617815334177323  1.0000
  O   O12       1.0  0.20757594562680037  0.718121847305504  0.9967441789310527  1.0000
  O   O13       1.0  0.16993259667587074  0.029347733636946316  0.6228015892846697  1.0000
  O   O14       1.0  0.8300684588655686  0.9706501573009518  0.3771973651947249  1.0000
