data_image0
_chemical_formula_structural       Zn4H48C100N4O40
_chemical_formula_sum              "Zn4 H48 C100 N4 O40"
_cell_length_a       14.124821177707528
_cell_length_b       20.455291432591395
_cell_length_c       22.466522973002032
_cell_angle_alpha    89.79031762634891
_cell_angle_beta     93.24457993244671
_cell_angle_gamma    87.81812584030692

_space_group_name_H-M_alt    "P 1"
_space_group_IT_number       1

loop_
  _space_group_symop_operation_xyz
  'x, y, z'

loop_
  _atom_site_type_symbol
  _atom_site_label
  _atom_site_symmetry_multiplicity
  _atom_site_fract_x
  _atom_site_fract_y
  _atom_site_fract_z
  _atom_site_occupancy
  Zn  Zn1       1.0  0.39693842255382356  0.9988379194350115  0.49653178823149346  1.0000
  Zn  Zn2       1.0  0.6090064667685342  0.9976161729840737  0.5026468670961464  1.0000
  Zn  Zn3       1.0  0.39126121184701657  0.4998827438922645  0.9967158276107565  1.0000
  Zn  Zn4       1.0  0.60536320318667  0.49724203036917897  0.0018569855663769987  1.0000
  H   H1        1.0  0.7278989174318581  0.8315874298525756  0.7615190545064646  1.0000
  H   H2        1.0  0.2843953685982967  0.1520956557188882  0.2309494307184963  1.0000
  H   H3        1.0  0.734063854524962  0.17922487926865927  0.7449678938028794  1.0000
  H   H4        1.0  0.2721954934224443  0.8243360239066247  0.25020190712956486  1.0000
  H   H5        1.0  0.7152808289489628  0.3347240947538026  0.2600225461064554  1.0000
  H   H6        1.0  0.291106000238642  0.6557372107629218  0.7324648909772475  1.0000
  H   H7        1.0  0.7338261409351929  0.6564301793210702  0.25414299105673166  1.0000
  H   H8        1.0  0.2677545875131316  0.3403285395018756  0.7425654620706155  1.0000
  H   H9        1.0  0.0842678921474658  0.16146994169903187  0.5289779982003039  1.0000
  H   H10       1.0  0.921705539061527  0.8352006760729156  0.4697849107977276  1.0000
  H   H11       1.0  0.0976438661642689  0.8326855894103957  0.4822159391357843  1.0000
  H   H12       1.0  0.9083284377264677  0.16397628064056846  0.5169792950292518  1.0000
  H   H13       1.0  0.07121285877050097  0.6460275315845863  0.927939827301493  1.0000
  H   H14       1.0  0.9249650047967891  0.34892167143971164  0.06636897315056699  1.0000
  H   H15       1.0  0.10095767545415411  0.3486792431066873  0.06557553954391439  1.0000
  H   H16       1.0  0.8953744242162572  0.6461952823312841  0.9285635187982562  1.0000
  H   H17       1.0  0.3112627286147713  0.09434756363835109  0.2906681254897308  1.0000
  H   H18       1.0  0.6986391980655783  0.8934593063951225  0.7052655693655507  1.0000
  H   H19       1.0  0.34932461576128304  0.9155591435592997  0.3686695198865308  1.0000
  H   H20       1.0  0.6570489130325683  0.08443866792855198  0.628493993821273  1.0000
  H   H21       1.0  0.3097871334364584  0.6033073668095739  0.7968029674616586  1.0000
  H   H22       1.0  0.6927007737997785  0.38986211098427503  0.19723230963280258  1.0000
  H   H23       1.0  0.3418387944994877  0.4295649767629541  0.8633416526011782  1.0000
  H   H24       1.0  0.6552379063991154  0.5642470285237805  0.1358956293857148  1.0000
  H   H25       1.0  0.622308446443057  0.17717345557996103  0.40146988336181977  1.0000
  H   H26       1.0  0.3835735807357423  0.8171634807126936  0.5946696098455105  1.0000
  H   H27       1.0  0.6500202947315826  0.8342141030888327  0.3807261828218387  1.0000
  H   H28       1.0  0.35509168669651814  0.16302151208195426  0.6166827304965635  1.0000
  H   H29       1.0  0.6219289558753688  0.6858994449163377  0.9081622010209285  1.0000
  H   H30       1.0  0.3794392674348757  0.3066831697220848  0.08794144274273208  1.0000
  H   H31       1.0  0.6450832585061123  0.35693349155609155  0.8724419594167329  1.0000
  H   H32       1.0  0.3562683383012911  0.6451587309167479  0.12337396829066448  1.0000
  H   H33       1.0  0.7158157737622234  0.23394587095734914  0.3837910977850498  1.0000
  H   H34       1.0  0.2945446056036971  0.7555196781175652  0.6083166156505512  1.0000
  H   H35       1.0  0.7998110557981947  0.7174948058041437  0.32999939761639746  1.0000
  H   H36       1.0  0.2034033651087839  0.27882951684232177  0.6664773546679256  1.0000
  H   H37       1.0  0.730068474822211  0.724961448838151  0.8812100245411117  1.0000
  H   H38       1.0  0.28041802203876637  0.2563269081506405  0.10952021349257987  1.0000
  H   H39       1.0  0.7983433434231983  0.2404213062473844  0.8212011577291417  1.0000
  H   H40       1.0  0.2067610035665908  0.7644054464143011  0.1734939596486882  1.0000
  H   H41       1.0  0.3244751706442414  0.890602323794894  0.5204727233845432  1.0000
  H   H42       1.0  0.6812776066282993  0.10574881830002171  0.4787289884633735  1.0000
  H   H43       1.0  0.3157758536447801  0.0971450702614973  0.5448087875373345  1.0000
  H   H44       1.0  0.6904090835796879  0.8993233202213486  0.4540749382905247  1.0000
  H   H45       1.0  0.32413141789429295  0.4021441714862559  0.048909414591641096  1.0000
  H   H46       1.0  0.6713749150523683  0.5949209681920563  0.9501621529259693  1.0000
  H   H47       1.0  0.30145911821485066  0.5948996314280777  0.9415664405617574  1.0000
  H   H48       1.0  0.6949634931940453  0.39981230455688876  0.05330018371180498  1.0000
  C   C1        1.0  0.5034968080604189  0.0838361124055425  0.5891756262669715  1.0000
  C   C2        1.0  0.5026594604865197  0.9137538537875329  0.4090456546839646  1.0000
  C   C3        1.0  0.5133893394820532  0.9016980087681219  0.5748786733563945  1.0000
  C   C4        1.0  0.49266008028718034  0.09333728553600197  0.42306678140604237  1.0000
  C   C5        1.0  0.5012942575627762  0.5671650896824758  0.09521398688901428  1.0000
  C   C6        1.0  0.4963871222266435  0.4307373973995681  0.9025100957425136  1.0000
  C   C7        1.0  0.508604212877124  0.3922870258022684  0.06792522677802278  1.0000
  C   C8        1.0  0.48924340304164826  0.6034474169984989  0.9295892652189081  1.0000
  C   C9        1.0  0.4194749727855154  0.13696598268909094  0.32445111801042964  1.0000
  C   C10       1.0  0.5892584636715271  0.8529095274694214  0.6708525136751858  1.0000
  C   C11       1.0  0.41857570834040564  0.8523087224815598  0.3265085696574061  1.0000
  C   C12       1.0  0.5874383629020415  0.14822620766334177  0.6697907137541321  1.0000
  C   C13       1.0  0.4211489656512697  0.6440154379917188  0.8291769811823569  1.0000
  C   C14       1.0  0.5816613744668757  0.3479491834840757  0.1655336006412327  1.0000
  C   C15       1.0  0.4136804304665631  0.3703048760285482  0.8184496630213758  1.0000
  C   C16       1.0  0.5866143984973392  0.6273338415359432  0.17864766527632267  1.0000
  C   C17       1.0  0.49206791643044323  0.13770261557361607  0.3702820715059331  1.0000
  C   C18       1.0  0.5152581830245354  0.8546641391643918  0.6258075770892046  1.0000
  C   C19       1.0  0.5025579707820711  0.8633267422980849  0.3622575992334517  1.0000
  C   C20       1.0  0.503294395824895  0.1355983552899218  0.6347579633008633  1.0000
  C   C21       1.0  0.4921006283381074  0.6454651867847544  0.8759229003741779  1.0000
  C   C22       1.0  0.5091421757551232  0.34730259331391977  0.11984743688448418  1.0000
  C   C23       1.0  0.49746566305898193  0.3824701847846014  0.8537533676607224  1.0000
  C   C24       1.0  0.5025494158058238  0.6164835461847176  0.14309201342028638  1.0000
  C   C25       1.0  0.5674724034254056  0.1794212385360652  0.36522127845323377  1.0000
  C   C26       1.0  0.4396369318880318  0.8129619692724501  0.6300862819029546  1.0000
  C   C27       1.0  0.5856479031919196  0.8255144798325984  0.3535591502210451  1.0000
  C   C28       1.0  0.4196078371835624  0.1727846783585179  0.6433024464650003  1.0000
  C   C29       1.0  0.5696128254457307  0.6854164782451801  0.8706123054890326  1.0000
  C   C30       1.0  0.4334203110381337  0.30573646482922356  0.12466959557286118  1.0000
  C   C31       1.0  0.5819295260964664  0.34663987009402314  0.8446132843456906  1.0000
  C   C32       1.0  0.41961370448173346  0.6544442439995847  0.15137088391983158  1.0000
  C   C33       1.0  0.5729930434562504  0.22144330433124543  0.3165366522878017  1.0000
  C   C34       1.0  0.43472450872506846  0.7691558314463122  0.6775083464211348  1.0000
  C   C35       1.0  0.5869511397081696  0.7760519839002314  0.311055792621083  1.0000
  C   C36       1.0  0.41762891153439347  0.2228304306026416  0.6851972200008587  1.0000
  C   C37       1.0  0.5785176409916346  0.724558411963656  0.8204353080719923  1.0000
  C   C38       1.0  0.42778351609690196  0.2641388900369108  0.17361635531495517  1.0000
  C   C39       1.0  0.5847221616889798  0.2974690808168531  0.8017871047239851  1.0000
  C   C40       1.0  0.41844381964947536  0.7040221526965382  0.19378286387863844  1.0000
  C   C41       1.0  0.49895016938442177  0.22174486724465936  0.27031526370603126  1.0000
  C   C42       1.0  0.5091367723739424  0.7673834168852308  0.7235172747330265  1.0000
  C   C43       1.0  0.5029294160380147  0.7649802559045468  0.274385658297696  1.0000
  C   C44       1.0  0.5016381057042737  0.23527994660485518  0.7213939594967228  1.0000
  C   C45       1.0  0.5049151023371152  0.7254366236668516  0.7739360700538354  1.0000
  C   C46       1.0  0.5019089019862477  0.2637241507840001  0.2198050888018414  1.0000
  C   C47       1.0  0.5008943882037613  0.28533391378261536  0.765296399026873  1.0000
  C   C48       1.0  0.5025059503990192  0.7149329634256175  0.23047741696305477  1.0000
  C   C49       1.0  0.42140655672779564  0.1795208499092666  0.27444801400452684  1.0000
  C   C50       1.0  0.5877077618535368  0.8087050328533537  0.7196874499702941  1.0000
  C   C51       1.0  0.4186779253911297  0.8038645276569338  0.2815638712890872  1.0000
  C   C52       1.0  0.5867989424469825  0.1974192613669388  0.7140635911332396  1.0000
  C   C53       1.0  0.42579379408665824  0.684643678472561  0.7781500158353578  1.0000
  C   C54       1.0  0.5797000579545966  0.305791092576392  0.2156722920489428  1.0000
  C   C55       1.0  0.4152908387264205  0.3226204675504362  0.773004307764438  1.0000
  C   C56       1.0  0.586832412343945  0.6760567048191605  0.22330288797002845  1.0000
  C   C57       1.0  0.6506228590349324  0.26413044860463225  0.3104258674539508  1.0000
  C   C58       1.0  0.3570326081389936  0.7263222802010245  0.6828133724571187  1.0000
  C   C59       1.0  0.6702177784006409  0.7351497597550036  0.30259874980492896  1.0000
  C   C60       1.0  0.3334147452113569  0.2627383986148786  0.6936765440883261  1.0000
  C   C61       1.0  0.6595709960372887  0.7638615361913708  0.8131206597844025  1.0000
  C   C62       1.0  0.349478847112998  0.22209348537271012  0.18015556549254086  1.0000
  C   C63       1.0  0.668803998891356  0.2574220100605658  0.7933355112605581  1.0000
  C   C64       1.0  0.33554846408428324  0.7454055275350482  0.2018235936117279  1.0000
  C   C65       1.0  0.6631202863318109  0.8046265365110088  0.764791529511953  1.0000
  C   C66       1.0  0.34724734201984114  0.18128280727134444  0.22855532812499035  1.0000
  C   C67       1.0  0.669960874267126  0.20937603033478072  0.7509799517402698  1.0000
  C   C68       1.0  0.3354811391435178  0.7933593875630007  0.2442257610478009  1.0000
  C   C69       1.0  0.6532493342135127  0.3046766929652803  0.2618535189732114  1.0000
  C   C70       1.0  0.3532881760540861  0.6857542132184803  0.7312958390709311  1.0000
  C   C71       1.0  0.6702751999437737  0.6870898420281649  0.2603175218090072  1.0000
  C   C72       1.0  0.3321310558055686  0.3106359016156545  0.7360657318933973  1.0000
  C   C73       1.0  0.2058857449402964  0.9394022016471979  0.504714892889666  1.0000
  C   C74       1.0  0.7999591602885516  0.05712561924327989  0.49445963372544094  1.0000
  C   C75       1.0  0.20122158943068766  0.0531546214183294  0.518917713202633  1.0000
  C   C76       1.0  0.8047408795054808  0.9433732750596207  0.48018697011623596  1.0000
  C   C77       1.0  0.2024368644296146  0.446668695840799  0.0212677661562708  1.0000
  C   C78       1.0  0.7937813450713379  0.5489710786313609  0.97447139839781  1.0000
  C   C79       1.0  0.192020964382742  0.5486701828963303  0.9716837680932355  1.0000
  C   C80       1.0  0.8044114691352462  0.4469038381677067  0.023939360622378586  1.0000
  C   C81       1.0  0.1007981808113243  0.05698739032109049  0.5137664726460044  1.0000
  C   C82       1.0  0.9051636196918765  0.9396323842481773  0.48524155757563386  1.0000
  C   C83       1.0  0.10597618458683661  0.9372716501354288  0.49768967644993006  1.0000
  C   C84       1.0  0.8998775832806843  0.05933250695858309  0.5014525029557361  1.0000
  C   C85       1.0  0.09208847915869  0.5512725715335661  0.9716988703893532  1.0000
  C   C86       1.0  0.9042727775375496  0.44394200271978684  0.023102337675055696  1.0000
  C   C87       1.0  0.10305706366506939  0.4437045325270147  0.0219279437536173  1.0000
  C   C88       1.0  0.8930835359829247  0.5514366413648019  0.9727354070051601  1.0000
  C   C89       1.0  0.053659232995279596  0.9978088661855864  0.5022364083120009  1.0000
  C   C90       1.0  0.95223947351667  0.9988251107663189  0.4968442443406928  1.0000
  C   C91       1.0  0.0483722550610324  0.49752155959160377  0.9970015199568818  1.0000
  C   C92       1.0  0.9478603295513535  0.4975959257349628  0.9975749772651878  1.0000
  C   C93       1.0  0.04646613884203529  0.11694490398706847  0.5195226026678623  1.0000
  C   C94       1.0  0.9594782462053715  0.8797004005715576  0.47939246961102083  1.0000
  C   C95       1.0  0.0565009638946137  0.8783940031030893  0.48622321924239736  1.0000
  C   C96       1.0  0.949411298994349  0.11823530337848348  0.5128457355298507  1.0000
  C   C97       1.0  0.035543246420175485  0.6052532558875187  0.9468631389558694  1.0000
  C   C98       1.0  0.9607079243504015  0.3897089822038069  0.047533911029731285  1.0000
  C   C99       1.0  0.0573904577515663  0.38962991361039195  0.0469954457510653  1.0000
  C   C100      1.0  0.9388400182031943  0.6052737504942627  0.947315278853324  1.0000
  N   N1        1.0  0.25158352567621733  0.9962003949341421  0.5115456961735844  1.0000
  N   N2        1.0  0.754346297722151  0.0002770478419265005  0.48765453786560886  1.0000
  N   N3        1.0  0.2457707194976635  0.4976793766852764  0.9963727368785555  1.0000
  N   N4        1.0  0.7506571695477434  0.49832112428654807  0.00012915330372459733  1.0000
  O   O1        1.0  0.42460878733944446  0.06608246392407578  0.5644613592784324  1.0000
  O   O2        1.0  0.5816580303328466  0.9307875477983883  0.4340872618390107  1.0000
  O   O3        1.0  0.4220705527387664  0.9393514192641773  0.4228378784545157  1.0000
  O   O4        1.0  0.5841109388074841  0.0577341739775008  0.5760354107220989  1.0000
  O   O5        1.0  0.5910797426520135  0.9229319587172142  0.5593834986489056  1.0000
  O   O6        1.0  0.414584462183015  0.07328397948459299  0.439084068223316  1.0000
  O   O7        1.0  0.5744897355684699  0.07767787448209869  0.44900027305267537  1.0000
  O   O8        1.0  0.43120736023661976  0.9183087180949341  0.549943962423505  1.0000
  O   O9        1.0  0.4222259814980163  0.5528422501929524  0.06993224489009009  1.0000
  O   O10       1.0  0.5748268599586766  0.4493140541763194  0.9257229609538838  1.0000
  O   O11       1.0  0.4142620635178389  0.4511061852355239  0.9194090120861631  1.0000
  O   O12       1.0  0.5822678702071897  0.5413934649949894  0.08107263653779737  1.0000
  O   O13       1.0  0.5858660108777728  0.40964719158733226  0.0476613750996151  1.0000
  O   O14       1.0  0.4107720916910438  0.5837883993113734  0.9461620184167855  1.0000
  O   O15       1.0  0.5676059438210216  0.5871895139173091  0.9585027354250002  1.0000
  O   O16       1.0  0.4283206312491928  0.4131650925679581  0.04446387233384999  1.0000
  O   O17       1.0  0.3495020568121064  0.09365740526329348  0.32818157105922546  1.0000
  O   O18       1.0  0.66011804948446  0.8956472655169633  0.6678589759362977  1.0000
  O   O19       1.0  0.3367028082813733  0.8871385487171821  0.33303843641112246  1.0000
  O   O20       1.0  0.6698957907142572  0.11410675966651236  0.6632578290085716  1.0000
  O   O21       1.0  0.3495002261297629  0.6020868243556734  0.8337160624392083  1.0000
  O   O22       1.0  0.6514495954998125  0.39139392290785907  0.160968227723977  1.0000
  O   O23       1.0  0.3304093730135164  0.40316123308287627  0.826324118716961  1.0000
  O   O24       1.0  0.6682763380080489  0.5922132327290868  0.17179628382257306  1.0000
  O   O25       1.0  0.7244337630397126  0.26554437519348534  0.3521996010067312  1.0000
  O   O26       1.0  0.28404869564820967  0.7250070728094896  0.6404532826641756  1.0000
  O   O27       1.0  0.7480099802785247  0.7477063633471771  0.3395716423521477  1.0000
  O   O28       1.0  0.2559069627362902  0.24926891976603113  0.656793977260179  1.0000
  O   O29       1.0  0.7353189467463822  0.7614213115177079  0.8536612467793246  1.0000
  O   O30       1.0  0.27473180079404363  0.22177531818017818  0.13892574129155824  1.0000
  O   O31       1.0  0.7461133248571771  0.27040471471533317  0.830508186551391  1.0000
  O   O32       1.0  0.2580692935273491  0.7335390148823251  0.1644287579315957  1.0000
  O   O33       1.0  0.2582952363098556  0.8831011654740164  0.5046042919808826  1.0000
  O   O34       1.0  0.7474064775056846  0.11336966795983021  0.49452115236321237  1.0000
  O   O35       1.0  0.24780676160013124  0.10747335589162789  0.5313551825709765  1.0000
  O   O36       1.0  0.7582249609710346  0.8890072553237972  0.46777579311940076  1.0000
  O   O37       1.0  0.2531079308826635  0.39647548209828193  0.046489277492114  1.0000
  O   O38       1.0  0.7427458492707188  0.599249296381636  0.9496751207057128  1.0000
  O   O39       1.0  0.23109499485413917  0.5990351738732257  0.9461792551210734  1.0000
  O   O40       1.0  0.7656531970406705  0.3965132416772477  0.04952215719354309  1.0000
