data_image0
_chemical_formula_structural       Ag8H28C28N12O18
_chemical_formula_sum              "Ag8 H28 C28 N12 O18"
_cell_length_a       7.817998529164924
_cell_length_b       8.457347400975868
_cell_length_c       14.940906567087863
_cell_angle_alpha    91.3047325652472
_cell_angle_beta     97.8202217727756
_cell_angle_gamma    94.72743479569988

_space_group_name_H-M_alt    "P 1"
_space_group_IT_number       1

loop_
  _space_group_symop_operation_xyz
  'x, y, z'

loop_
  _atom_site_type_symbol
  _atom_site_label
  _atom_site_symmetry_multiplicity
  _atom_site_fract_x
  _atom_site_fract_y
  _atom_site_fract_z
  _atom_site_occupancy
  Ag  Ag1       1.0  0.7925211770978892  0.692133132394055  0.6073155262897814  1.0000
  Ag  Ag2       1.0  0.20748098340712326  0.3078665852468419  0.3926843294266433  1.0000
  Ag  Ag3       1.0  0.8341774617947877  0.18917747646759864  0.3761670395187906  1.0000
  Ag  Ag4       1.0  0.1658193029702062  0.8108198837299343  0.623832403797941  1.0000
  Ag  Ag5       1.0  0.2579757309067077  0.6797247893619132  0.1151877116568585  1.0000
  Ag  Ag6       1.0  0.7420266540322016  0.32027731703332324  0.8848108604271445  1.0000
  Ag  Ag7       1.0  0.34944812320887314  0.19227386058653917  0.8762284387465298  1.0000
  Ag  Ag8       1.0  0.6505541580429721  0.8077270369048862  0.12377211414572291  1.0000
  H   H1        1.0  0.18202260760925534  0.9259928558211714  0.2811984524935127  1.0000
  H   H2        1.0  0.8179795486308093  0.07400686908304271  0.7188007337268942  1.0000
  H   H3        1.0  0.3617710374280136  0.9440290880146026  0.2423410262672547  1.0000
  H   H4        1.0  0.6382298451777617  0.05597061203242501  0.7576607486772176  1.0000
  H   H5        1.0  0.777430987422612  0.9904930996559222  0.5701135104288325  1.0000
  H   H6        1.0  0.22256719304821365  0.009505428932740803  0.4298873888197647  1.0000
  H   H7        1.0  0.7387111309224252  0.8838577429388936  0.4744269578688503  1.0000
  H   H8        1.0  0.26128832744763736  0.11614080324363843  0.5255720221516995  1.0000
  H   H9        1.0  0.1607725004831337  0.8078092038417284  0.9588307187823658  1.0000
  H   H10       1.0  0.8392323578918806  0.19219169252084362  0.04116934313390171  1.0000
  H   H11       1.0  0.9841280315701724  0.7341020567117412  0.9986387358483526  1.0000
  H   H12       1.0  0.015878466944578003  0.2659023967963067  0.0013614983673662004  1.0000
  H   H13       1.0  0.9608648688548981  0.6768563491016126  0.8111131497670385  1.0000
  H   H14       1.0  0.039134701732109506  0.3231433914580962  0.188885188437304  1.0000
  H   H15       1.0  0.15281213579117292  0.4970757395735391  0.9046543563334524  1.0000
  H   H16       1.0  0.8471862733784973  0.5029251705061528  0.09534592877874812  1.0000
  H   H17       1.0  0.44193394282518733  0.6717266288713406  0.3133719507941564  1.0000
  H   H18       1.0  0.5580590791343596  0.32827190923836  0.6866292609103936  1.0000
  H   H19       1.0  0.6372787478240908  0.4886651674396065  0.4061154099482138  1.0000
  H   H20       1.0  0.36270866675637586  0.5113286026824259  0.5938886814771253  1.0000
  H   H21       1.0  0.48054490412623363  0.9439957378363605  0.595252403145558  1.0000
  H   H22       1.0  0.5194509193903869  0.056005187898826116  0.404747033950592  1.0000
  H   H23       1.0  0.4405007472879134  0.8215482007959382  0.49452362360585767  1.0000
  H   H24       1.0  0.5594974161231504  0.17845035684599966  0.5054745976586617  1.0000
  H   H25       1.0  0.1830790834944267  0.04070398489191971  0.05254173925579409  1.0000
  H   H26       1.0  0.8169284599557612  0.9592981119822857  0.9474565203722561  1.0000
  H   H27       1.0  0.9988815573519148  0.9650499973789982  0.10060006378147082  1.0000
  H   H28       1.0  0.0011237669506698029  0.03495564743899141  0.8994001088540458  1.0000
  C   C1        1.0  0.894971185986684  0.3455551919106555  0.5630101986862286  1.0000
  C   C2        1.0  0.10502944659554463  0.6544421629619351  0.4369888429145377  1.0000
  C   C3        1.0  0.970898398983003  0.3890888561117549  0.6602002949699325  1.0000
  C   C4        1.0  0.02909590940565472  0.610909685065167  0.3398003364986195  1.0000
  C   C5        1.0  0.9933828099161275  0.5656381951099194  0.7827958237960502  1.0000
  C   C6        1.0  0.006613950583926018  0.4343591723509379  0.2172029500246566  1.0000
  C   C7        1.0  0.10023123017411002  0.46762842501084395  0.8342905709514312  1.0000
  C   C8        1.0  0.8997670625136677  0.5323712979549955  0.1657096864809589  1.0000
  C   C9        1.0  0.07845460929787862  0.29083037829541075  0.7124527451349607  1.0000
  C   C10       1.0  0.9215477841709118  0.7091717135731914  0.2875471659410849  1.0000
  C   C11       1.0  0.12315000403295069  0.13207727133469405  0.6785295454843946  1.0000
  C   C12       1.0  0.8768512237535618  0.8679259973172151  0.3214716430034841  1.0000
  C   C13       1.0  0.3820422105363762  0.3438828657477445  0.0639939362498367  1.0000
  C   C14       1.0  0.617966632137758  0.6561192124037307  0.9360057516302689  1.0000
  C   C15       1.0  0.4564714169179284  0.38774061077759125  0.1611064596591447  1.0000
  C   C16       1.0  0.5435313259965396  0.6122650424325755  0.8388935344563392  1.0000
  C   C17       1.0  0.4773100397205923  0.5608346691867471  0.2854204743402633  1.0000
  C   C18       1.0  0.5226857880609614  0.43916624928512266  0.7145796322519048  1.0000
  C   C19       1.0  0.584407405968676  0.4617350821265307  0.33555492411732496  1.0000
  C   C20       1.0  0.4155830431326421  0.5382634498487064  0.6644474480592351  1.0000
  C   C21       1.0  0.5666878232150551  0.2893877339983676  0.2116498358818788  1.0000
  C   C22       1.0  0.4333105859546151  0.7106131760813243  0.7883504492303287  1.0000
  C   C23       1.0  0.6163550895380252  0.13563676611579478  0.1728945515689588  1.0000
  C   C24       1.0  0.38364204599736246  0.8643641191067106  0.8271083222673141  1.0000
  C   C25       1.0  0.5178644718527821  0.926488481628148  0.5276929766807825  1.0000
  C   C26       1.0  0.4821324008642236  0.07351008020987854  0.472305155323717  1.0000
  C   C27       1.0  0.05986952695874954  0.9661139880958987  0.038452849089104305  1.0000
  C   C28       1.0  0.9401333281726707  0.03389285949144491  0.9615465032101653  1.0000
  N   N1        1.0  0.9324070577346077  0.5274842878304329  0.6960175938658252  1.0000
  N   N2        1.0  0.06758983630710699  0.47251423769100154  0.3039838856187842  1.0000
  N   N3        1.0  0.14617556124525782  0.33291433881800714  0.7986657431065538  1.0000
  N   N4        1.0  0.8538242593653039  0.6670877469161314  0.2013353284415018  1.0000
  N   N5        1.0  0.4155843021178924  0.5238824761938049  0.19839936094200536  1.0000
  N   N6        1.0  0.5844197272256867  0.4761231800835904  0.8016000529374735  1.0000
  N   N7        1.0  0.6322437440308734  0.32879276871038615  0.2983132758212577  1.0000
  N   N8        1.0  0.3677478792826037  0.6712045719549097  0.7016891579355047  1.0000
  N   N9        1.0  0.7024702016245427  0.8950758337524718  0.5380342138232237  1.0000
  N   N10       1.0  0.29752902804667514  0.10492033093903073  0.46196538033373  1.0000
  N   N11       1.0  0.09943876163917054  0.8033669583660771  0.015769771544484015  1.0000
  N   N12       1.0  0.900564084962369  0.19663990374790077  0.984228241762743  1.0000
  O   O1        1.0  0.7845201025302159  0.4310528220045883  0.5244278083253064  1.0000
  O   O2        1.0  0.2154777199650511  0.5689421597691435  0.47557166889181707  1.0000
  O   O3        1.0  0.9499183945059783  0.22343211932619775  0.528581319992405  1.0000
  O   O4        1.0  0.05008611015841782  0.7765652229581265  0.4714179893884065  1.0000
  O   O5        1.0  0.0119455523740726  0.015567066825298109  0.6851252637789498  1.0000
  O   O6        1.0  0.988052969012557  0.9844350376315706  0.3148743795170433  1.0000
  O   O7        1.0  0.2686502293720778  0.12520076755243545  0.6523534058660019  1.0000
  O   O8        1.0  0.7313460737302933  0.8747918369263561  0.3476465962275058  1.0000
  O   O9        1.0  0.23228558582627562  0.38348828606245894  0.0360675070502694  1.0000
  O   O10       1.0  0.7677241767715228  0.6165102628679621  0.9639288395703218  1.0000
  O   O11       1.0  0.4797022599303347  0.2685303869326603  0.02025310307360681  1.0000
  O   O12       1.0  0.5203022532639423  0.7314669408250299  0.9797475452992472  1.0000
  O   O13       1.0  0.5001276839304936  0.0195661311701514  0.1673731930251705  1.0000
  O   O14       1.0  0.4998683768148453  0.9804371615294303  0.8326269689266255  1.0000
  O   O15       1.0  0.7670647847067756  0.13182628047586323  0.1533583296844014  1.0000
  O   O16       1.0  0.23293621011595186  0.8681746139483341  0.8466428034438565  1.0000
  O   O17       1.0  0.2889483378803988  0.873167309312855  0.2762376071537105  1.0000
  O   O18       1.0  0.7110511290195518  0.12683122234303573  0.7237627118588889  1.0000
