data_image0
_chemical_formula_structural       Mn2H14C10N2Cl4O4
_chemical_formula_sum              "Mn2 H14 C10 N2 Cl4 O4"
_cell_length_a       6.832121283911307
_cell_length_b       6.708556841357736
_cell_length_c       9.942208382490792
_cell_angle_alpha    98.87471386431803
_cell_angle_beta     110.72234028430768
_cell_angle_gamma    95.08794753183471

_space_group_name_H-M_alt    "P 1"
_space_group_IT_number       1

loop_
  _space_group_symop_operation_xyz
  'x, y, z'

loop_
  _atom_site_type_symbol
  _atom_site_label
  _atom_site_symmetry_multiplicity
  _atom_site_fract_x
  _atom_site_fract_y
  _atom_site_fract_z
  _atom_site_occupancy
  Mn  Mn1       1.0  0.24356090984833403  0.5108158244727009  0.49652431310369144  1.0000
  Mn  Mn2       1.0  0.7564291717880778  0.4891679432044924  0.5034733171214612  1.0000
  H   H1        1.0  0.7221315950566449  0.4226134744159964  0.8245412544544737  1.0000
  H   H2        1.0  0.27792836513209807  0.5773964021367632  0.17547320183975054  1.0000
  H   H3        1.0  0.11771428279710959  0.2141933601002393  0.6103446807286019  1.0000
  H   H4        1.0  0.8822822017635871  0.785801132838607  0.3896547570264133  1.0000
  H   H5        1.0  0.25750447447871483  0.1110676710575333  0.5331122014570653  1.0000
  H   H6        1.0  0.7425022321946244  0.8889222500726605  0.46688913696164047  1.0000
  H   H7        1.0  0.8570144356631034  0.5708379407667863  0.1004428416335514  1.0000
  H   H8        1.0  0.1430389922490392  0.4291992043676771  0.8995793445927305  1.0000
  H   H9        1.0  0.8498970879266494  0.9438088160798159  0.18051322430495984  1.0000
  H   H10       1.0  0.15006915553362887  0.0562030264336073  0.8194639439150821  1.0000
  H   H11       1.0  0.6987813112364163  0.1486893727794936  0.9891501755668345  1.0000
  H   H12       1.0  0.30117804086935956  0.8512884012409572  0.010835359146177788  1.0000
  H   H13       1.0  0.5667091806282016  0.9746676591144238  0.7200735002434586  1.0000
  H   H14       1.0  0.4332759944670599  0.025334560430089  0.27992113514906697  1.0000
  C   C1        1.0  0.72286284040797  0.5803409647762123  0.8717568562324589  1.0000
  C   C2        1.0  0.2771497620120655  0.4196365091461587  0.12825144923800022  1.0000
  C   C3        1.0  0.7958522106444406  0.6660286251756062  0.01999338210261211  1.0000
  C   C4        1.0  0.20413937917184913  0.3339639275004061  0.9800167253024555  1.0000
  C   C5        1.0  0.7902697650268068  0.8727110206259995  0.06469255132640941  1.0000
  C   C6        1.0  0.2097309802885476  0.12732876096502826  0.9353284068056456  1.0000
  C   C7        1.0  0.7076764547948214  0.9879337974352966  0.9581047649167261  1.0000
  C   C8        1.0  0.2923098927944068  0.012105061153668802  0.041894527314667585  1.0000
  C   C9        1.0  0.6332143461406191  0.8978816802680923  0.8108183138358314  1.0000
  C   C10       1.0  0.36676419024932727  0.10207965776302788  0.18915978880448145  1.0000
  N   N1        1.0  0.6451592226499727  0.6979770098324353  0.7712152742843089  1.0000
  N   N2        1.0  0.3548316762646024  0.3019940438403736  0.22875085053347996  1.0000
  Cl  Cl1       1.0  0.20320928274819752  0.8225597339827644  0.39153445580753754  1.0000
  Cl  Cl2       1.0  0.7967908134579745  0.1774378832559336  0.6084642074214133  1.0000
  Cl  Cl3       1.0  0.11016570253346462  0.6563911749718656  0.6914894984081741  1.0000
  Cl  Cl4       1.0  0.8898232954996388  0.3435957133499841  0.3085062330183704  1.0000
  O   O1        1.0  0.5749506928426696  0.6149453653619829  0.627960622532946  1.0000
  O   O2        1.0  0.42507937572015214  0.3850824312780857  0.3720598863111847  1.0000
  O   O3        1.0  0.2555302881661348  0.2383697343814504  0.5983480235233645  1.0000
  O   O4        1.0  0.7444748646726963  0.7616200830732254  0.40165594883838907  1.0000
