data_image0
_chemical_formula_structural       Cd2H40C52Br4N12
_chemical_formula_sum              "Cd2 H40 C52 Br4 N12"
_cell_length_a       9.353066980292214
_cell_length_b       12.12324266611012
_cell_length_c       12.5763
_cell_angle_alpha    108.35242115829878
_cell_angle_beta     98.62091001579286
_cell_angle_gamma    108.33198082691943

_space_group_name_H-M_alt    "P 1"
_space_group_IT_number       1

loop_
  _space_group_symop_operation_xyz
  'x, y, z'

loop_
  _atom_site_type_symbol
  _atom_site_label
  _atom_site_symmetry_multiplicity
  _atom_site_fract_x
  _atom_site_fract_y
  _atom_site_fract_z
  _atom_site_occupancy
  Cd  Cd1       1.0  0.3650828759585778  0.7332205668393286  0.7702658808874717  1.0000
  Cd  Cd2       1.0  0.6349169536342886  0.266778496401777  0.2297342133656102  1.0000
  H   H1        1.0  0.2803263795396802  0.963044838596467  0.8867256365978237  1.0000
  H   H2        1.0  0.7196728204033036  0.0369551664894985  0.11327467332979069  1.0000
  H   H3        1.0  0.10873475391982623  0.0711884013543909  0.8408721753222822  1.0000
  H   H4        1.0  0.8912644460231576  0.9288116037315746  0.15912813460533212  1.0000
  H   H5        1.0  0.8690071406088363  0.7474509007203521  0.5146187824262397  1.0000
  H   H6        1.0  0.1309931407199301  0.25254910436560607  0.4853816480528082  1.0000
  H   H7        1.0  0.05175710264961  0.6561399840857972  0.5721959911007133  1.0000
  H   H8        1.0  0.9482440821509641  0.3438619046898737  0.4278059069766941  1.0000
  H   H9        1.0  0.7802445156763157  0.0763977452352549  0.49208310965426  1.0000
  H   H10       1.0  0.21975423253076093  0.9236013180058578  0.5079160689009612  1.0000
  H   H11       1.0  0.5334579685905821  0.9628932015751629  0.33113845151707016  1.0000
  H   H12       1.0  0.4665423127381843  0.0371068035108024  0.6688603886691241  1.0000
  H   H13       1.0  0.41478176393680843  0.6541856560162244  0.42536080474409493  1.0000
  H   H14       1.0  0.585218517391958  0.34581434906974096  0.5746388305885263  1.0000
  H   H15       1.0  0.6521647567587864  0.753733005888563  0.5897489091647757  1.0000
  H   H16       1.0  0.34783444318419743  0.2462669991974025  0.4102506056164188  1.0000
  H   H17       1.0  0.7475576218337993  0.12223921791095897  0.7644880673947797  1.0000
  H   H18       1.0  0.25244265949496736  0.8777607871749993  0.2355115679378486  1.0000
  H   H19       1.0  0.846427769727505  0.3550255917301683  0.848573379258369  1.0000
  H   H20       1.0  0.1535714302154787  0.6449744133557971  0.15142693066924548  1.0000
  H   H21       1.0  0.2500804274019117  0.3760277901028601  0.7176307199203934  1.0000
  H   H22       1.0  0.7499198539268549  0.6239722149831052  0.28237050570508165  1.0000
  H   H23       1.0  0.1507671192463391  0.1404799271752282  0.6341177317687254  1.0000
  H   H24       1.0  0.8492331620824346  0.8595200779107302  0.36588110841746874  1.0000
  H   H25       1.0  0.20000171780937853  0.4379314848983  0.010685515206269298  1.0000
  H   H26       1.0  0.7999974821336052  0.5620685201876654  0.989314794721345  1.0000
  H   H27       1.0  0.4486211364568931  0.5530239840661791  0.1727693882081809  1.0000
  H   H28       1.0  0.5513795966077808  0.44697696286463884  0.8272321736432672  1.0000
  H   H29       1.0  0.64442722747782  0.7539986061370527  0.176980917094852  1.0000
  H   H30       1.0  0.35557350558685397  0.24600234079375838  0.8230182593173154  1.0000
  H   H31       1.0  0.5862325188762512  0.8227740009785549  0.012501435390859707  1.0000
  H   H32       1.0  0.4137666810667326  0.1772260041074034  0.9874980793903276  1.0000
  H   H33       1.0  0.8595645418503184  0.44858845940778735  0.6698085438526606  1.0000
  H   H34       1.0  0.14043528774254813  0.5514106038333253  0.33019234554684834  1.0000
  H   H35       1.0  0.6900962095947137  0.5725164051398224  0.6758013307127941  1.0000
  H   H36       1.0  0.30990361999814553  0.42748265810128316  0.32419796839386095  1.0000
  H   H37       1.0  0.7673574891811795  0.7769607836484339  0.8479140714480594  1.0000
  H   H38       1.0  0.2326432438834942  0.2230401632823842  0.15208510496410105  1.0000
  H   H39       1.0  0.012261058579802883  0.8451173864216415  0.00725474656243821  1.0000
  H   H40       1.0  0.9877396744848712  0.1548835605091696  0.9927444298497294  1.0000
  C   C1        1.0  0.1891385975820938  0.9198800889924286  0.8040582394393996  1.0000
  C   C2        1.0  0.8108616837466728  0.08011991609353689  0.1959429861860755  1.0000
  C   C3        1.0  0.0928405139426545  0.9795497277970142  0.7784337133390695  1.0000
  C   C4        1.0  0.9071586860003295  0.0204502772889512  0.22156659658854488  1.0000
  C   C5        1.0  0.9740802688218579  0.9208709097775766  0.6717221538186918  1.0000
  C   C6        1.0  0.0259189311211259  0.0791290953083887  0.32827736096249543  1.0000
  C   C7        1.0  0.9582669416567029  0.8003919998965044  0.5976777612002949  1.0000
  C   C8        1.0  0.04173162863640561  0.1996089470343065  0.4023219692554321  1.0000
  C   C9        1.0  0.06098879998661742  0.7483023284672896  0.6298281198429408  1.0000
  C   C10       1.0  0.9390110296062417  0.2516967347738159  0.370171974410141  1.0000
  C   C11       1.0  0.7409744658793117  0.9224579183545529  0.5522900518499015  1.0000
  C   C12       1.0  0.2590242823277649  0.0775411448865597  0.4477091267053197  1.0000
  C   C13       1.0  0.7026367991118931  0.9821529869701635  0.47937712899830853  1.0000
  C   C14       1.0  0.2973619490951834  0.017846076270942  0.5206220495569127  1.0000
  C   C15       1.0  0.5639351731222391  0.9181037696000373  0.3894355144284489  1.0000
  C   C16       1.0  0.43606357508483745  0.0818952936410753  0.6105636641267722  1.0000
  C   C17       1.0  0.49861411215825063  0.747439598582119  0.4404093493367683  1.0000
  C   C18       1.0  0.5013861691705159  0.2525604065038394  0.559590285995853  1.0000
  C   C19       1.0  0.6334533724116795  0.8029039001189346  0.5333299970435235  1.0000
  C   C20       1.0  0.36654582753130427  0.19709610496702368  0.466669517737664  1.0000
  C   C21       1.0  0.9432769682017225  0.11810734454170559  0.6942777867963345  1.0000
  C   C22       1.0  0.056722231741261495  0.8818926605442527  0.30572172798486014  1.0000
  C   C23       1.0  0.8567792268132806  0.1779342714367118  0.753581288976534  1.0000
  C   C24       1.0  0.1432199731297032  0.8220657336492465  0.24641822580465345  1.0000
  C   C25       1.0  0.9130304576969124  0.308688708661883  0.8011120473416541  1.0000
  C   C26       1.0  0.0869687422460714  0.6913112964240824  0.19888746743954044  1.0000
  C   C27       1.0  0.05550732762886669  0.3797019268736506  0.7895139712867734  1.0000
  C   C28       1.0  0.9444918723141171  0.6202980782123148  0.2104863386408411  1.0000
  C   C29       1.0  0.14201684742257473  0.31948695989928666  0.7295938578169441  1.0000
  C   C30       1.0  0.8579849670278821  0.6805139870315244  0.2704078245859307  1.0000
  C   C31       1.0  0.08575333766347631  0.1887136857770599  0.6821172395529516  1.0000
  C   C32       1.0  0.9142463140154079  0.8112872611537512  0.3178826114542091  1.0000
  C   C33       1.0  0.26271233776552094  0.5722037126486939  0.9297034261743564  1.0000
  C   C34       1.0  0.7372868621774629  0.4277962924372716  0.070296883753258  1.0000
  C   C35       1.0  0.2893352712480421  0.523432160635906  0.01459702865889765  1.0000
  C   C36       1.0  0.7106639286949415  0.47656784445005224  0.9854032812687166  1.0000
  C   C37       1.0  0.42765504168766444  0.5880380083140437  0.10442568284348397  1.0000
  C   C38       1.0  0.5723443361692873  0.411960113082209  0.8955732800371976  1.0000
  C   C39       1.0  0.536228822134099  0.6992058399802871  0.10711184476467388  1.0000
  C   C40       1.0  0.4637719109305749  0.3007951069505239  0.8928881267939205  1.0000
  C   C41       1.0  0.5043547231937353  0.7387086967966211  0.017298516580481836  1.0000
  C   C42       1.0  0.49564492848515584  0.2612922501341899  0.9827013344266791  1.0000
  C   C43       1.0  0.020244571016554913  0.5812256444937134  0.8390719049000952  1.0000
  C   C44       1.0  0.979754628926429  0.418774360592252  0.16092760988109225  1.0000
  C   C45       1.0  0.8875340781250358  0.5355056698040102  0.744117982639523  1.0000
  C   C46       1.0  0.1124657514678233  0.4644933934370954  0.255881316467125  1.0000
  C   C47       1.0  0.7940985985215292  0.6052087818255316  0.7479466718084781  1.0000
  C   C48       1.0  0.20590123107133002  0.394790281415581  0.2520534224445967  1.0000
  C   C49       1.0  0.8359887903604176  0.7184081728392683  0.8434904373661283  1.0000
  C   C50       1.0  0.1640119427042563  0.28159277409154265  0.1565087390460391  1.0000
  C   C51       1.0  0.9717517157727258  0.7563475671999454  0.9316465688251583  1.0000
  C   C52       1.0  0.02824748417025799  0.2436524378860128  0.0683521508096021  1.0000
  Br  Br1       1.0  0.327105150994214  0.5373912431993304  0.5932510582634123  1.0000
  Br  Br2       1.0  0.6728940489487697  0.46260876188663497  0.4067492516642019  1.0000
  Br  Br3       1.0  0.6131469837100667  0.9411215159577324  0.8543024693655143  1.0000
  Br  Br4       1.0  0.3868528458827925  0.0588775472833802  0.1456960345947138  1.0000
  N   N1        1.0  0.1764145506006543  0.8063133784860881  0.7306552073092193  1.0000
  N   N2        1.0  0.8235877155857096  0.19368851028957576  0.2693468113196289  1.0000
  N   N3        1.0  0.8831251308294129  0.9832502362236822  0.6418129014689811  1.0000
  N   N4        1.0  0.1168751504993537  0.016749768862276  0.35818673386364  1.0000
  N   N5        1.0  0.46259084746780843  0.8015391669272205  0.3677052304046882  1.0000
  N   N6        1.0  0.5374083524751755  0.19846083815873777  0.6322942843764991  1.0000
  N   N7        1.0  0.3715226189988102  0.675709636437368  0.9292070166805431  1.0000
  N   N8        1.0  0.6284776623299636  0.32429036864859023  0.07079341379850487  1.0000
  N   N9        1.0  0.11867271755828308  0.5139393063644917  0.8417351743164332  1.0000
  N   N10       1.0  0.8813286451562732  0.48606069872147367  0.15826537671404847  1.0000
  N   N11       1.0  0.061276627871834036  0.6889585679817714  0.9311894365262534  1.0000
  N   N12       1.0  0.9387225720711498  0.311041437104187  0.06881007825494119  1.0000
