data_image0
_chemical_formula_structural       Cd2H20C32O16
_chemical_formula_sum              "Cd2 H20 C32 O16"
_cell_length_a       5.879065467438457
_cell_length_b       7.331699244591607
_cell_length_c       18.613231355227473
_cell_angle_alpha    94.9229170549161
_cell_angle_beta     94.56598738537785
_cell_angle_gamma    96.29148105462623

_space_group_name_H-M_alt    "P 1"
_space_group_IT_number       1

loop_
  _space_group_symop_operation_xyz
  'x, y, z'

loop_
  _atom_site_type_symbol
  _atom_site_label
  _atom_site_symmetry_multiplicity
  _atom_site_fract_x
  _atom_site_fract_y
  _atom_site_fract_z
  _atom_site_occupancy
  Cd  Cd1       1.0  0.9867224994034771  0.7380724810637956  0.9568583168126067  1.0000
  Cd  Cd2       1.0  0.013304961559505609  0.2619294765067934  0.043143545732093  1.0000
  H   H1        1.0  0.9143207715983479  0.9400830939199168  0.2538698013571405  1.0000
  H   H2        1.0  0.08569092734543197  0.059916289231580294  0.746134275387142  1.0000
  H   H3        1.0  0.12975627190406414  0.5987889410363183  0.2006416094016927  1.0000
  H   H4        1.0  0.8702569497558912  0.4012087126688185  0.7993581712555908  1.0000
  H   H5        1.0  0.06652093592865783  0.5831984635016952  0.46234159068391273  1.0000
  H   H6        1.0  0.9334397376214838  0.4167883829018352  0.5376442013360574  1.0000
  H   H7        1.0  0.23387740562771597  0.6513125188119773  0.5912734666915682  1.0000
  H   H8        1.0  0.7660622373589374  0.3486829795151678  0.4087173226486058  1.0000
  H   H9        1.0  0.8618331607441193  0.8975007483306356  0.5166906226858856  1.0000
  H   H10       1.0  0.13813029169639887  0.1024834437448305  0.4833129263501448  1.0000
  H   H11       1.0  0.6390390872543108  0.8042303423939073  0.6169379182347114  1.0000
  H   H12       1.0  0.3608929753378191  0.19577277880547678  0.3830619675330311  1.0000
  H   H13       1.0  0.24977969629675553  0.47183709388818335  0.9121568007452368  1.0000
  H   H14       1.0  0.7502375312411899  0.5281645687429801  0.08784155804502798  1.0000
  H   H15       1.0  0.3723240379452689  0.6594128254172419  0.8876321934945182  1.0000
  H   H16       1.0  0.6276998160354096  0.3405876560736303  0.1123684670019216  1.0000
  H   H17       1.0  0.6410588640017209  0.9337041833522759  0.9118373300026049  1.0000
  H   H18       1.0  0.35896557461507683  0.06630052051307442  0.0881645097544066  1.0000
  H   H19       1.0  0.6863571534517304  0.814977852895929  0.8409390211627468  1.0000
  H   H20       1.0  0.31366971566072266  0.18502010498703914  0.159064354296909  1.0000
  C   C1        1.0  0.7429301469562188  0.8655026482965695  0.24145254777302938  1.0000
  C   C2        1.0  0.2570809716800966  0.1344923788683232  0.758548734405359  1.0000
  C   C3        1.0  0.6475512129948128  0.8286581157965001  0.1701762032571636  1.0000
  C   C4        1.0  0.35246014981964896  0.1713509071018606  0.8298280668740006  1.0000
  C   C5        1.0  0.42393169792594426  0.7347998978466778  0.155319361329795  1.0000
  C   C6        1.0  0.576076263847021  0.2652087149769358  0.8446799718374791  1.0000
  C   C7        1.0  0.3023926741541061  0.6727447003982405  0.211649050914744  1.0000
  C   C8        1.0  0.6976175251596574  0.3272556996016647  0.7883507069548443  1.0000
  C   C9        1.0  0.3993283642102625  0.7085133047690064  0.2834215751271927  1.0000
  C   C10       1.0  0.6006738377763625  0.2914786320051235  0.7165756421253704  1.0000
  C   C11       1.0  0.26529822865944647  0.6441210917779897  0.3429874344936223  1.0000
  C   C12       1.0  0.7346914980326886  0.3558788964925411  0.6570074696075068  1.0000
  C   C13       1.0  0.3688110774678464  0.6968285279850193  0.41818624580380964  1.0000
  C   C14       1.0  0.6311844937473906  0.30316472354152774  0.5818102850479007  1.0000
  C   C15       1.0  0.24102533854946986  0.6501845565669911  0.4755746218267731  1.0000
  C   C16       1.0  0.7589476584633914  0.34980561215255795  0.5244180183424803  1.0000
  C   C17       1.0  0.3353904653978076  0.6888900424498628  0.5469995819450445  1.0000
  C   C18       1.0  0.6645662405116679  0.3111057247561391  0.4529943548103361  1.0000
  C   C19       1.0  0.561020506404624  0.7752354218013765  0.5613872496310108  1.0000
  C   C20       1.0  0.43893789353261775  0.22476075086017033  0.43861157856429134  1.0000
  C   C21       1.0  0.6886556335711519  0.8264482959222833  0.504900834606353  1.0000
  C   C22       1.0  0.31132128923873376  0.1735342435785938  0.49509927544555404  1.0000
  C   C23       1.0  0.593592683066845  0.7894347754934401  0.43300903243776645  1.0000
  C   C24       1.0  0.40640215168050986  0.2105656274710341  0.5669908541512214  1.0000
  C   C25       1.0  0.7280133073150877  0.8516603668062359  0.373841344970856  1.0000
  C   C26       1.0  0.2719824481977042  0.14833461878586007  0.626159527491822  1.0000
  C   C27       1.0  0.6203563112115447  0.8070251783854445  0.298358193647914  1.0000
  C   C28       1.0  0.37964041628997347  0.19297691872642278  0.7016455416409002  1.0000
  C   C29       1.0  0.7859355503990527  0.8814399535243782  0.10895752640258388  1.0000
  C   C30       1.0  0.21408131936630068  0.11857201691422864  0.8910491023011532  1.0000
  C   C31       1.0  0.3065696766725523  0.716588829276887  0.0802223339446684  1.0000
  C   C32       1.0  0.6934422808782158  0.2834241042343563  0.9197793464013344  1.0000
  O   O1        1.0  0.2042479341030656  0.5637697879633095  0.05232579748288659  1.0000
  O   O2        1.0  0.7957723670043535  0.43624165726523506  0.9476744610475124  1.0000
  O   O3        1.0  0.3026013898969566  0.8639055734521078  0.0478602670974126  1.0000
  O   O4        1.0  0.6974251560721284  0.136101623341375  0.9521384558331718  1.0000
  O   O5        1.0  0.7782248787249914  0.7572797950551902  0.05587620898793231  1.0000
  O   O6        1.0  0.22180531679237694  0.2427416739343968  0.9441288235539957  1.0000
  O   O7        1.0  0.8987924095186769  0.0392433603276316  0.11622927270190792  1.0000
  O   O8        1.0  0.1012322032954813  0.9607633893648851  0.8837806777118118  1.0000
  O   O9        1.0  0.07729895247779692  0.5481814141788632  0.3296943891289316  1.0000
  O   O10       1.0  0.9226992494023775  0.45180633551974847  0.6703020962502322  1.0000
  O   O11       1.0  0.9202542959622162  0.9416024660006882  0.38588934678606523  1.0000
  O   O12       1.0  0.079740465918583  0.05838607613222988  0.6141167393770599  1.0000
  O   O13       1.0  0.22209096607922157  0.5824148453765758  0.8870972602524462  1.0000
  O   O14       1.0  0.7779285516656814  0.4175910887856418  0.1129028617574619  1.0000
  O   O15       1.0  0.6368051095137233  0.8015358044195156  0.8891212744689482  1.0000
  O   O16       1.0  0.3632126954459167  0.19847030327299825  0.1108809557574162  1.0000
