data_image0
_chemical_formula_structural       Zn2H40C72N2O26
_chemical_formula_sum              "Zn2 H40 C72 N2 O26"
_cell_length_a       10.851794405699335
_cell_length_b       17.108398624377894
_cell_length_c       17.8397866291221
_cell_angle_alpha    89.2899545601284
_cell_angle_beta     93.82657003360258
_cell_angle_gamma    90.72617927021776

_space_group_name_H-M_alt    "P 1"
_space_group_IT_number       1

loop_
  _space_group_symop_operation_xyz
  'x, y, z'

loop_
  _atom_site_type_symbol
  _atom_site_label
  _atom_site_symmetry_multiplicity
  _atom_site_fract_x
  _atom_site_fract_y
  _atom_site_fract_z
  _atom_site_occupancy
  Zn  Zn1       1.0  0.4919215577529742  0.40715920276981876  0.4963312507643635  1.0000
  Zn  Zn2       1.0  0.5006064695448414  0.5942123670112734  0.5039774923993149  1.0000
  H   H1        1.0  0.2031505058217959  0.8250868953725998  0.5355878296222798  1.0000
  H   H2        1.0  0.7995053701286352  0.17775567560252628  0.46289705556137056  1.0000
  H   H3        1.0  0.8724719707467726  0.6028787997179849  0.5538061464786138  1.0000
  H   H4        1.0  0.11771057467067439  0.40148037774782347  0.4382662202401377  1.0000
  H   H5        1.0  0.3533135998602148  0.8257729265142687  0.7301460104092214  1.0000
  H   H6        1.0  0.6576106905879796  0.1624161837230957  0.2686022603419929  1.0000
  H   H7        1.0  0.826728075486244  0.5471783128544843  0.8504526376834036  1.0000
  H   H8        1.0  0.20910018995105872  0.43763036723346727  0.1120839468715431  1.0000
  H   H9        1.0  0.3851235769247977  0.0515282296282962  0.3892006324045312  1.0000
  H   H10       1.0  0.6377337401236787  0.9470553099106381  0.6146060398465778  1.0000
  H   H11       1.0  0.34982055700651665  0.27365069232371303  0.342532994209904  1.0000
  H   H12       1.0  0.233567692666  0.2621880903654272  0.4043439870284118  1.0000
  H   H13       1.0  0.3307665258072561  0.3471831028000594  0.4113309796047844  1.0000
  H   H14       1.0  0.6395323009154907  0.7067939581529076  0.6575378488454362  1.0000
  H   H15       1.0  0.6849577878233148  0.6518454552348272  0.5797773926086336  1.0000
  H   H16       1.0  0.7638734430255737  0.7406483233525095  0.6080873205547803  1.0000
  H   H17       1.0  0.6963317650750368  0.2597326430295296  0.6515412733084033  1.0000
  H   H18       1.0  0.6733920638404242  0.34466748859698265  0.5937461974355642  1.0000
  H   H19       1.0  0.5603582988279285  0.3161133033873753  0.6550263578002884  1.0000
  H   H20       1.0  0.29600062988094317  0.7490899125712219  0.3579556425506212  1.0000
  H   H21       1.0  0.4265787595510133  0.68858911366123  0.3495999398468399  1.0000
  H   H22       1.0  0.3176750779770785  0.6633896667054842  0.4147225022593872  1.0000
  H   H23       1.0  0.7451773996028023  0.15419789183697927  0.6300805068302324  1.0000
  H   H24       1.0  0.262797298399434  0.8593196915529333  0.3768613927834537  1.0000
  H   H25       1.0  0.37626594327855406  0.7104652630082028  0.764600912788282  1.0000
  H   H26       1.0  0.2285332044249984  0.7101789648233916  0.8022295734115658  1.0000
  H   H27       1.0  0.2915973250559958  0.6215689950858234  0.775106888737227  1.0000
  H   H28       1.0  0.6368204332251607  0.2639366565503068  0.2229769435455609  1.0000
  H   H29       1.0  0.6561748732805482  0.3671791593067936  0.22754066413837387  1.0000
  H   H30       1.0  0.7735314432829483  0.31123544182067053  0.1939263517309442  1.0000
  H   H31       1.0  0.0566751604305082  0.5193987275428923  0.6611977399515964  1.0000
  H   H32       1.0  0.9146814761037515  0.485399881408611  0.33371607964362227  1.0000
  H   H33       1.0  0.025439777726745702  0.667493399745979  0.42707452694899917  1.0000
  H   H34       1.0  0.9622914256898767  0.3428642695011347  0.5678656056564009  1.0000
  H   H35       1.0  0.33427405874248717  0.3977196088965869  0.9414481679278666  1.0000
  H   H36       1.0  0.6960560248113198  0.5814442019085034  0.0599484710717775  1.0000
  H   H37       1.0  0.3140739962738053  0.3471437788819642  0.7266841800378856  1.0000
  H   H38       1.0  0.6682306363964939  0.663060311902825  0.265325655161071  1.0000
  H   H39       1.0  0.7653943322557241  0.6086746235432018  0.7473045440629846  1.0000
  H   H40       1.0  0.2834487612145509  0.4471757323260023  0.32174105349516674  1.0000
  C   C1        1.0  0.49443121601970563  0.4999371088195304  0.3548546182389245  1.0000
  C   C2        1.0  0.503539818547317  0.5002667905192055  0.6441472359761491  1.0000
  C   C3        1.0  0.866378061705639  0.49549467222345106  0.49405050969720316  1.0000
  C   C4        1.0  0.12406344043336757  0.5090495375816603  0.4980952830567347  1.0000
  C   C5        1.0  0.933945371224972  0.43726703317373256  0.4602379593646618  1.0000
  C   C6        1.0  0.055871953281347  0.5675635876198368  0.5313776482077799  1.0000
  C   C7        1.0  0.4288578993746412  0.4485840917426032  0.8448503210367447  1.0000
  C   C8        1.0  0.5919167801954544  0.541724986228239  0.15657059465214468  1.0000
  C   C9        1.0  0.4224656079617334  0.4515924930666557  0.7659198455266321  1.0000
  C   C10       1.0  0.5859803072077553  0.5474687055568452  0.23481000228637328  1.0000
  C   C11       1.0  0.515715712487875  0.4898513780130714  0.7283932078293488  1.0000
  C   C12       1.0  0.49472803012387345  0.5052548857455366  0.2704144867754934  1.0000
  C   C13       1.0  0.6213619062167127  0.5181646848162133  0.7699029569035076  1.0000
  C   C14       1.0  0.40229272080262757  0.4644757405097906  0.226923297558713  1.0000
  C   C15       1.0  0.6306302404807838  0.5137849952845527  0.8490147948324918  1.0000
  C   C16       1.0  0.4058328005693638  0.4594608788124788  0.1486272414993977  1.0000
  C   C17       1.0  0.5302983902437218  0.4825142994269314  0.8879919191969988  1.0000
  C   C18       1.0  0.5045288819878379  0.49594106018645323  0.11257671284114679  1.0000
  C   C19       1.0  0.5278633046278856  0.4854688725082498  0.9668972803691672  1.0000
  C   C20       1.0  0.5145744400523995  0.4892487047545727  0.0342568308967444  1.0000
  C   C21       1.0  0.421081251025079  0.1592598848341495  0.4520635228956991  1.0000
  C   C22       1.0  0.5838474609956988  0.8393315123869626  0.555188468181818  1.0000
  C   C23       1.0  0.2619627113739257  0.5111724644001897  0.4974477113503254  1.0000
  C   C24       1.0  0.7293019101889016  0.4920876154238201  0.49789738032603026  1.0000
  C   C25       1.0  0.4142323453374956  0.2415349188221185  0.4546556094745213  1.0000
  C   C26       1.0  0.5874631538815082  0.7570298370341105  0.550019970215395  1.0000
  C   C27       1.0  0.5611254467289299  0.2456533715152105  0.5580413745612276  1.0000
  C   C28       1.0  0.43889657682928634  0.7584298608819041  0.4476169407398842  1.0000
  C   C29       1.0  0.5698096834390398  0.16376183498142174  0.5598642632067339  1.0000
  C   C30       1.0  0.43767158568206094  0.8403459301986087  0.44616175308611616  1.0000
  C   C31       1.0  0.49890727961415837  0.11903933631368349  0.5060329807652266  1.0000
  C   C32       1.0  0.5108339334741742  0.8824443099422082  0.5008621714285014  1.0000
  C   C33       1.0  0.5054670643384611  0.0363618636027425  0.5051506721032908  1.0000
  C   C34       1.0  0.5080232632189379  0.9651603145488749  0.5027394058645882  1.0000
  C   C35       1.0  0.22468909093780806  0.6938507404589344  0.6818900607315186  1.0000
  C   C36       1.0  0.7627284687716839  0.3050182542775631  0.3139454511512554  1.0000
  C   C37       1.0  0.150395986029082  0.6334648437129216  0.6479641470214901  1.0000
  C   C38       1.0  0.8298222700410917  0.3695723212767916  0.3466419749802013  1.0000
  C   C39       1.0  0.11421498624079619  0.6369097056620063  0.5704075881777085  1.0000
  C   C40       1.0  0.8745379521619795  0.3671394403163859  0.4229338973585754  1.0000
  C   C41       1.0  0.12928337951146318  0.7079085925152454  0.5303224544843629  1.0000
  C   C42       1.0  0.8654323748443389  0.2967003490828262  0.46457181406101  1.0000
  C   C43       1.0  0.19282184960773918  0.7698353749238508  0.5658454647932132  1.0000
  C   C44       1.0  0.8055744362660492  0.2323667611632914  0.43106525972054743  1.0000
  C   C45       1.0  0.24567371080062367  0.7624508965553644  0.6391836073540205  1.0000
  C   C46       1.0  0.7515649433813819  0.2360559320455877  0.35777532623720276  1.0000
  C   C47       1.0  0.9277771784369833  0.5593343427065134  0.5280179691575455  1.0000
  C   C48       1.0  0.062236569402308796  0.44557560336938445  0.4633232120051503  1.0000
  C   C49       1.0  0.3180543833682705  0.8301229097696846  0.6703181728690168  1.0000
  C   C50       1.0  0.6867278329348421  0.1642115514177362  0.3294319133887029  1.0000
  C   C51       1.0  0.7497861944414338  0.5371944136689563  0.8881147682071671  1.0000
  C   C52       1.0  0.30429087614885464  0.41816640526018733  0.103232158837514  1.0000
  C   C53       1.0  0.3540276255327868  0.1127918452294949  0.39192294248944387  1.0000
  C   C54       1.0  0.6481774955052585  0.8827554661410488  0.618393692512683  1.0000
  C   C55       1.0  0.3282121758211288  0.28461143950480056  0.4007278813257287  1.0000
  C   C56       1.0  0.6740300645910224  0.7107241850255974  0.6010475487583945  1.0000
  C   C57       1.0  0.6278667735384004  0.29352666335497457  0.6177125900182219  1.0000
  C   C58       1.0  0.3646381330159514  0.7131248628770379  0.3892471580065333  1.0000
  C   C59       1.0  0.6542846435827202  0.12484629946531099  0.6178230334523391  1.0000
  C   C60       1.0  0.3589488159745997  0.8819297790438441  0.38690275715482153  1.0000
  C   C61       1.0  0.28382757309656625  0.6835519970711416  0.7600309003517935  1.0000
  C   C62       1.0  0.7034514725071545  0.3111743054941556  0.2356802983392114  1.0000
  C   C63       1.0  0.0959647728736286  0.5697857498473908  0.6933588498638699  1.0000
  C   C64       1.0  0.863370768559868  0.43909448002833773  0.30120752899274805  1.0000
  C   C65       1.0  0.07780109490057191  0.7182786226313382  0.4519786197825796  1.0000
  C   C66       1.0  0.9157278281645063  0.2898169382389995  0.5435071471831492  1.0000
  C   C67       1.0  0.32539642614366926  0.4087887090354911  0.8800792837898895  1.0000
  C   C68       1.0  0.6941368548176711  0.583677954336096  0.12183157133687668  1.0000
  C   C69       1.0  0.31691892941852734  0.41190995294078897  0.7210096990393209  1.0000
  C   C70       1.0  0.674445385412433  0.5999143766922188  0.2802495811489081  1.0000
  C   C71       1.0  0.7263552611991457  0.5512417073715314  0.7281620973046188  1.0000
  C   C72       1.0  0.29812164699328036  0.42701951339834915  0.26403770664462906  1.0000
  N   N1        1.0  0.4853028157091828  0.2834679878833128  0.5056763000173206  1.0000
  N   N2        1.0  0.513586468858584  0.717835300250819  0.49836644729400353  1.0000
  O   O1        1.0  0.5025318371760221  0.43077215744020236  0.38117899995202004  1.0000
  O   O2        1.0  0.5101903974681932  0.5699693071805144  0.6201124783688811  1.0000
  O   O3        1.0  0.48317862668666567  0.5631192343713778  0.3893177069465493  1.0000
  O   O4        1.0  0.48719148740358514  0.4379818346676032  0.6072357481302859  1.0000
  O   O5        1.0  0.31350034597724624  0.44731485719918135  0.4830386746116559  1.0000
  O   O6        1.0  0.6762122975195766  0.557430812492612  0.501342522585226  1.0000
  O   O7        1.0  0.31582414192177316  0.5768448637556318  0.5092903912524775  1.0000
  O   O8        1.0  0.6785789221344772  0.42472119395509367  0.49916958721856725  1.0000
  O   O9        1.0  0.3392988599317448  0.8893892210886989  0.6336233571459928  1.0000
  O   O10       1.0  0.6655023244287648  0.10770867413967268  0.3698489721293825  1.0000
  O   O11       1.0  0.7690528076044458  0.5438226618766465  0.9560840545871798  1.0000
  O   O12       1.0  0.32451003503693693  0.3698941670885815  0.05570733755792649  1.0000
  O   O13       1.0  0.2726900309015079  0.13764858777572897  0.3472373085882481  1.0000
  O   O14       1.0  0.7053413056408075  0.8524284799077506  0.6726290667854968  1.0000
  O   O15       1.0  0.6283936115822469  0.0633531373185576  0.6491431258417535  1.0000
  O   O16       1.0  0.39611585763844204  0.9383298349185548  0.35180509300401747  1.0000
  O   O17       1.0  0.08393819121695148  0.5745197844720736  0.761135295245509  1.0000
  O   O18       1.0  0.8441534635823517  0.44606193590925614  0.2328917090567799  1.0000
  O   O19       1.0  0.08921936631231378  0.77887271063981  0.4152060473006856  1.0000
  O   O20       1.0  0.9077703513915125  0.22984939414558167  0.5816263949554211  1.0000
  O   O21       1.0  0.23306827562205967  0.3870932697276288  0.8416863949366302  1.0000
  O   O22       1.0  0.7735950425831959  0.6194831586314749  0.16043457288544974  1.0000
  O   O23       1.0  0.2481109795333865  0.4468641151574743  0.6753856213690739  1.0000
  O   O24       1.0  0.739112795987367  0.5767114091802766  0.3345667726385669  1.0000
  O   O25       1.0  0.7667308806572422  0.5176274003967265  0.6751633618284032  1.0000
  O   O26       1.0  0.2289944241509261  0.37811190635382264  0.2332962035236719  1.0000
