data_image0
_chemical_formula_structural       Zn8H30C60S6N6O26
_chemical_formula_sum              "Zn8 H30 C60 S6 N6 O26"
_cell_length_a       20.45654074175136
_cell_length_b       20.744724346619353
_cell_length_c       20.396868475749404
_cell_angle_alpha    60.22107596902865
_cell_angle_beta     61.341675221730114
_cell_angle_gamma    89.95704529928744

_space_group_name_H-M_alt    "P 1"
_space_group_IT_number       1

loop_
  _space_group_symop_operation_xyz
  'x, y, z'

loop_
  _atom_site_type_symbol
  _atom_site_label
  _atom_site_symmetry_multiplicity
  _atom_site_fract_x
  _atom_site_fract_y
  _atom_site_fract_z
  _atom_site_occupancy
  Zn  Zn1       1.0  0.8873543876339764  0.9594222565783922  0.12564456413303315  1.0000
  Zn  Zn2       1.0  0.04491606366216423  0.9182315117820822  0.10453287475688457  1.0000
  Zn  Zn3       1.0  0.06318791434856759  0.0878791690157641  0.9512732806405141  1.0000
  Zn  Zn4       1.0  0.0018067343687420661  0.9338552909532395  0.9716911824643761  1.0000
  Zn  Zn5       1.0  0.6101302204770672  0.5260952433144084  0.9736439838223419  1.0000
  Zn  Zn6       1.0  0.4678667490322893  0.5044167686348473  0.9528206253762833  1.0000
  Zn  Zn7       1.0  0.4418726319677262  0.5092369752621908  0.12221645707275991  1.0000
  Zn  Zn8       1.0  0.4768175425169474  0.36295483120240135  0.1122467003245903  1.0000
  H   H1        1.0  0.9782637036646731  0.8176772560021847  0.35454452928103536  1.0000
  H   H2        1.0  0.5968647043564275  0.6524535203752252  0.6042479405972188  1.0000
  H   H3        1.0  0.5558571995898163  0.6659728345155784  0.6935331855106455  1.0000
  H   H4        1.0  0.6097421475301984  0.7485000200098285  0.5780731658463267  1.0000
  H   H5        1.0  0.7385928537842188  0.7897079212445988  0.4298839316125012  1.0000
  H   H6        1.0  0.9976385425893922  0.2806229572407659  0.8958081578595766  1.0000
  H   H7        1.0  0.5762830729231893  0.20691666447548576  0.17999985574545715  1.0000
  H   H8        1.0  0.6227357805941125  0.14624258239965823  0.14672844341683336  1.0000
  H   H9        1.0  0.6359725040352585  0.1609900133091315  0.21836457770415052  1.0000
  H   H10       1.0  0.7629267550320833  0.1267894833587633  0.11868903253981246  1.0000
  H   H11       1.0  0.6777642981842361  0.832390532901215  0.19995486051890057  1.0000
  H   H12       1.0  0.7568227460843389  0.6848482420643408  0.9193023940764465  1.0000
  H   H13       1.0  0.8120012006525953  0.7681356291769958  0.8970399856623814  1.0000
  H   H14       1.0  0.8070896593110817  0.6729868528464424  0.9732074086305927  1.0000
  H   H15       1.0  0.8335428591590384  0.8010719505586649  0.9900641014117115  1.0000
  H   H16       1.0  0.18096041624516349  0.9833775355145916  0.1637742931418844  1.0000
  H   H17       1.0  0.34633377602787613  0.3480766081276628  0.8573225025206026  1.0000
  H   H18       1.0  0.2673196818756551  0.36029450979857813  0.934994663392999  1.0000
  H   H19       1.0  0.36510085095531497  0.4057592804742001  0.892251486086373  1.0000
  H   H20       1.0  0.22724257263264036  0.21944300665739291  0.9523554708468397  1.0000
  H   H21       1.0  0.148055177014399  0.8188602764153288  0.8780286431832351  1.0000
  H   H22       1.0  0.27723683173524444  0.7001937394873678  0.1378755243372256  1.0000
  H   H23       1.0  0.19018020335739294  0.6224057809888138  0.20492240675643814  1.0000
  H   H24       1.0  0.2817707930344611  0.6032320545914162  0.17632291051668145  1.0000
  H   H25       1.0  0.16328757172062322  0.7498842648433098  0.10631629010811855  1.0000
  H   H26       1.0  0.07144248127480067  0.0246122303118241  0.723027734387216  1.0000
  H   H27       1.0  0.3707738152862063  0.4092011599641765  0.38340356979759355  1.0000
  H   H28       1.0  0.2870793337277108  0.3768169735140959  0.4918487950250849  1.0000
  H   H29       1.0  0.3646690286158218  0.3366528820149952  0.48399995637488763  1.0000
  H   H30       1.0  0.21407632733570375  0.23201804824850575  0.6485895331530359  1.0000
  C   C1        1.0  0.8940002291461439  0.8562478202058799  0.2828324485428126  1.0000
  C   C2        1.0  0.8612214456103828  0.8087568196414878  0.3817559037376626  1.0000
  C   C3        1.0  0.9157751462966742  0.7934888569663556  0.40734988940752714  1.0000
  C   C4        1.0  0.8188700448413255  0.7216291529324225  0.5559100264051793  1.0000
  C   C5        1.0  0.6869343300756013  0.6512935075015065  0.6967961738276501  1.0000
  C   C6        1.0  0.6268829693087524  0.6015853329668062  0.7949309168051144  1.0000
  C   C7        1.0  0.6810220749424257  0.689597054829626  0.6226050729508902  1.0000
  C   C8        1.0  0.6066565415115334  0.6892150134810464  0.6252727312055272  1.0000
  C   C9        1.0  0.7578010011944015  0.7314465217267312  0.5397093797887679  1.0000
  C   C10       1.0  0.7811406373846951  0.7781959833234781  0.44869655756431837  1.0000
  C   C11       1.0  0.915533304030049  0.1293139489794726  0.026402098772137943  1.0000
  C   C12       1.0  0.8832425261270911  0.19625849783608368  0.009573657950547008  1.0000
  C   C13       1.0  0.935408556539464  0.27281061028530473  0.936531646938228  1.0000
  C   C14       1.0  0.8366657389619545  0.325435269674756  0.9643505277077581  1.0000
  C   C15       1.0  0.7032909007389422  0.3361440690228862  0.03377568788179262  1.0000
  C   C16       1.0  0.640319426167217  0.3726148162911328  0.04621098020147224  1.0000
  C   C17       1.0  0.7006729187883066  0.2587211799548825  0.07975632913247213  1.0000
  C   C18       1.0  0.6295761649910218  0.1898839174842735  0.16057286935081555  1.0000
  C   C19       1.0  0.778095731344436  0.2517457390518203  0.039762109278392105  1.0000
  C   C20       1.0  0.8035025422560551  0.1855075148906593  0.062268915992483076  1.0000
  C   C21       1.0  0.831706578242013  0.8695169444905841  0.07441104469637623  1.0000
  C   C22       1.0  0.7632198896684554  0.8219340597465391  0.09258265999544343  1.0000
  C   C23       1.0  0.6861806966724088  0.8073366897694498  0.16147107372992034  1.0000
  C   C24       1.0  0.6338777648505172  0.733392522029071  0.1356231018001708  1.0000
  C   C25       1.0  0.624960190917612  0.6633742158325121  0.06975212484585584  1.0000
  C   C26       1.0  0.5908138488512121  0.6119495669525604  0.05652996630838909  1.0000
  C   C27       1.0  0.7025253711856009  0.7037178118822072  0.02602946312318715  1.0000
  C   C28       1.0  0.7729757715621728  0.7075337149379877  0.9495063454739778  1.0000
  C   C29       1.0  0.7082433050714059  0.7442667297664087  0.06421128871544826  1.0000
  C   C30       1.0  0.7743656426557095  0.7901783723870324  0.043100490879560055  1.0000
  C   C31       1.0  0.15033765498657906  0.06558408332382018  0.036805101847043914  1.0000
  C   C32       1.0  0.19933116385612237  0.0983924877959339  0.05514817259000889  1.0000
  C   C33       1.0  0.20911771664136578  0.0459437599080488  0.1255698621759294  1.0000
  C   C34       1.0  0.2844408617316248  0.1450143578341638  0.1013175758151874  1.0000
  C   C35       1.0  0.35736442667917595  0.278623324474367  0.0356635079133625  1.0000
  C   C36       1.0  0.4058245963869566  0.3410229429182293  0.023776539552059765  1.0000
  C   C37       1.0  0.32174959206919596  0.28151328625796884  0.9915910001067517  1.0000
  C   C38       1.0  0.3258641294883375  0.3532206255846901  0.914719405790571  1.0000
  C   C39       1.0  0.27909011570583425  0.2039514192626868  0.029216339565437024  1.0000
  C   C40       1.0  0.2346546906448026  0.1785506442179923  0.006411645764792692  1.0000
  C   C41       1.0  0.10113276620024443  0.8384160555961843  0.013676782824624903  1.0000
  C   C42       1.0  0.1503828042670747  0.7894486644474057  0.9946478092945771  1.0000
  C   C43       1.0  0.17042057622202833  0.786325311961278  0.9197177433130295  1.0000
  C   C44       1.0  0.24303044973082416  0.7069972493142842  0.9477049333085006  1.0000
  C   C45       1.0  0.3074326795009624  0.6265925388054114  0.02016897153330883  1.0000
  C   C46       1.0  0.3580902876395129  0.57776840826417  0.0339468775060823  1.0000
  C   C47       1.0  0.2633192495904879  0.6568786846779135  0.06775712375741708  1.0000
  C   C48       1.0  0.2529621690805186  0.6444760800037486  0.15136958962752095  1.0000
  C   C49       1.0  0.22611030657495226  0.7042392589368872  0.025704391272697174  1.0000
  C   C50       1.0  0.1784305680435452  0.7476939001420818  0.04855899376293139  1.0000
  C   C51       1.0  0.0990190137889329  0.08897097950791279  0.7954057809926383  1.0000
  C   C52       1.0  0.1392384248529481  0.12470232957777935  0.6964529327521732  1.0000
  C   C53       1.0  0.11752373087655597  0.08078939818574332  0.6704972855694609  1.0000
  C   C54       1.0  0.20659280588273526  0.172386588898398  0.5222494026047144  1.0000
  C   C55       1.0  0.31083761705624363  0.29349537607129145  0.38162329887200747  1.0000
  C   C56       1.0  0.36902331621043766  0.3504483760563915  0.28370035621427553  1.0000
  C   C57       1.0  0.29237245752876356  0.2948444554148608  0.4555684861647365  1.0000
  C   C58       1.0  0.33099927329682544  0.3581213690471259  0.4528986753237944  1.0000
  C   C59       1.0  0.23228508595580172  0.2237465417855375  0.5385100847240095  1.0000
  C   C60       1.0  0.19711411494755984  0.1974817923407599  0.6295396711633003  1.0000
  S   S1        1.0  0.7829870955895399  0.6647135921568503  0.6696779276002973  1.0000
  S   S2        1.0  0.7974181747195528  0.40150246131914713  0.9436431593045426  1.0000
  S   S3        1.0  0.558188513625609  0.6743762496783319  0.1550731831913764  1.0000
  S   S4        1.0  0.34108729478381855  0.1840934133152601  0.1217033645715659  1.0000
  S   S5        1.0  0.3042173984759202  0.6529421091189462  0.9261315906212957  1.0000
  S   S6        1.0  0.25795710533819965  0.20842454876257932  0.4088528127617437  1.0000
  N   N1        1.0  0.8959453298259914  0.7516589021574447  0.49254427136314416  1.0000
  N   N2        1.0  0.9134759952700903  0.3369003023478427  0.9135136652218421  1.0000
  N   N3        1.0  0.6219434133481484  0.7637389338547039  0.18356737591213343  1.0000
  N   N4        1.0  0.25062553408358207  0.0679049942321228  0.1491490707592007  1.0000
  N   N5        1.0  0.21628538164747368  0.7463350371648331  0.8955110190634206  1.0000
  N   N6        1.0  0.1501982327332456  0.10324418767118  0.5853010013162177  1.0000
  O   O1        1.0  0.9978404136794481  0.9772048783633595  0.03915817650466358  1.0000
  O   O2        1.0  0.9630682645535485  0.8568246122984106  0.23370077447914644  1.0000
  O   O3        1.0  0.8526974342197277  0.8920754537944048  0.25472616587853036  1.0000
  O   O4        1.0  0.555207489555265  0.576113682678951  0.8240982898976624  1.0000
  O   O5        1.0  0.6543313738091499  0.5872324071483632  0.8438218294327839  1.0000
  O   O6        1.0  0.9890728489659536  0.14692527819985193  0.9716376978496587  1.0000
  O   O7        1.0  0.8676470986993153  0.06066473015865632  0.0931021548138559  1.0000
  O   O8        1.0  0.5686412599262239  0.32939077846135234  0.10422227370956702  1.0000
  O   O9        1.0  0.6642372250209476  0.44739890582486214  0.9947121171812938  1.0000
  O   O10       1.0  0.8994341795277022  0.8740794259321589  0.01678941944921778  1.0000
  O   O11       1.0  0.8176410251117969  0.9012370006064216  0.11766661694277773  1.0000
  O   O12       1.0  0.5157945040194463  0.5880118009035089  0.10215349579197418  1.0000
  O   O13       1.0  0.637287572171708  0.5944924587038899  0.0026689851293609825  1.0000
  O   O14       1.0  0.13705264702450387  0.11327998358139979  0.977690394192841  1.0000
  O   O15       1.0  0.12527431137910136  0.9910509793281933  0.0828853847406705  1.0000
  O   O16       1.0  0.4352097767052213  0.3161920780332039  0.07159789555107925  1.0000
  O   O17       1.0  0.414881889950415  0.4126666275721576  0.9697042548241798  1.0000
  O   O18       1.0  0.0713856981923726  0.8684666698582646  0.9669124449505663  1.0000
  O   O19       1.0  0.09288243237339344  0.8470337874622302  0.07479250343688898  1.0000
  O   O20       1.0  0.36549228631749736  0.5572753272486182  0.09981600126756274  1.0000
  O   O21       1.0  0.3914165823507644  0.5605662583511516  0.975905394370095  1.0000
  O   O22       1.0  0.04588914339474569  0.0230937239732825  0.8471687072765733  1.0000
  O   O23       1.0  0.11942902741937188  0.1248622021713075  0.8219764653322414  1.0000
  O   O24       1.0  0.3903695441563215  0.422950254500293  0.2518101115269573  1.0000
  O   O25       1.0  0.3919520775817559  0.3204774580399743  0.23776749204000688  1.0000
  O   O26       1.0  0.4974201485270483  0.47644266693184534  0.04008266032667503  1.0000
