data_image0
_chemical_formula_structural       Zn4H20C31O16
_chemical_formula_sum              "Zn4 H20 C31 O16"
_cell_length_a       10.897129642989524
_cell_length_b       10.92540743540638
_cell_length_c       17.963847119457913
_cell_angle_alpha    71.93832337471582
_cell_angle_beta     81.24949630076448
_cell_angle_gamma    80.33436729803415

_space_group_name_H-M_alt    "P 1"
_space_group_IT_number       1

loop_
  _space_group_symop_operation_xyz
  'x, y, z'

loop_
  _atom_site_type_symbol
  _atom_site_label
  _atom_site_symmetry_multiplicity
  _atom_site_fract_x
  _atom_site_fract_y
  _atom_site_fract_z
  _atom_site_occupancy
  Zn  Zn1       1.0  0.5694119587177936  0.5761864138762933  0.5670693898149394  1.0000
  Zn  Zn2       1.0  0.6282533687300145  0.4069682248192875  0.4452308292135712  1.0000
  Zn  Zn3       1.0  0.40776299853074255  0.6448641860915387  0.4199485923760377  1.0000
  Zn  Zn4       1.0  0.3817911919988575  0.3860784725050053  0.5703549417613232  1.0000
  H   H1        1.0  0.32666580402910483  0.22025440219123027  0.0844372444962005  1.0000
  H   H2        1.0  0.565967934647034  0.9533361307712487  0.5702789643281675  1.0000
  H   H3        1.0  0.2992900701804118  0.5732997169424507  0.13165211324471932  1.0000
  H   H4        1.0  0.3117680184513461  0.6452318458929795  0.2075914267427237  1.0000
  H   H5        1.0  0.2422361299545273  0.49782122492067765  0.23196499138975918  1.0000
  H   H6        1.0  0.6177418030390741  0.8567033716211443  0.22046062533851796  1.0000
  H   H7        1.0  0.7240592802033063  0.9113417111832265  0.13357500003822753  1.0000
  H   H8        1.0  0.774285771715775  0.8778922079675838  0.22937222632365462  1.0000
  H   H9        1.0  0.5509379315475655  0.5173488278519258  0.8022106345701302  1.0000
  H   H10       1.0  0.7420588791038726  0.35532014014714974  0.8593611730884447  1.0000
  H   H11       1.0  0.8717908259090522  0.4298011835690758  0.8689288368492994  1.0000
  H   H12       1.0  0.8107310619072763  0.7202474984566792  0.04893371940501368  1.0000
  H   H13       1.0  0.8165478241226154  0.46360527442456606  0.7742632475809471  1.0000
  H   H14       1.0  0.4256853645852415  0.051823900084976095  0.4211603305021185  1.0000
  H   H15       1.0  0.0004102906211684934  0.6217287889124705  0.42208439493181515  1.0000
  H   H16       1.0  0.0021976470150661944  0.38565440313784904  0.5714880885958493  1.0000
  H   H17       1.0  0.7927260467606346  0.6556557310411364  0.9340241188995293  1.0000
  H   H18       1.0  0.2766983040896704  0.19059573723654924  0.9644310842808964  1.0000
  H   H19       1.0  0.2997392669820655  0.2454652074915487  0.8174257066534877  1.0000
  H   H20       1.0  0.4198655006312606  0.3421603281714027  0.15036085754086764  1.0000
  C   C1        1.0  0.5181083064022545  0.1641481943116361  0.5165108802529801  1.0000
  C   C2        1.0  0.6566219849105295  0.544906045845167  0.9250461282281747  1.0000
  C   C3        1.0  0.7132019163587202  0.6048539162773637  0.9647234992881479  1.0000
  C   C4        1.0  0.4778786095496628  0.8446993397122071  0.4793070164485442  1.0000
  C   C5        1.0  0.6724507904675506  0.6018096631960715  0.044060917911558306  1.0000
  C   C6        1.0  0.5721022027240963  0.5289808641983099  0.0851758071206064  1.0000
  C   C7        1.0  0.7337698316122286  0.6669201976320879  0.08159864752030187  1.0000
  C   C8        1.0  0.6993567214931744  0.6603234175189315  0.15968767285359317  1.0000
  C   C9        1.0  0.5340415164105323  0.5323713498365735  0.1642643919069684  1.0000
  C   C10       1.0  0.4725012019293473  0.9848202619205962  0.47038187942186477  1.0000
  C   C11       1.0  0.5217976053456042  0.024933787958339303  0.5212278805099544  1.0000
  C   C12       1.0  0.3496368033349668  0.2914244208121133  0.8474165404723379  1.0000
  C   C13       1.0  0.035557420836084874  0.5437192948067989  0.47160880781347453  1.0000
  C   C14       1.0  0.9622889204384536  0.4613442672562869  0.5224239624753224  1.0000
  C   C15       1.0  0.8258471115705035  0.4683480885003561  0.5175556490394086  1.0000
  C   C16       1.0  0.17000709245498774  0.5335588399580048  0.4808214246183837  1.0000
  C   C17       1.0  0.5658708799708307  0.574684733953859  0.2878462989492476  1.0000
  C   C18       1.0  0.4392399328198025  0.4240611298268604  0.714829589332254  1.0000
  C   C19       1.0  0.4272095679756092  0.38580606388072164  0.8023865236072042  1.0000
  C   C20       1.0  0.5983134593477928  0.5928641392371361  0.20105094545399993  1.0000
  C   C21       1.0  0.33802494058525656  0.2610967560639281  0.9283017302732545  1.0000
  C   C22       1.0  0.3145899063370408  0.5534511555141678  0.1937423196960424  1.0000
  C   C23       1.0  0.4938863996196475  0.4442913223983851  0.8391016007274245  1.0000
  C   C24       1.0  0.7161584382513411  0.8483964844230274  0.19488855523577794  1.0000
  C   C25       1.0  0.7886517736823961  0.44369984911295285  0.837683135164248  1.0000
  C   C26       1.0  0.48628799708487236  0.41301715317578663  0.9220172192118596  1.0000
  C   C27       1.0  0.4030833480914069  0.3214882981198528  0.9669204287419503  1.0000
  C   C28       1.0  0.5534638980050346  0.4728857168884277  0.9626823663817916  1.0000
  C   C29       1.0  0.5190439761577254  0.457080083897118  0.04484901636324417  1.0000
  C   C30       1.0  0.4374335678237387  0.36239553430414156  0.08687826090731221  1.0000
  C   C31       1.0  0.38528543474350846  0.29451895808460904  0.05008950257520439  1.0000
  O   O1        1.0  0.49599736455584054  0.5038383064500565  0.49934293281790326  1.0000
  O   O2        1.0  0.6326921465403715  0.48081724351028743  0.3310341179139016  1.0000
  O   O3        1.0  0.3771767626973954  0.36841772754674207  0.6825057079250882  1.0000
  O   O4        1.0  0.4774103194992421  0.6519067469750511  0.3102597262305054  1.0000
  O   O5        1.0  0.5113417668030777  0.509744119079123  0.6782400698671224  1.0000
  O   O6        1.0  0.4331220610431999  0.47415180553051794  0.21005887533963366  1.0000
  O   O7        1.0  0.7638801182406781  0.7156522685370633  0.19879578942100548  1.0000
  O   O8        1.0  0.7050301644025794  0.555671852025924  0.8476735302701925  1.0000
  O   O9        1.0  0.7532013751997437  0.5275730967924872  0.561274570971719  1.0000
  O   O10       1.0  0.21315799111680891  0.44165395393273615  0.5379399140761691  1.0000
  O   O11       1.0  0.6019416151787382  0.2245232949463585  0.4687105159180902  1.0000
  O   O12       1.0  0.42185582252406556  0.8159878728580383  0.43050595305509626  1.0000
  O   O13       1.0  0.4328218519669208  0.2075652499462919  0.5618966275770488  1.0000
  O   O14       1.0  0.5377453821452178  0.7650236423459305  0.5343189374132251  1.0000
  O   O15       1.0  0.7957695056244775  0.41311328283878623  0.47143671348284494  1.0000
  O   O16       1.0  0.23097684583493822  0.6188352214769351  0.4300555749946469  1.0000
