data_image0
_chemical_formula_structural       Ni2H32C24N8O12
_chemical_formula_sum              "Ni2 H32 C24 N8 O12"
_cell_length_a       7.587821818175815
_cell_length_b       8.583089099846504
_cell_length_c       11.934252463341394
_cell_angle_alpha    100.55932254949687
_cell_angle_beta     89.9995277125716
_cell_angle_gamma    89.99950287180556

_space_group_name_H-M_alt    "P 1"
_space_group_IT_number       1

loop_
  _space_group_symop_operation_xyz
  'x, y, z'

loop_
  _atom_site_type_symbol
  _atom_site_label
  _atom_site_symmetry_multiplicity
  _atom_site_fract_x
  _atom_site_fract_y
  _atom_site_fract_z
  _atom_site_occupancy
  Ni  Ni1       1.0  0.49999460513598143  0.9999959820720934  0.499998158687241  1.0000
  Ni  Ni2       1.0  2.9008645583e-06  0.500002938969729  3.1365718840223886e-06  1.0000
  H   H1        1.0  0.7573773000629487  0.7034974315993948  0.43012115327307765  1.0000
  H   H2        1.0  0.2573805803206781  0.796502301448285  0.0698839881930411  1.0000
  H   H3        1.0  0.24261928739767313  0.29649777502521596  0.5698770420343353  1.0000
  H   H4        1.0  0.7426252323418794  0.2035068957055727  0.9301206132233947  1.0000
  H   H5        1.0  0.40609754665457837  0.8385405982825631  0.7070226623009008  1.0000
  H   H6        1.0  0.9061069468668492  0.661461006596653  0.7929840478983795  1.0000
  H   H7        1.0  0.5938937692519133  0.16144759094854777  0.2929727457070968  1.0000
  H   H8        1.0  0.0938975479200792  0.3385409518241714  0.20702192373479286  1.0000
  H   H9        1.0  0.8586643640606085  0.4123252608515315  0.4775528791394877  1.0000
  H   H10       1.0  0.3586649543623963  0.0876722246076582  0.02244856226425901  1.0000
  H   H11       1.0  0.1413361771392516  0.5876702556027809  0.5224394956138954  1.0000
  H   H12       1.0  0.6413369046268899  0.9123335081198931  0.9775538140009918  1.0000
  H   H13       1.0  0.6956754648877705  0.3287919177320475  0.555111965969225  1.0000
  H   H14       1.0  0.19567913269101206  0.17120469290513535  0.9448888461089955  1.0000
  H   H15       1.0  0.3043290300109973  0.6711998244092143  0.44488400414770995  1.0000
  H   H16       1.0  0.804325362107619  0.8287998554852223  0.05511334276333458  1.0000
  H   H17       1.0  0.8811520175949995  0.42598978234125434  0.6272497043166754  1.0000
  H   H18       1.0  0.3811575216682144  0.07400491165306988  0.8727523736083501  1.0000
  H   H19       1.0  0.1188564310091493  0.574004461222323  0.3727441460380093  1.0000
  H   H20       1.0  0.618848291038482  0.9259984524064464  0.1272496278754147  1.0000
  H   H21       1.0  0.5514000064144257  0.2536591091248254  0.7458572845555697  1.0000
  H   H22       1.0  0.0514132873865876  0.246341257700692  0.7541448579927066  1.0000
  H   H23       1.0  0.44858999151787055  0.7463371490636843  0.25414359267540493  1.0000
  H   H24       1.0  0.9485793462666053  0.7536692123692531  0.2458582678398856  1.0000
  H   H25       1.0  0.6929407337885112  0.11543663954632419  0.7282586873971016  1.0000
  H   H26       1.0  0.19294325555263472  0.38457056779034093  0.7717454922702348  1.0000
  H   H27       1.0  0.30705189994283427  0.8845620758067271  0.27174090158183634  1.0000
  H   H28       1.0  0.8070533318197093  0.6154363050229678  0.2282579029025201  1.0000
  H   H29       1.0  0.5278780923893365  0.5665316571514508  0.7216618755821217  1.0000
  H   H30       1.0  0.0278879742130798  0.9334667006672817  0.7783420582454073  1.0000
  H   H31       1.0  0.4721224488005618  0.4334600407447269  0.2783349260537592  1.0000
  H   H32       1.0  0.9721152026996266  0.06653425049178448  0.2216603999845433  1.0000
  C   C1        1.0  0.12809851368993458  0.9959516044244267  0.5295665033399076  1.0000
  C   C2        1.0  0.6281124284551396  0.5040531167612486  0.9704337333534031  1.0000
  C   C3        1.0  0.8718901663442368  0.004049656653066289  0.4704301343971269  1.0000
  C   C4        1.0  0.3718947021020469  0.49595353468085085  0.029573819313668516  1.0000
  C   C5        1.0  0.046862518816709595  0.9877496267849323  0.41624582198305415  1.0000
  C   C6        1.0  0.546873350683697  0.5122534922570734  0.08375757534591341  1.0000
  C   C7        1.0  0.9531248433076485  0.012254047212024888  0.583750359020897  1.0000
  C   C8        1.0  0.453133779912406  0.48775101185650976  0.9162454450235349  1.0000
  C   C9        1.0  0.6853390256632323  0.6989316694398369  0.5081785690829437  1.0000
  C   C10       1.0  0.18534218488199633  0.80106508548468  0.9918259846996239  1.0000
  C   C11       1.0  0.3146601976304595  0.3010600727267701  0.4918174010514493  1.0000
  C   C12       1.0  0.8146649457022478  0.19894055868931554  0.008178054559863302  1.0000
  C   C13       1.0  0.6875861914242167  0.5817797313446177  0.5730735864833962  1.0000
  C   C14       1.0  0.1875903803467267  0.9182182305511901  0.9269303082880572  1.0000
  C   C15       1.0  0.3124143497485932  0.4182167923777982  0.4269223016775714  1.0000
  C   C16       1.0  0.8124154323498446  0.0817850449801227  0.07307335620740223  1.0000
  C   C17       1.0  0.5021086447594384  0.7726394112518236  0.6501806655159899  1.0000
  C   C18       1.0  0.0021169390207518004  0.7273603787396254  0.8498236264072578  1.0000
  C   C19       1.0  0.4978853069427842  0.22734996229111457  0.34981492986747054  1.0000
  C   C20       1.0  0.9978875557694948  0.2726428525339202  0.15018086959842245  1.0000
  C   C21       1.0  0.785866857837732  0.4296898178084447  0.5582466405942557  1.0000
  C   C22       1.0  0.2858715221500816  0.07031057416785555  0.9417559865683035  1.0000
  C   C23       1.0  0.21413500122605464  0.5703103474093679  0.44174814670323326  1.0000
  C   C24       1.0  0.7141316547286038  0.9296962986137629  0.0582474085826306  1.0000
  N   N1        1.0  0.5687618810820183  0.8169188075080951  0.557167325840709  1.0000
  N   N2        1.0  0.06877073390746352  0.6830826658205493  0.9428377308194631  1.0000
  N   N3        1.0  0.4312320706184636  0.1830717946234586  0.44282762542110304  1.0000
  N   N4        1.0  0.931236396673455  0.3169217055007252  0.05716778406752352  1.0000
  N   N5        1.0  0.571719464347325  0.631785832397874  0.6620697150860058  1.0000
  N   N6        1.0  0.07172525574704738  0.868213243851585  0.8379349472238079  1.0000
  N   N7        1.0  0.4282797589413079  0.36820586550463463  0.33792708655423825  1.0000
  N   N8        1.0  0.928277921153793  0.13178884736789334  0.16206852989618886  1.0000
  O   O1        1.0  0.2797188410919489  0.9919094368221621  0.5735822162248356  1.0000
  O   O2        1.0  0.7797266860584529  0.5080925533143344  0.9264184917274749  1.0000
  O   O3        1.0  0.7202711568893747  0.008084762566035396  0.42641246569681374  1.0000
  O   O4        1.0  0.22027780872498684  0.4919118622837147  0.07358619166239325  1.0000
  O   O5        1.0  0.5854390679719046  0.15586544044859346  0.7704809302663027  1.0000
  O   O6        1.0  0.08544382633586882  0.34413815201691716  0.7295215489755693  1.0000
  O   O7        1.0  0.4145588373306666  0.8441354664717194  0.22952235948695696  1.0000
  O   O8        1.0  0.9145580326787198  0.655867802031146  0.2704766697604485  1.0000
  O   O9        1.0  0.0988017261012715  0.9718379830185101  0.314834354105969  1.0000
  O   O10       1.0  0.5988032140546125  0.5281614819406144  0.18516065348439537  1.0000
  O   O11       1.0  0.9011895897405042  0.028163322310412266  0.6851614521164965  1.0000
  O   O12       1.0  0.40119864493641444  0.47184302219832114  0.814842366902511  1.0000
