data_image0
_chemical_formula_structural       Cd2H40C56N4O16
_chemical_formula_sum              "Cd2 H40 C56 N4 O16"
_cell_length_a       8.97840115535905
_cell_length_b       11.871599485952684
_cell_length_c       11.871283977414661
_cell_angle_alpha    88.31887924510026
_cell_angle_beta     76.79983966293824
_cell_angle_gamma    76.79952454189451

_space_group_name_H-M_alt    "P 1"
_space_group_IT_number       1

loop_
  _space_group_symop_operation_xyz
  'x, y, z'

loop_
  _atom_site_type_symbol
  _atom_site_label
  _atom_site_symmetry_multiplicity
  _atom_site_fract_x
  _atom_site_fract_y
  _atom_site_fract_z
  _atom_site_occupancy
  Cd  Cd1       1.0  0.24324942486375523  0.6498851237194715  0.39096595145067436  1.0000
  Cd  Cd2       1.0  0.7432646590642447  0.3909571822192532  0.6498834445319731  1.0000
  H   H1        1.0  0.9155812936152543  0.04892131532714222  0.46672527523583074  1.0000
  H   H2        1.0  0.4155679902433461  0.4667294296478203  0.048926326828954814  1.0000
  H   H3        1.0  0.8956685941013375  0.8892562427816416  0.15188274373979033  1.0000
  H   H4        1.0  0.39565945200426  0.1518924903014565  0.8892581709815275  1.0000
  H   H5        1.0  0.7249245220031854  0.07430614451810412  0.10352131058045441  1.0000
  H   H6        1.0  0.2249064192194652  0.10353868300620664  0.0743078249717826  1.0000
  H   H7        1.0  0.7457257665926278  0.2307639691709795  0.420935052599738  1.0000
  H   H8        1.0  0.2457035807436014  0.420944601385429  0.23076968184173552  1.0000
  H   H9        1.0  0.5532407232765164  0.32792280876041974  0.3027281936720031  1.0000
  H   H10       1.0  0.05322542865678059  0.30273300281995574  0.3279327299597341  1.0000
  H   H11       1.0  0.5584632850470825  0.2636207305374327  0.16764161987987344  1.0000
  H   H12       1.0  0.05844482625242618  0.16765577084582625  0.2636253817266265  1.0000
  H   H13       1.0  0.729637487072317  0.2919428105416486  0.002521387639980339  1.0000
  H   H14       1.0  0.2296115647382777  0.0025363199480921005  0.2919469125517367  1.0000
  H   H15       1.0  0.7534494391434946  0.4182219925763278  0.32137901317536693  1.0000
  H   H16       1.0  0.25343920155065547  0.3213798784446312  0.4182308558370877  1.0000
  H   H17       1.0  0.9360937040466126  0.5359509925853062  0.22850870453609676  1.0000
  H   H18       1.0  0.4360939402145335  0.22850708233207231  0.5359512114573021  1.0000
  H   H19       1.0  0.9087297621876683  0.40371843861345275  0.8955467098438703  1.0000
  H   H20       1.0  0.4087200809457484  0.8955571156996599  0.4037136980819227  1.0000
  H   H21       1.0  0.08425615900945622  0.6296589556463914  0.1467375916688596  1.0000
  H   H22       1.0  0.5842721747337052  0.14673675453787643  0.6296534228055819  1.0000
  H   H23       1.0  0.04250408962864326  0.5083430349562122  0.813337280390158  1.0000
  H   H24       1.0  0.5424860161821741  0.8133482752975851  0.5083486478116158  1.0000
  H   H25       1.0  0.2252535255697551  0.62565483012191  0.720661922315287  1.0000
  H   H26       1.0  0.7252303838619482  0.7206676296713752  0.625664624575336  1.0000
  H   H27       1.0  0.2617055741388297  0.7428474831139485  0.03981008629440207  1.0000
  H   H28       1.0  0.7617203091496876  0.039806599236499124  0.742844711470589  1.0000
  H   H29       1.0  0.4315272034111429  0.712010344733038  0.7395562625411642  1.0000
  H   H30       1.0  0.931521323272939  0.7395542024449571  0.7120139423116357  1.0000
  H   H31       1.0  0.4258438678036214  0.7764263480313077  0.8746775873538439  1.0000
  H   H32       1.0  0.9258408602564854  0.8746738041874312  0.7764364190645665  1.0000
  H   H33       1.0  0.2490526482690427  0.9633700336836599  0.9423005646202184  1.0000
  H   H34       1.0  0.7490230275016357  0.9423065994279798  0.9633734906978619  1.0000
  H   H35       1.0  0.24673673778894314  0.8103265809247446  0.6181495191869288  1.0000
  H   H36       1.0  0.7467340171456055  0.6181501757304134  0.8103329481318796  1.0000
  H   H37       1.0  0.07683978246411259  0.991782361971268  0.5714271017827954  1.0000
  H   H38       1.0  0.5768364354577499  0.5714307172311878  0.9917916939019095  1.0000
  H   H39       1.0  0.07964618594250789  0.1482766215596669  0.8925456905154121  1.0000
  H   H40       1.0  0.5796150973069913  0.8925527653769764  0.148282717169991  1.0000
  C   C1        1.0  0.02499661388569054  0.8469729351358237  0.33811506903544597  1.0000
  C   C2        1.0  0.5250018646546479  0.3381125913714983  0.846976514851349  1.0000
  C   C3        1.0  0.9176629473525395  0.9572431020867427  0.3115543710609644  1.0000
  C   C4        1.0  0.41765450082800015  0.31156045390441284  0.9572455970909743  1.0000
  C   C5        1.0  0.8740275648789151  0.05350461981612402  0.3870850580461465  1.0000
  C   C6        1.0  0.3740140905235307  0.38709279431177623  0.0535099938331953  1.0000
  C   C7        1.0  0.8628486474203142  0.9652124498564164  0.20928718571365568  1.0000
  C   C8        1.0  0.36283763586326506  0.2092982000043762  0.9652142627429897  1.0000
  C   C9        1.0  0.7681599336986765  0.06828465332781522  0.1828805444763901  1.0000
  C   C10       1.0  0.26814464051420833  0.18289391869483043  0.06828758521746889  1.0000
  C   C11       1.0  0.7794425760760929  0.15670043787756782  0.3608576601386632  1.0000
  C   C12       1.0  0.2794239452782676  0.3608657932648641  0.15670627214836938  1.0000
  C   C13       1.0  0.7268911641462452  0.1650334180394779  0.2579672899006908  1.0000
  C   C14       1.0  0.22687446197722488  0.257978356007257  0.1650369155995577  1.0000
  C   C15       1.0  0.6304480099438051  0.2777443289322719  0.22652656213450229  1.0000
  C   C16       1.0  0.13043277890542976  0.2265342776193365  0.277748885023513  1.0000
  C   C17       1.0  0.7774931520818954  0.34815036830679696  0.04805949732625691  1.0000
  C   C18       1.0  0.27747841106117477  0.048068985175099506  0.34815687845831184  1.0000
  C   C19       1.0  0.7887363882633807  0.42073859614178133  0.227457347579879  1.0000
  C   C20       1.0  0.2887305892547971  0.2274566910477844  0.4207446503079382  1.0000
  C   C21       1.0  0.8914358235131702  0.4866623452960042  0.17294080888867566  1.0000
  C   C22       1.0  0.3914273398155856  0.17294404933937102  0.48666173569478133  1.0000
  C   C23       1.0  0.8789080772720154  0.4130283185827964  0.9894858265406228  1.0000
  C   C24       1.0  0.37889692236463174  0.9894947605940417  0.41302390803696204  1.0000
  C   C25       1.0  0.9384320873548901  0.48448458552051943  0.05145728963756818  1.0000
  C   C26       1.0  0.43842829962351704  0.051461923991318805  0.48448254111062283  1.0000
  C   C27       1.0  0.04716933589750027  0.5544882946096339  0.9906489975569529  1.0000
  C   C28       1.0  0.5471687064457881  0.9906547158418847  0.5544861839537704  1.0000
  C   C29       1.0  0.11051403300613322  0.6231039263863992  0.052714270618260214  1.0000
  C   C30       1.0  0.610524081465151  0.05271319567195581  0.623097664191519  1.0000
  C   C31       1.0  0.09031435826674547  0.5551228333839974  0.8690619527681989  1.0000
  C   C32       1.0  0.5903008503732678  0.8690709663060686  0.5551259111827491  1.0000
  C   C33       1.0  0.19292842340544775  0.6210755840833998  0.814601684923055  1.0000
  C   C34       1.0  0.6929164445301339  0.8146086421501693  0.6210800216854864  1.0000
  C   C35       1.0  0.21128315962612013  0.688499807582332  0.9941957804779805  1.0000
  C   C36       1.0  0.7112909032024818  0.9941947524580855  0.6884973963053581  1.0000
  C   C37       1.0  0.3540306824525459  0.7619999473887161  0.8157814554350935  1.0000
  C   C38       1.0  0.8540248581591428  0.815780745544153  0.762005536888374  1.0000
  C   C39       1.0  0.2570152298025903  0.8744576846535068  0.7841965533758071  1.0000
  C   C40       1.0  0.7570037305074707  0.7841970432119824  0.8744622284686513  1.0000
  C   C41       1.0  0.21036788370614803  0.9701150713091449  0.8610270598014509  1.0000
  C   C42       1.0  0.7103453518158032  0.8610344864486736  0.9701185675475089  1.0000
  C   C43       1.0  0.2093309546014765  0.8836694591826914  0.6793170457023265  1.0000
  C   C44       1.0  0.7093204867582512  0.6793203853298239  0.8836785826566996  1.0000
  C   C45       1.0  0.11491477944245777  0.9867103559783816  0.6525120219766976  1.0000
  C   C46       1.0  0.6149043980381421  0.6525178671053666  0.9867198437577899  1.0000
  C   C47       1.0  0.11613810795158486  0.07307446072223202  0.8339423151428349  1.0000
  C   C48       1.0  0.6161111307148274  0.8339509595338939  0.07308206802612463  1.0000
  C   C49       1.0  0.06684122295872899  0.0821144727097263  0.7293686838925382  1.0000
  C   C50       1.0  0.5668195980919466  0.729374135460766  0.08212161506824597  1.0000
  C   C51       1.0  0.9606498644140801  0.19263460069869612  0.7019114279906374  1.0000
  C   C52       1.0  0.46062712965503755  0.7019218846954518  0.19264435913802203  1.0000
  C   C53       1.0  0.9887536607218409  0.4973329070170962  0.46033362771311914  1.0000
  C   C54       1.0  0.4887635830600984  0.4603213824190038  0.4973438603761551  1.0000
  C   C55       1.0  0.9977232395006652  0.5436841984612927  0.5804629948466983  1.0000
  C   C56       1.0  0.4977506871990299  0.5804412149753803  0.5437007249869481  1.0000
  N   N1        1.0  0.7335249891504175  0.3527739770530546  0.16501741122833388  1.0000
  N   N2        1.0  0.23350554722434677  0.1650245862308566  0.35277964161168995  1.0000
  N   N3        1.0  0.25148314106304787  0.6866057183745156  0.8772010518274627  1.0000
  N   N4        1.0  0.751483510150912  0.8772004743831447  0.6866053148388787  1.0000
  O   O1        1.0  0.06406710162936241  0.841215851060639  0.435339385868744  1.0000
  O   O2        1.0  0.5640680995698871  0.4353332170521753  0.8412109434254661  1.0000
  O   O3        1.0  0.0732536766694523  0.7669668198385012  0.2610556354496509  1.0000
  O   O4        1.0  0.5732767694728196  0.26104348145050693  0.7669759864469938  1.0000
  O   O5        1.0  0.9236243388654657  0.19882687630301626  0.6039733120401536  1.0000
  O   O6        1.0  0.42360800854037706  0.6039829951172208  0.19884488148436222  1.0000
  O   O7        1.0  0.9111560203220392  0.2725039285433298  0.7791451852741746  1.0000
  O   O8        1.0  0.4111251633298067  0.7791578096832339  0.27251410082971717  1.0000
  O   O9        1.0  0.0862005624633326  0.6127697099384477  0.5808079245241515  1.0000
  O   O10       1.0  0.5862039721726899  0.5808022821412494  0.612756865025844  1.0000
  O   O11       1.0  0.07292830039101249  0.530362542129332  0.36998371577958983  1.0000
  O   O12       1.0  0.5729290857844163  0.3699884561150384  0.5303528949578791  1.0000
  O   O13       1.0  0.8996177119532831  0.428767397659577  0.46005517283341396  1.0000
  O   O14       1.0  0.3995961065185654  0.4600514101549607  0.4287689541468964  1.0000
  O   O15       1.0  0.9144322743131426  0.5098860807365142  0.6707517160791809  1.0000
  O   O16       1.0  0.414410127197577  0.6707534607202277  0.5098915504111687  1.0000
