data_image0
_chemical_formula_structural       Zn4H40C60N32O4
_chemical_formula_sum              "Zn4 H40 C60 N32 O4"
_cell_length_a       9.000330315
_cell_length_b       12.495565003491164
_cell_length_c       13.8358
_cell_angle_alpha    107.9300865975435
_cell_angle_beta     90.0
_cell_angle_gamma    90.0

_space_group_name_H-M_alt    "P 1"
_space_group_IT_number       1

loop_
  _space_group_symop_operation_xyz
  'x, y, z'

loop_
  _atom_site_type_symbol
  _atom_site_label
  _atom_site_symmetry_multiplicity
  _atom_site_fract_x
  _atom_site_fract_y
  _atom_site_fract_z
  _atom_site_occupancy
  Zn  Zn1       1.0  0.5634270990641994  0.4363575304174958  0.8832981634308228  1.0000
  Zn  Zn2       1.0  0.0634276720987188  0.5636423555245358  0.6167009375418362  1.0000
  Zn  Zn3       1.0  0.4365728659370873  0.5636415143890616  0.1167014264393416  1.0000
  Zn  Zn4       1.0  0.9365734039728935  0.43635668928202875  0.3832979295656429  1.0000
  H   H1        1.0  0.7586732665377767  0.7538634599574152  0.09386740228795534  1.0000
  H   H2        1.0  0.2586749506426287  0.2461347437136681  0.40613267647971446  1.0000
  H   H3        1.0  0.24132780953384267  0.2461355848491422  0.9061314648195166  1.0000
  H   H4        1.0  0.7413272364993162  0.7538626188219482  0.5938678911854609  1.0000
  H   H5        1.0  0.7675940502412573  0.9437968960593109  0.07021305338636101  1.0000
  H   H6        1.0  0.2675968454164419  0.05620214874724639  0.4297879820091738  1.0000
  H   H7        1.0  0.2324048036896968  0.05620214874724639  0.9297872592464885  1.0000
  H   H8        1.0  0.732405341725503  0.9437968960593109  0.5702137761490463  1.0000
  H   H9        1.0  0.6172406795716583  0.982357910579104  0.9326776724162187  1.0000
  H   H10       1.0  0.11724014153585222  0.0176428164983946  0.5673238307096825  1.0000
  H   H11       1.0  0.3827592854296284  0.0176428164983946  0.0673238307096824  1.0000
  H   H12       1.0  0.8827598234654346  0.9823570694436298  0.43267671578834677  1.0000
  H   H13       1.0  0.4583509555337884  0.8304942658820949  0.8222493025901868  1.0000
  H   H14       1.0  0.9583492714289363  0.1695047789244697  0.6777488417545926  1.0000
  H   H15       1.0  0.5416490094674913  0.1695064611954109  0.17775075501033652  1.0000
  H   H16       1.0  0.0416495825020178  0.8304934247466207  0.3222490687250072  1.0000
  H   H17       1.0  0.3519137508454904  0.2674163122584119  0.7171271073458384  1.0000
  H   H18       1.0  0.8519131778109639  0.7325844148190868  0.7828715047293144  1.0000
  H   H19       1.0  0.6480862141557964  0.7325869382255021  0.2828743746129234  1.0000
  H   H20       1.0  0.1480845650496576  0.2674137888520036  0.2171256829876  1.0000
  H   H21       1.0  0.3322000299274563  0.0527467642335182  0.6451053251008644  1.0000
  H   H22       1.0  0.8322005679632625  0.9472531217085133  0.8548937758717942  1.0000
  H   H23       1.0  0.6677954907924928  0.9472548039794546  0.35489496636484574  1.0000
  H   H24       1.0  0.1677949527566867  0.0527442408271028  0.1451053462680036  1.0000
  H   H25       1.0  0.521776405491849  0.9394541136239738  0.7027391103908017  1.0000
  H   H26       1.0  0.0217758674560358  0.0605482957244661  0.797262860465466  1.0000
  H   H27       1.0  0.47822133736877254  0.060547454588999  0.2972611810749087  1.0000
  H   H28       1.0  0.9782207643342461  0.9394499079466242  0.20273866382757433  1.0000
  H   H29       1.0  0.0236402434747731  0.18729647640117966  0.034398386987824395  1.0000
  H   H30       1.0  0.5236407815105864  0.8127042506763189  0.46560167061269914  1.0000
  H   H31       1.0  0.976360832596839  0.8127034095408447  0.9656007139848272  1.0000
  H   H32       1.0  0.476360294561033  0.18729815867212096  0.5343995774808832  1.0000
  H   H33       1.0  0.0295922472485373  0.3985081165059369  0.10565823196949249  1.0000
  H   H34       1.0  0.5295916742140179  0.6014926105715617  0.3943411028683457  1.0000
  H   H35       1.0  0.9704099398934147  0.6014917694360946  0.8943401462404809  1.0000
  H   H36       1.0  0.47040940185760144  0.3985097987768782  0.605658699699859  1.0000
  H   H37       1.0  0.8230197938018691  0.5056166250767617  0.045277125050738186  1.0000
  H   H38       1.0  0.3230181446957232  0.4943849431362111  0.4547224436522797  1.0000
  H   H39       1.0  0.1769823933400829  0.49438326086526974  0.954721253159228  1.0000
  H   H40       1.0  0.676982931375889  0.5056174662122359  0.545277358915925  1.0000
  C   C1        1.0  0.602523441941031  0.6846952079289892  0.9736525205827746  1.0000
  C   C2        1.0  0.1025240149755575  0.3153046780130424  0.5263473031525692  1.0000
  C   C3        1.0  0.3974765230602557  0.3153063602839836  0.02634777088293559  1.0000
  C   C4        1.0  0.8974770610960618  0.684693525658048  0.47365205285240825  1.0000
  C   C5        1.0  0.6934512158512902  0.772233017502522  0.034400274402877136  1.0000
  C   C6        1.0  0.1934528999561493  0.2277668684395096  0.4656009948578372  1.0000
  C   C7        1.0  0.3065487491499894  0.22776770957498368  0.9656005059603389  1.0000
  C   C8        1.0  0.8065492871858027  0.7722313352315808  0.5344005294352031  1.0000
  C   C9        1.0  0.6983732574263826  0.8776979473635506  0.0206509068098768  1.0000
  C   C10       1.0  0.1983727193905764  0.122302779713948  0.47935059631602434  1.0000
  C   C11       1.0  0.3016278186452297  0.122302779713948  0.9793498735533392  1.0000
  C   C12       1.0  0.8016283566810429  0.8776971062280836  0.5206499501820048  1.0000
  C   C13       1.0  0.6142641221496135  0.8999888784731596  0.9438840845695894  1.0000
  C   C14       1.0  0.11426247304346758  0.10001184860433911  0.5561166957936265  1.0000
  C   C15       1.0  0.3857358428516733  0.10001184860433911  0.05611814131899711  1.0000
  C   C16       1.0  0.8857363808874865  0.8999880373376925  0.44388240517903205  1.0000
  C   C17       1.0  0.5260484709221487  0.8151477492187666  0.882043057669904  1.0000
  C   C18       1.0  0.0260479328863354  0.1848521367232649  0.6179567660654399  1.0000
  C   C19       1.0  0.47395149407913817  0.1848521367232649  0.11795748882813231  1.0000
  C   C20       1.0  0.9739509210446116  0.8151469080832924  0.38204282380471716  1.0000
  C   C21       1.0  0.5176032253211815  0.7079240050884507  0.8951075444778384  1.0000
  C   C22       1.0  0.0176026872853754  0.2920750397181067  0.6048913226296335  1.0000
  C   C23       1.0  0.48239673968010527  0.2920750397181067  0.10489204539232591  1.0000
  C   C24       1.0  0.9823961666455788  0.7079240050884507  0.3951068217151459  1.0000
  C   C25       1.0  0.4172291314399388  0.6259805875306981  0.8289969435360052  1.0000
  C   C26       1.0  0.9172296694757449  0.3740192984113335  0.6710014346739684  1.0000
  C   C27       1.0  0.5827697224910153  0.3740192984113335  0.17100215743665362  1.0000
  C   C28       1.0  0.0827725176662  0.6259805875306981  0.3289976662986902  1.0000
  C   C29       1.0  0.4289998105475092  0.2105471430828842  0.7380968755549162  1.0000
  C   C30       1.0  0.9289992375129829  0.7894535839946144  0.761902459282922  1.0000
  C   C31       1.0  0.5710001544537775  0.7894535839946144  0.2619017365202366  1.0000
  C   C32       1.0  0.0709962832069664  0.2105463019474172  0.2380959189270442  1.0000
  C   C33       1.0  0.4188912926580741  0.0939422150476119  0.6982256524848083  1.0000
  C   C34       1.0  0.9188907196235476  0.9060576708944197  0.8017712801997804  1.0000
  C   C35       1.0  0.5811086723432126  0.9060576708944197  0.3017720029624726  1.0000
  C   C36       1.0  0.0811070232370668  0.09394389731855309  0.19822684297786006  1.0000
  C   C37       1.0  0.5236752246909049  0.031211172776615097  0.7314860236098896  1.0000
  C   C38       1.0  0.0236757977254314  0.9687895543008835  0.7685125884652636  1.0000
  C   C39       1.0  0.4763236292400422  0.9687903954363506  0.26851209956775796  1.0000
  C   C40       1.0  0.9763230562055228  0.0312094905056739  0.23148700140490064  1.0000
  C   C41       1.0  0.6290213583122224  0.1908275631072769  0.835010821290311  1.0000
  C   C42       1.0  0.1290230424170815  0.8091731639702289  0.6649899590729049  1.0000
  C   C43       1.0  0.370976384548392  0.8091723228347547  0.1649890024450329  1.0000
  C   C44       1.0  0.8709769225842052  0.1908267219718027  0.3350120329505017  1.0000
  C   C45       1.0  0.7414716756426074  0.2468101754966625  0.9135191865947192  1.0000
  C   C46       1.0  0.2414744708177992  0.753190551580836  0.5864815937684967  1.0000
  C   C47       1.0  0.2585271782883467  0.7531880281744279  0.0864801694102582  1.0000
  C   C48       1.0  0.7585277163241528  0.2468101754966625  0.41351990935740457  1.0000
  C   C49       1.0  0.9416365514802791  0.2387714438029676  0.011164881202105903  1.0000
  C   C50       1.0  0.4416371245147985  0.7612292832745312  0.4888351763984177  1.0000
  C   C51       1.0  0.058362302450675  0.7612292832745312  0.9888351763984178  1.0000
  C   C52       1.0  0.5583617294161485  0.2387714438029676  0.5111641584394206  1.0000
  C   C53       1.0  0.9450797584421765  0.35588694106897373  0.05101688435853898  1.0000
  C   C54       1.0  0.4450792204063704  0.644114627143999  0.4489834071071712  1.0000
  C   C55       1.0  0.0549235397701082  0.6441137860085249  0.9489831732419844  1.0000
  C   C56       1.0  0.5549218556652491  0.35588694106897373  0.551016884358539  1.0000
  C   C57       1.0  0.8347115869157946  0.41432903357475226  0.01805437133079829  1.0000
  C   C58       1.0  0.3347110488799885  0.5856725346382206  0.48194519737222663  1.0000
  C   C59       1.0  0.1652906002261574  0.5856708523672793  0.9819468979299231  1.0000
  C   C60       1.0  0.6652911382619635  0.41432903357475226  0.5180550940934836  1.0000
  N   N1        1.0  0.4106938157413609  0.5141533089691208  0.8171269089440543  1.0000
  N   N2        1.0  0.910694353777167  0.4858457358374366  0.6828719581634175  1.0000
  N   N3        1.0  0.5893072603302585  0.4858465769729108  0.18287219202859717  1.0000
  N   N4        1.0  0.0893078333647779  0.514154150104595  0.3171278655719264  1.0000
  N   N5        1.0  0.301192279074705  0.4710173586240742  0.7502296559515713  1.0000
  N   N6        1.0  0.8011928171105112  0.5289833684534244  0.7497704016489594  1.0000
  N   N7        1.0  0.6988087969969143  0.5289833684534244  0.24977040164895933  1.0000
  N   N8        1.0  0.1988104811017735  0.4710165174886071  0.25022942208638455  1.0000
  N   N9        1.0  0.24411881821028197  0.5552032433467744  0.7233992204447617  1.0000
  N   N10       1.0  0.7441193562460953  0.4447974837307243  0.7766001143930765  1.0000
  N   N11       1.0  0.7558811467909976  0.4447966425952501  0.27659988052789697  1.0000
  N   N12       1.0  0.2558828308958567  0.5552024022113073  0.2233997093422673  1.0000
  N   N13       1.0  0.3130673987935708  0.6523846710921362  0.7701728951975824  1.0000
  N   N14       1.0  0.813067936829384  0.34761605598536255  0.729826439640256  1.0000
  N   N15       1.0  0.6869325662077088  0.34761605598536255  0.22982643964025581  1.0000
  N   N16       1.0  0.1869353613829006  0.6523829888211949  0.2701731502299083  1.0000
  N   N17       1.0  0.7332375334049033  0.3593313908215805  0.9499269755854629  1.0000
  N   N18       1.0  0.2332392175097624  0.6406693362559182  0.5500738047777533  1.0000
  N   N19       1.0  0.266763542666709  0.6406676539849769  0.05007478257276427  1.0000
  N   N20       1.0  0.7667640807025222  0.3593313908215805  0.44992625282277043  1.0000
  N   N21       1.0  0.5343648323644885  0.258904021294704  0.8060872394418297  1.0000
  N   N22       1.0  0.0343642943286824  0.7410967057827946  0.6939128181586938  1.0000
  N   N23       1.0  0.4656351326367981  0.7410967057827946  0.19391281815869374  1.0000
  N   N24       1.0  0.9656323374616064  0.258904021294704  0.3060886849672073  1.0000
  N   N25       1.0  0.6290635789848764  0.078628502667641  0.7996148478544783  1.0000
  N   N26       1.0  0.1290663741600682  0.9213713832743906  0.7003856986435509  1.0000
  N   N27       1.0  0.3709319417350727  0.9213713832743906  0.20038497588086565  1.0000
  N   N28       1.0  0.8709335908412186  0.078628502667641  0.2996155706171635  1.0000
  N   N29       1.0  0.8415057820019598  0.1832800545284812  0.9422323738708442  1.0000
  N   N30       1.0  0.3415074661068118  0.8167215136844845  0.5577693631202366  1.0000
  N   N31       1.0  0.1584930719289943  0.8167198314135433  0.05776817262718478  1.0000
  N   N32       1.0  0.6584936099648004  0.1832800545284812  0.4422330966335366  1.0000
  O   O1        1.0  0.5964858857516262  0.5875348085703962  0.9943112236322663  1.0000
  O   O2        1.0  0.0964864587861527  0.41246507737163546  0.5056886001030776  1.0000
  O   O3        1.0  0.4035140792496605  0.4124659185071025  0.00568883396825732  1.0000
  O   O4        1.0  0.9035146172854667  0.587533126299455  0.49431147866459224  1.0000
