data_image0
_chemical_formula_structural       Er4H18C42N6O24
_chemical_formula_sum              "Er4 H18 C42 N6 O24"
_cell_length_a       7.313978633392229
_cell_length_b       16.222827127840652
_cell_length_c       16.22104143538253
_cell_angle_alpha    119.99710453060663
_cell_angle_beta     89.9996953402327
_cell_angle_gamma    90.00112756148569

_space_group_name_H-M_alt    "P 1"
_space_group_IT_number       1

loop_
  _space_group_symop_operation_xyz
  'x, y, z'

loop_
  _atom_site_type_symbol
  _atom_site_label
  _atom_site_symmetry_multiplicity
  _atom_site_fract_x
  _atom_site_fract_y
  _atom_site_fract_z
  _atom_site_occupancy
  Er  Er1       1.0  0.13297696189970762  0.6667027443940015  0.33334869939567807  1.0000
  Er  Er2       1.0  0.6328805431037312  0.33332239627458216  0.6666614579990907  1.0000
  Er  Er3       1.0  0.6330139712183395  0.6667159407394224  0.3333535641037388  1.0000
  Er  Er4       1.0  0.1327601320196123  0.3333166473194712  0.6666540756373254  1.0000
  H   H1        1.0  0.6234588406269597  0.4209262231129786  0.27366850205844173  1.0000
  H   H2        1.0  0.12338985874885823  0.5791036425949586  0.7263158443507932  1.0000
  H   H3        1.0  0.6234554282290576  0.852771674561055  0.5791131055059537  1.0000
  H   H4        1.0  0.6235071051074002  0.7263280457217293  0.14719859456402426  1.0000
  H   H5        1.0  0.12337714221800412  0.27369866702353146  0.8528480887916176  1.0000
  H   H6        1.0  0.12332764131493693  0.14716083594976245  0.42086997867792064  1.0000
  H   H7        1.0  0.12345431748590842  0.8527867238911996  0.2736670554344229  1.0000
  H   H8        1.0  0.12347177020905781  0.7263492595126312  0.5791635722297174  1.0000
  H   H9        1.0  0.12350867831702321  0.4209149082690332  0.1472529107234877  1.0000
  H   H10       1.0  0.6234206879736492  0.5791049289671267  0.852788320146381  1.0000
  H   H11       1.0  0.623407008496905  0.27367847111239757  0.4208229099291145  1.0000
  H   H12       1.0  0.6233260175398811  0.14714576109193458  0.7263209861863089  1.0000
  H   H13       1.0  0.07641847620637782  0.460062275661983  0.46006442237399636  1.0000
  H   H14       1.0  0.5763801796843284  0.5399114658829521  0.5399125638548697  1.0000
  H   H15       1.0  0.07638357098084472  2.7366816461148203e-05  0.5399581073121666  1.0000
  H   H16       1.0  0.07641031380494923  0.5398954332196272  0.9999761965790199  1.0000
  H   H17       1.0  0.5764100658667461  0.46006188040810536  0.9999803206898719  1.0000
  H   H18       1.0  0.5763950513473974  2.403766660572604e-05  0.4600725099234069  1.0000
  C   C1        1.0  0.6947586689027788  0.4046072357535166  0.32292445382374513  1.0000
  C   C2        1.0  0.19472785483065994  0.5954187953476621  0.6770547964610145  1.0000
  C   C3        1.0  0.694753092733251  0.9183501021890167  0.5954238914368446  1.0000
  C   C4        1.0  0.6948191787355712  0.6770534038525042  0.0816201013600378  1.0000
  C   C5        1.0  0.19471656544290997  0.32296734582514863  0.9184051201846019  1.0000
  C   C6        1.0  0.19468967739697976  0.08159569335397537  0.404564098925171  1.0000
  C   C7        1.0  0.19476000008749142  0.9183596304481654  0.3229359967614939  1.0000
  C   C8        1.0  0.19478748529248693  0.6770676373650135  0.5954459279143692  1.0000
  C   C9        1.0  0.1947927453136558  0.4046053912661094  0.08167686109272411  1.0000
  C   C10       1.0  0.6947662419229276  0.5954127465598024  0.9183571379324321  1.0000
  C   C11       1.0  0.6947222813446245  0.3229487852808577  0.40454293309314693  1.0000
  C   C12       1.0  0.6946896064801538  0.08159712065862845  0.6770558314335772  1.0000
  C   C13       1.0  0.8616644475000471  0.4491406777939489  0.36361083182416826  1.0000
  C   C14       1.0  0.36161030818609424  0.5508660458306242  0.6363812809340744  1.0000
  C   C15       1.0  0.8616391732011409  0.9144895040164588  0.550885786399583  1.0000
  C   C16       1.0  0.8616809558536291  0.6363728328474424  0.08550132416566206  1.0000
  C   C17       1.0  0.36160063581714763  0.36362629661558576  0.914504549372623  1.0000
  C   C18       1.0  0.36158909572510817  0.08550016296729997  0.4491184545296463  1.0000
  C   C19       1.0  0.36165653931934133  0.9144893890117062  0.3636138778235889  1.0000
  C   C20       1.0  0.36165363647731413  0.636387601819685  0.5508791179504371  1.0000
  C   C21       1.0  0.3616836912943527  0.4491394524967943  0.08552486550328105  1.0000
  C   C22       1.0  0.8616402850060896  0.5508592769934567  0.9144727775103689  1.0000
  C   C23       1.0  0.8616115485801858  0.3636202404017086  0.4491020120592708  1.0000
  C   C24       1.0  0.8615662605023858  0.08549591211875927  0.636395962864789  1.0000
  C   C25       1.0  0.9470685677752331  0.4268465768310393  0.42683794958862364  1.0000
  C   C26       1.0  0.44705711042879415  0.5731345731541782  0.5731364718122265  1.0000
  C   C27       1.0  0.9470463048196651  7.495119327151188e-06  0.5731619424167178  1.0000
  C   C28       1.0  0.9470930871037384  0.573116092584492  0.9999802682680327  1.0000
  C   C29       1.0  0.44709138219732136  0.4268466986740265  1.4194626771503858e-06  1.0000
  C   C30       1.0  0.44705250274665803  9.579867480699735e-06  0.4268585378580028  1.0000
  C   C31       1.0  0.9452280295237686  0.523218770388212  0.34761500976924964  1.0000
  C   C32       1.0  0.44512131849351283  0.47677663252638813  0.6523722564502351  1.0000
  C   C33       1.0  0.9452692983128587  0.8244350665955269  0.47682255386885697  1.0000
  C   C34       1.0  0.9452741455307178  0.6523834164275969  0.17557585781277404  1.0000
  C   C35       1.0  0.4451093836475906  0.34761341015724434  0.8244099846464223  1.0000
  C   C36       1.0  0.44508962074128533  0.1755843249302489  0.5231986685971677  1.0000
  C   C37       1.0  0.4452453204631014  0.8244199538275581  0.3476020315553683  1.0000
  C   C38       1.0  0.44523134223828015  0.6524179176116152  0.4768155983815846  1.0000
  C   C39       1.0  0.4452753893958105  0.5232252660548866  0.1756032520594175  1.0000
  C   C40       1.0  0.9451573606106863  0.47677686666259717  0.8244007100473709  1.0000
  C   C41       1.0  0.9451385148492693  0.34759780779349136  0.5231784665748337  1.0000
  C   C42       1.0  0.9450930894602153  0.17557020627912603  0.6523892455745114  1.0000
  N   N1        1.0  0.6128086659112314  0.3420966312639991  0.3420375134824241  1.0000
  N   N2        1.0  0.11282175967059521  0.6579219592296683  0.657932079355426  1.0000
  N   N3        1.0  0.6127731165244797  0.9999596776209716  0.6579151869872105  1.0000
  N   N4        1.0  0.6128542632960149  0.657914671963397  0.9999947256490033  1.0000
  N   N5        1.0  0.11282690168960131  0.3420983646184155  5.307972172368922e-05  1.0000
  N   N6        1.0  0.11278847109171863  0.9999728025477028  0.3420770374295474  1.0000
  O   O1        1.0  0.8652205248570157  0.5533085617678495  0.2962836827308237  1.0000
  O   O2        1.0  0.36513792661777  0.44669225085210973  0.7036946609461127  1.0000
  O   O3        1.0  0.8652879998734663  0.7430142816374643  0.44672410666381523  1.0000
  O   O4        1.0  0.8653183053587628  0.7037516802105372  0.2570025418206257  1.0000
  O   O5        1.0  0.3651454241692492  0.2962643267419058  0.7429988272576225  1.0000
  O   O6        1.0  0.36509916337826104  0.256971705317966  0.5532629012277538  1.0000
  O   O7        1.0  0.36526140736551593  0.7430231812266399  0.2962760034667015  1.0000
  O   O8        1.0  0.36523784522664476  0.7037545744342567  0.44674835668948276  1.0000
  O   O9        1.0  0.36531225734635336  0.5533003972281563  0.257018157301566  1.0000
  O   O10       1.0  0.8651473702141601  0.44670237926921197  0.7429742514715089  1.0000
  O   O11       1.0  0.8651315442184072  0.29624998096042543  0.5532422722048124  1.0000
  O   O12       1.0  0.8650437213982161  0.25698017864736766  0.7037404803986576  1.0000
  O   O13       1.0  0.09815062265475662  0.5584155509943758  0.3856550734193291  1.0000
  O   O14       1.0  0.5980348159674592  0.44156480276907256  0.6143020199231587  1.0000
  O   O15       1.0  0.0982039158900392  0.8272855771149212  0.4416494642080055  1.0000
  O   O16       1.0  0.09817625935414753  0.6143331146964784  0.1727384400953866  1.0000
  O   O17       1.0  0.5980392591617375  0.38567929200775825  0.8272507084242946  1.0000
  O   O18       1.0  0.5980211732526828  0.17274385250211585  0.5584200631617335  1.0000
  O   O19       1.0  0.5981920185522255  0.8272629958187212  0.3856264972213382  1.0000
  O   O20       1.0  0.5981803120444767  0.6144114777246943  0.4416318280644519  1.0000
  O   O21       1.0  0.5981792579574973  0.558425133780247  0.17274387328600233  1.0000
  O   O22       1.0  0.09802805613092151  0.44153797300405295  0.8272280050152362  1.0000
  O   O23       1.0  0.09804751213381022  0.38563250509469793  0.5583960173486773  1.0000
  O   O24       1.0  0.0979633416017194  0.17276523417312029  0.6143492900943883  1.0000
