data_image0
_chemical_formula_structural       Fe6H42C42O18
_chemical_formula_sum              "Fe6 H42 C42 O18"
_cell_length_a       7.018851029057165
_cell_length_b       15.103726298019525
_cell_length_c       15.10806807336838
_cell_angle_alpha    117.63219094479273
_cell_angle_beta     98.92552017260248
_cell_angle_gamma    98.91057849097726

_space_group_name_H-M_alt    "P 1"
_space_group_IT_number       1

loop_
  _space_group_symop_operation_xyz
  'x, y, z'

loop_
  _atom_site_type_symbol
  _atom_site_label
  _atom_site_symmetry_multiplicity
  _atom_site_fract_x
  _atom_site_fract_y
  _atom_site_fract_z
  _atom_site_occupancy
  Fe  Fe1       1.0  0.4606607810158678  0.259374266090127  0.576166347027126  1.0000
  Fe  Fe2       1.0  0.20129237703140024  0.3167995291550199  0.7405455530705041  1.0000
  Fe  Fe3       1.0  0.8845142163160061  0.42396453929008965  0.6833896413574011  1.0000
  Fe  Fe4       1.0  0.5393390205412629  0.740627296346304  0.4238336505319183  1.0000
  Fe  Fe5       1.0  0.7987121381338299  0.6832028071733376  0.25945513914695084  1.0000
  Fe  Fe6       1.0  0.11548702745699299  0.5760370231872258  0.31661045882962213  1.0000
  H   H1        1.0  0.18989273270944548  0.5531069988916784  0.5309129119826752  1.0000
  H   H2        1.0  0.6367764088226694  0.977920012076389  0.4470564443376973  1.0000
  H   H3        1.0  0.6589387934909396  0.4692051480554155  0.02215836928026248  1.0000
  H   H4        1.0  0.8101103402399159  0.44689533739579446  0.46908767760679393  1.0000
  H   H5        1.0  0.3632256117334051  0.022083097803538003  0.5529450914381543  1.0000
  H   H6        1.0  0.3410627373406784  0.5307940928830989  0.9778419972911295  1.0000
  H   H7        1.0  0.22997798931066882  0.31966267009914157  0.9274690338851316  1.0000
  H   H8        1.0  0.9103517333238142  0.6077723092130327  0.680297814508073  1.0000
  H   H9        1.0  0.3024508486120681  0.0724087127090414  0.3923328123071671  1.0000
  H   H10       1.0  0.7700239198951168  0.6803373450164473  0.07252973334104963  1.0000
  H   H11       1.0  0.08964114707467981  0.3922269313442328  0.31970259833531867  1.0000
  H   H12       1.0  0.6975510806284503  0.9275913014550168  0.6076705891982572  1.0000
  H   H13       1.0  0.950508582179907  0.13633746528888216  0.7228771559289981  1.0000
  H   H14       1.0  0.8144234294421865  0.5863990663841321  0.8635684248537742  1.0000
  H   H15       1.0  0.22817796515771951  0.27722826046574767  0.4139103605520163  1.0000
  H   H16       1.0  0.0494872825521995  0.8636648706582194  0.2771235825604635  1.0000
  H   H17       1.0  0.18557666203566467  0.41360017437756363  0.13643250112952637  1.0000
  H   H18       1.0  0.7718151879888636  0.7227686592323865  0.5860870084762767  1.0000
  H   H19       1.0  0.8951227438381081  0.25971591137957256  0.808227893406155  1.0000
  H   H20       1.0  0.6354387769736007  0.5484641161021456  0.7402740290237803  1.0000
  H   H21       1.0  0.08711865317042111  0.19183054117704051  0.45183589008187414  1.0000
  H   H22       1.0  0.10487888403327622  0.7402864250029424  0.19177193151544714  1.0000
  H   H23       1.0  0.36456065765776197  0.4515366716134821  0.2597302160400404  1.0000
  H   H24       1.0  0.9128792250326824  0.8081671518692914  0.5481648217644023  1.0000
  H   H25       1.0  0.3339305899019108  0.155727554958375  0.9056087737618841  1.0000
  H   H26       1.0  0.17793437790046335  0.7498539160796936  0.8442297007501198  1.0000
  H   H27       1.0  0.427829188628138  0.09439303102180929  0.25033505439087383  1.0000
  H   H28       1.0  0.6660633428898562  0.8442709120064364  0.09439069289513213  1.0000
  H   H29       1.0  0.8220609942450777  0.2501445510619362  0.15576920649498766  1.0000
  H   H30       1.0  0.572168402516354  0.9056069835633167  0.7496653910710408  1.0000
  H   H31       1.0  0.4811736455981189  0.21775370167046754  0.8553481664033454  1.0000
  H   H32       1.0  0.26369275677630094  0.6377002425605055  0.7824148607476361  1.0000
  H   H33       1.0  0.6258254828971844  0.14465205463690717  0.36243212190868235  1.0000
  H   H34       1.0  0.5188223948423172  0.7822432179735019  0.1446500699208004  1.0000
  H   H35       1.0  0.7363026096450296  0.36229822485298496  0.21758272241768847  1.0000
  H   H36       1.0  0.3741721082473076  0.8553479599482186  0.6375683235532321  1.0000
  H   H37       1.0  0.2800362823411575  0.10586814514193317  0.7693892145700547  1.0000
  H   H38       1.0  0.1741277395495756  0.663513229431551  0.8941691656607631  1.0000
  H   H39       1.0  0.5103640482596318  0.23064447972758725  0.33668358087782485  1.0000
  H   H40       1.0  0.719956202510538  0.8941303220538546  0.2306088253791929  1.0000
  H   H41       1.0  0.825872343341956  0.33648601173794646  0.10582977420285287  1.0000
  H   H42       1.0  0.4896317165705995  0.7693547609114475  0.663317037221532  1.0000
  C   C1        1.0  0.2612275496420223  0.43466790055884985  0.6109211537779089  1.0000
  C   C2        1.0  0.8266584742568527  0.176235432228161  0.5654021628278232  1.0000
  C   C3        1.0  0.6502918796538424  0.38916352235987267  0.8238428238532978  1.0000
  C   C4        1.0  0.7387740810914706  0.5653344356877383  0.3890793331835881  1.0000
  C   C5        1.0  0.17334354629922194  0.8237676776517662  0.43459937294802864  1.0000
  C   C6        1.0  0.34970926135517283  0.6108349449453029  0.17615649390373284  1.0000
  C   C7        1.0  0.38698228122174066  0.4655973519769177  0.5536239175032804  1.0000
  C   C8        1.0  0.9214373693210193  0.08797174912793077  0.5344052273803116  1.0000
  C   C9        1.0  0.8333883829198285  0.4464238082083654  0.9120362872559797  1.0000
  C   C10       1.0  0.613017793083486  0.5344018896003746  0.446373036240665  1.0000
  C   C11       1.0  0.07856858519797061  0.9120305873772521  0.46559490542522747  1.0000
  C   C12       1.0  0.1666142088913745  0.5535746587299002  0.08796511924870734  1.0000
  C   C13       1.0  0.5654669827863757  0.43478552676872073  0.5352017437204212  1.0000
  C   C14       1.0  0.1307334664320408  0.10040483052274142  0.565249835167329  1.0000
  C   C15       1.0  0.0302844087819167  0.4647641676231943  0.8996295331132773  1.0000
  C   C16       1.0  0.4345375323788545  0.5652168095596366  0.4647989484970268  1.0000
  C   C17       1.0  0.86927249953537  0.899597505438706  0.43475294579778284  1.0000
  C   C18       1.0  0.9697171249117958  0.5352350731793933  0.10037149549800267  1.0000
  C   C19       1.0  0.32675531713056927  0.5297598036364164  0.5176555505348973  1.0000
  C   C20       1.0  0.7969470748151151  0.9878929508620686  0.47027381495910703  1.0000
  C   C21       1.0  0.8090712832649986  0.48242297989035887  0.012107406305219183  1.0000
  C   C22       1.0  0.6732459209182197  0.47024175911276717  0.4823432255723362  1.0000
  C   C23       1.0  0.20305744321221647  0.012109385330354898  0.5297275392982429  1.0000
  C   C24       1.0  0.19092947364563884  0.5175747135096103  0.9878921867172326  1.0000
  C   C25       1.0  0.18790232543224047  0.24489555684800018  0.8557617068281403  1.0000
  C   C26       1.0  0.9431669501962716  0.6108196358037431  0.7550558803693266  1.0000
  C   C27       1.0  0.33224905248745523  0.14421447576241767  0.3894170251033202  1.0000
  C   C28       1.0  0.8120960310469129  0.7551060056834729  0.14423752606303003  1.0000
  C   C29       1.0  0.05682909883046959  0.38917728343243135  0.2449443420745041  1.0000
  C   C30       1.0  0.6677492098140335  0.8557839911891209  0.6105834114775278  1.0000
  C   C31       1.0  0.004151787055178598  0.21427912976139396  0.7898064394573512  1.0000
  C   C32       1.0  0.7899865626284351  0.5753799623976973  0.7856232610139743  1.0000
  C   C33       1.0  0.2146723678189204  0.21025798980058846  0.4248967138038752  1.0000
  C   C34       1.0  0.9958418558158754  0.7857216588781454  0.21019209877540845  1.0000
  C   C35       1.0  0.21001314475103078  0.42461850445879196  0.2143779402347549  1.0000
  C   C36       1.0  0.785324065306206  0.7897397033407928  0.5751032333745273  1.0000
  C   C37       1.0  0.32810771724843585  0.17729331924041256  0.8449390897956025  1.0000
  C   C38       1.0  0.1508966476486009  0.6676483385274992  0.8227491740338025  1.0000
  C   C39       1.0  0.4830071718467791  0.15506551853827227  0.33254337132459716  1.0000
  C   C40       1.0  0.6718847704653612  0.8227051478194412  0.15505961219353995  1.0000
  C   C41       1.0  0.8491001638507  0.33235012879094933  0.1772491737993889  1.0000
  C   C42       1.0  0.516990032337226  0.8449337222775881  0.6674566873628508  1.0000
  O   O1        1.0  0.32951092873195614  0.38842953184945367  0.6570327950127607  1.0000
  O   O2        1.0  0.9410461341567923  0.2686101760378535  0.6115199844239572  1.0000
  O   O3        1.0  0.6724149929523335  0.3429856682075894  0.7315200216411385  1.0000
  O   O4        1.0  0.6704928039259811  0.6115712573481602  0.34296513753607644  1.0000
  O   O5        1.0  0.05895797687532686  0.731391387336828  0.38847634877967624  1.0000
  O   O6        1.0  0.3275894223110214  0.6570135728127012  0.2684805501862044  1.0000
  O   O7        1.0  0.0956087023424956  0.45827136763750087  0.6137508075885165  1.0000
  O   O8        1.0  0.6374364515825235  0.15547406169995528  0.5420067118916947  1.0000
  O   O9        1.0  0.4817973840270397  0.386365458248889  0.8445411308544308  1.0000
  O   O10       1.0  0.9043942678428818  0.5417278734778394  0.38624899957095954  1.0000
  O   O11       1.0  0.3625662458547581  0.8445275002745164  0.45799613908288  1.0000
  O   O12       1.0  0.5182053076860383  0.6136361039974503  0.15546039604035405  1.0000
  O   O13       1.0  0.636343438038466  0.3720439550149592  0.5652622294312338  1.0000
  O   O14       1.0  0.26436178403209704  0.19315693048064728  0.6280202803526365  1.0000
  O   O15       1.0  0.07102067510481194  0.4347200581632152  0.8068562599646613  1.0000
  O   O16       1.0  0.363657694384237  0.6279545126980108  0.43473510220611183  1.0000
  O   O17       1.0  0.735645240052797  0.8068446316164851  0.3719828785058823  1.0000
  O   O18       1.0  0.9289808585889077  0.5652791826393724  0.19314476864661861  1.0000
