data_image0
_chemical_formula_structural       Zn8H32C66O38
_chemical_formula_sum              "Zn8 H32 C66 O38"
_cell_length_a       18.321845974212387
_cell_length_b       18.38811532674069
_cell_length_c       18.354079753419366
_cell_angle_alpha    90.28764063451086
_cell_angle_beta     119.67583058285783
_cell_angle_gamma    119.82506945269232

_space_group_name_H-M_alt    "P 1"
_space_group_IT_number       1

loop_
  _space_group_symop_operation_xyz
  'x, y, z'

loop_
  _atom_site_type_symbol
  _atom_site_label
  _atom_site_symmetry_multiplicity
  _atom_site_fract_x
  _atom_site_fract_y
  _atom_site_fract_z
  _atom_site_occupancy
  Zn  Zn1       1.0  0.9115228994649696  0.7928431884230703  0.7057736268034417  1.0000
  Zn  Zn2       1.0  0.08843708495857773  0.20808164906847534  0.2947344604553023  1.0000
  Zn  Zn3       1.0  0.08547643617256981  0.7927426600385841  0.7048574103467827  1.0000
  Zn  Zn4       1.0  0.9097373916304572  0.20311002597303934  0.29115191656945427  1.0000
  Zn  Zn5       1.0  0.9129158675288803  0.6200166109876829  0.7078349520885109  1.0000
  Zn  Zn6       1.0  0.08569658565787806  0.3789382297590434  0.292153732174853  1.0000
  Zn  Zn7       1.0  0.08638950892277797  0.7928766359261413  0.8809845730697174  1.0000
  Zn  Zn8       1.0  0.9118098582055295  0.20715284645481088  0.11776896597329073  1.0000
  H   H1        1.0  0.13223278054059753  0.11957144854491727  0.7122795374430806  1.0000
  H   H2        1.0  0.11464650635084439  0.661548755261947  0.5458270916672845  1.0000
  H   H3        1.0  0.8608505152018747  0.927696110222605  0.5238283820711158  1.0000
  H   H4        1.0  0.14075078266650107  0.07434236815650049  0.4781584642545056  1.0000
  H   H5        1.0  0.8615583020148063  0.02438783930416119  0.4272434740972954  1.0000
  H   H6        1.0  0.14063994059736715  0.9786687536591285  0.5757853346026137  1.0000
  H   H7        1.0  0.19621196347809175  0.07233264782002638  0.9594742011727246  1.0000
  H   H8        1.0  0.8075271930752446  0.9363478561398393  0.04688949418891741  1.0000
  H   H9        1.0  0.9187014525604908  0.0547859991342534  0.781582486670757  1.0000
  H   H10       1.0  0.07893551304235293  0.942397543370461  0.21885177727025948  1.0000
  H   H11       1.0  0.968886247561116  0.09394899881647228  0.6767058125721873  1.0000
  H   H12       1.0  0.87460702705588  0.8879446201122999  0.2948522900195626  1.0000
  H   H13       1.0  0.030646839331516847  0.9068986157568515  0.3252437710144631  1.0000
  H   H14       1.0  0.5959003062801215  0.4313114203028121  0.5490823685135311  1.0000
  H   H15       1.0  0.40373587047231024  0.5696355513514388  0.4505105363555514  1.0000
  H   H16       1.0  0.4030053579987721  0.33557747031447593  0.45146999242324165  1.0000
  H   H17       1.0  0.596676933124655  0.66535144470005  0.5477719669599067  1.0000
  H   H18       1.0  0.8815323719695058  0.43334774937440557  0.8358785912146157  1.0000
  H   H19       1.0  0.12177643538353057  0.5682466121447901  0.16560699214770114  1.0000
  H   H20       1.0  0.5574386824131067  0.07106031712628887  0.847053266722625  1.0000
  H   H21       1.0  0.4678254632772933  0.9249892648574799  0.1594898619109486  1.0000
  H   H22       1.0  0.4006158691803349  0.14336530296089475  0.9506426419779427  1.0000
  H   H23       1.0  0.8807123583740758  0.33599758275368424  0.9313671438234863  1.0000
  H   H24       1.0  0.7876233543798175  0.9290721212730869  0.2707551637587427  1.0000
  H   H25       1.0  0.13108852888529285  0.2934378301187478  0.052991816417630754  1.0000
  H   H26       1.0  0.9629335827899936  0.748890226757048  0.06974523663822646  1.0000
  H   H27       1.0  0.12326382564533118  0.6655694960477303  0.06989372984772754  1.0000
  H   H28       1.0  0.3996626458630956  0.023642882707520095  0.8606804244978363  1.0000
  H   H29       1.0  0.5968007336170867  0.968315510818314  0.1313830986628089  1.0000
  H   H30       1.0  0.8818219990067531  0.43136742705636516  0.5496159076546261  1.0000
  H   H31       1.0  0.11516163244169063  0.5625889119949221  0.45146478063274037  1.0000
  H   H32       1.0  0.8821983526855774  0.3323338550539603  0.45514088736652525  1.0000
  C   C1        1.0  0.2756150703106921  0.8870189490401896  0.8864176533332749  1.0000
  C   C2        1.0  0.9757822116115021  0.9156950872324712  0.007268250386999886  1.0000
  C   C3        1.0  0.0005795114196657786  0.05340366269286528  0.05473074066301108  1.0000
  C   C4        1.0  0.9981432562980499  0.9458951209713005  0.9459650139359252  1.0000
  C   C5        1.0  0.9768447100561629  0.9696007013655219  0.06291606040848309  1.0000
  C   C6        1.0  0.021976056060736892  0.029457849895237594  0.9379647410411492  1.0000
  C   C7        1.0  0.5530090017597045  0.46079251421075174  0.5268970859785468  1.0000
  C   C8        1.0  0.44660400510691983  0.5401331299569208  0.4722685327458791  1.0000
  C   C9        1.0  0.44628379364847576  0.40781468975883667  0.47294916457319386  1.0000
  C   C10       1.0  0.55334457822763  0.59310892375629  0.5260753291149454  1.0000
  C   C11       1.0  0.3926076961742026  0.4472365985760972  0.44535704880855315  1.0000
  C   C12       1.0  0.7206007222670079  0.10917062752353958  0.10882219556378196  1.0000
  C   C13       1.0  0.6069938884125247  0.5536803722975135  0.5535582381485965  1.0000
  C   C14       1.0  0.9337388403692299  0.46207056196969615  0.9081080552370435  1.0000
  C   C15       1.0  0.06943863299958501  0.5395778131191448  0.09337957750806673  1.0000
  C   C16       1.0  0.721683839618535  0.610839666124505  0.6111740736576576  1.0000
  C   C17       1.0  0.27802163685518616  0.3899813785832507  0.38755322623446625  1.0000
  C   C18       1.0  0.9333276286942574  0.40814916809508606  0.9609383016803714  1.0000
  C   C19       1.0  0.06999420532930847  0.593437191165833  0.04050195609489288  1.0000
  C   C20       1.0  0.0011221065722252467  0.44675242045428815  0.053853267164093645  1.0000
  C   C21       1.0  0.0018769405579063573  0.5548613290540203  0.9475971819862179  1.0000
  C   C22       1.0  0.44364453621741967  0.011834467569066498  0.9201558044802383  1.0000
  C   C23       1.0  0.9903196185563701  0.06716160319763279  0.7973556927581669  1.0000
  C   C24       1.0  0.5526506846509206  0.981635171873492  0.0736054246643363  1.0000
  C   C25       1.0  0.5510519435711173  0.0680655058767456  0.9741053662292811  1.0000
  C   C26       1.0  0.44533341620839895  0.9258551887650482  0.020246524793726843  1.0000
  C   C27       1.0  0.6057105404601799  0.05253710082976679  0.05125385713087374  1.0000
  C   C28       1.0  0.390639416576455  0.9415818908624868  0.9431732690535096  1.0000
  C   C29       1.0  0.9324333262702637  0.4592267940121104  0.5275993871883813  1.0000
  C   C30       1.0  0.06438185196811459  0.5346884340836977  0.47330385907176253  1.0000
  C   C31       1.0  0.9326833786909812  0.40443625520440196  0.4753635576710874  1.0000
  C   C32       1.0  0.0640928699902616  0.5894410810858517  0.5254810067420265  1.0000
  C   C33       1.0  0.9985212081435647  0.4419393893407174  0.4478090701988222  1.0000
  C   C34       1.0  0.008695628341683949  0.9325421551797036  0.20405383225368473  1.0000
  C   C35       1.0  0.9979659376658958  0.551948358632231  0.5527441835439577  1.0000
  C   C36       1.0  0.9212845232732074  0.9597681482465601  0.5128477190492261  1.0000
  C   C37       1.0  0.0797074940309699  0.041508391379515806  0.4883257141463774  1.0000
  C   C38       1.0  0.9215705300749942  0.012982595426265698  0.4592272390119091  1.0000
  C   C39       1.0  0.07941091498349777  0.9883544923071451  0.5419308173907422  1.0000
  C   C40       1.0  0.9998470858698453  0.889685894054274  0.6116192096240382  1.0000
  C   C41       1.0  0.00020156888888317703  0.11023618136835717  0.38814900753417436  1.0000
  C   C42       1.0  0.0006650829338212865  0.053879158547076096  0.44650462215308556  1.0000
  C   C43       1.0  6.361792201638098e-05  0.9470540802515612  0.5541519669043989  1.0000
  C   C44       1.0  0.001735396356330865  0.612556777346036  0.8906299035333587  1.0000
  C   C45       1.0  0.018724019074397767  0.08905665743487386  0.7386135844003048  1.0000
  C   C46       1.0  0.0007869529733568171  0.38904144254647827  0.11068095183504309  1.0000
  C   C47       1.0  0.997512139790288  0.610592270660895  0.6089236889134282  1.0000
  C   C48       1.0  0.9982851624938432  0.38378894859196305  0.3905072458873064  1.0000
  C   C49       1.0  0.9978247762649841  0.8875656772430175  0.8878021981238006  1.0000
  C   C50       1.0  0.001046920785370289  0.1118580191742353  0.11277775566097858  1.0000
  C   C51       1.0  0.17421610735436127  0.09839400655642548  0.838163928521986  1.0000
  C   C52       1.0  0.8312305703432795  0.9126027370102817  0.16857050643004345  1.0000
  C   C53       1.0  0.14613758075563504  0.07702676958183467  0.8975869547020847  1.0000
  C   C54       1.0  0.8573921600044798  0.9299486588032978  0.10756495701492959  1.0000
  C   C55       1.0  0.053400562653315775  0.060005125232002875  0.8769139762684687  1.0000
  C   C56       1.0  0.9818604926220401  0.913246993128112  0.26395505935769836  1.0000
  C   C57       1.0  0.9464036403079061  0.9409859252469274  0.12500774020823244  1.0000
  C   C58       1.0  0.605044304288647  0.14949988323951394  0.9535355857641645  1.0000
  C   C59       1.0  0.39044624466129807  0.8454422898988978  0.04142487436605786  1.0000
  C   C60       1.0  0.27056183631017916  0.11411530655872328  0.8570000301178593  1.0000
  C   C61       1.0  0.7376194863608275  0.9066066571331957  0.14624109926868553  1.0000
  C   C62       1.0  0.04363051699718306  0.17158142362475096  0.9847944956053778  1.0000
  C   C63       1.0  0.9404552056903054  0.8214578823627219  0.0022425911859471257  1.0000
  C   C64       1.0  0.10967292736469147  0.10365756771579267  0.7580500258485259  1.0000
  C   C65       1.0  0.8937318758505197  0.9035095327698243  0.2467698102451551  1.0000
  C   C66       1.0  0.021598866483394385  0.08287108310185688  0.9927302642084611  1.0000
  O   O1        1.0  0.000217766748043842  0.7507594527483475  0.7504849570167947  1.0000
  O   O2        1.0  0.23290531047601343  0.4291794307262932  0.36391092165454336  1.0000
  O   O3        1.0  0.2330061617598246  0.8698416275867513  0.9274893299285691  1.0000
  O   O4        1.0  0.764578524257551  0.13424827181769666  0.06877287700947927  1.0000
  O   O5        1.0  0.765725378999441  0.6947134363786984  0.62984392784994  1.0000
  O   O6        1.0  0.23417198812255435  0.30602789163680905  0.3663211084901262  1.0000
  O   O7        1.0  0.06322935029960772  0.8690246245448634  0.6347316215471395  1.0000
  O   O8        1.0  0.9288448701876603  0.12222797110698738  0.35624563955101257  1.0000
  O   O9        1.0  0.9431752486272199  0.5732653413009527  0.8066704967253241  1.0000
  O   O10       1.0  0.0581859843782907  0.427940359017981  0.19474089727245306  1.0000
  O   O11       1.0  0.058930163392439235  0.6944720986658268  0.6296304163311176  1.0000
  O   O12       1.0  0.9978023364145939  0.24809666218654763  0.24832846152806087  1.0000
  O   O13       1.0  0.936213083438453  0.29965388894454037  0.3684281462722934  1.0000
  O   O14       1.0  0.06275785546549165  0.8689977718999555  0.9288633948736799  1.0000
  O   O15       1.0  0.9375138113178848  0.13184295553310926  0.07173964278560155  1.0000
  O   O16       1.0  0.9356467660311121  0.5719702750067978  0.6314509708632341  1.0000
  O   O17       1.0  0.0601061714708138  0.42310867809079866  0.36807244279356144  1.0000
  O   O18       1.0  0.9346059111618314  0.8643310660523225  0.8045398597991207  1.0000
  O   O19       1.0  0.06415516485859028  0.1349836463668552  0.19614771795272642  1.0000
  O   O20       1.0  0.6522879515541148  0.22455849198944827  0.0015763270560925136  1.0000
  O   O21       1.0  0.5931129919313064  0.1346204799334743  0.8744320801853644  1.0000
  O   O22       1.0  0.3267623125748783  0.7705557041575657  0.9881894880291212  1.0000
  O   O23       1.0  0.9360415302772864  0.8661306438145572  0.6320319459841455  1.0000
  O   O24       1.0  0.41954934774175684  0.8610446725754243  0.12741754971794705  1.0000
  O   O25       1.0  0.2882883537310406  0.11129023083559987  0.8012655979050008  1.0000
  O   O26       1.0  0.3396505057383122  0.13251970313248757  0.9449115107197271  1.0000
  O   O27       1.0  0.6730446248618023  0.897978829430329  0.07234338900087779  1.0000
  O   O28       1.0  0.7258339149052231  0.9126602586617237  0.21350201512873906  1.0000
  O   O29       1.0  0.9961602432091965  0.18317124393613676  0.9164466006964743  1.0000
  O   O30       1.0  0.12427466879509548  0.23886127913852556  0.0637119826872095  1.0000
  O   O31       1.0  0.8724626647273934  0.75873105832936  0.9328803359873774  1.0000
  O   O32       1.0  0.9923115381256123  0.8126172270401992  0.08174395019581492  1.0000
  O   O33       1.0  0.07002819306359236  0.14074472258852916  0.3743008381703347  1.0000
  O   O34       1.0  0.05987824166301434  0.6964460160168073  0.9306359511724336  1.0000
  O   O35       1.0  0.9435629332496304  0.30520939691427157  0.07065891091681227  1.0000
  O   O36       1.0  0.2325826044226389  0.865969002923144  0.8028177600819076  1.0000
  O   O37       1.0  0.763144289811265  0.12608498759107079  0.19220803063149808  1.0000
  O   O38       1.0  0.7662165267944087  0.5712845215101792  0.6366906896428117  1.0000
