data_image0
_chemical_formula_structural       Zn4H88C96N16O16
_chemical_formula_sum              "Zn4 H88 C96 N16 O16"
_cell_length_a       13.942350928001604
_cell_length_b       14.15187733200067
_cell_length_c       14.15187987700108
_cell_angle_alpha    90.00001059526929
_cell_angle_beta     90.00004346784871
_cell_angle_gamma    90.00003364639772

_space_group_name_H-M_alt    "P 1"
_space_group_IT_number       1

loop_
  _space_group_symop_operation_xyz
  'x, y, z'

loop_
  _atom_site_type_symbol
  _atom_site_label
  _atom_site_symmetry_multiplicity
  _atom_site_fract_x
  _atom_site_fract_y
  _atom_site_fract_z
  _atom_site_occupancy
  Zn  Zn1       1.0  0.058953245636061496  0.9999995452174845  0.5000008254074686  1.0000
  Zn  Zn2       1.0  0.058953289351215694  0.49999949720253073  0.9999993703004433  1.0000
  Zn  Zn3       1.0  0.558952897452066  0.5000003485382437  0.9999995570246795  1.0000
  Zn  Zn4       1.0  0.5589528537361588  0.9999996899330343  0.4999995988918328  1.0000
  H   H1        1.0  0.016899849408112295  0.21366004430777252  0.5107498390040917  1.0000
  H   H2        1.0  0.0168998170293264  0.4892503083847048  0.21366071190083594  1.0000
  H   H3        1.0  0.016899294470107396  0.7863409531177866  0.48925239459526176  1.0000
  H   H4        1.0  0.016900761326446898  0.5107499824211104  0.7863401084591858  1.0000
  H   H5        1.0  0.5169007209855252  0.28634025269094826  0.0107493214806453  1.0000
  H   H6        1.0  0.516900319307311  0.9892505540863614  0.2863403350634499  1.0000
  H   H7        1.0  0.5169012252884498  0.7136603275467337  0.9892504590887224  1.0000
  H   H8        1.0  0.5169009097277808  0.0107500261511788  0.7136601521255483  1.0000
  H   H9        1.0  0.13406876179067237  0.34879408492189873  0.42383211395993914  1.0000
  H   H10       1.0  0.13407023508425905  0.5761681517182712  0.3487933408911559  1.0000
  H   H11       1.0  0.1340696278044149  0.6512055670886526  0.5761687939131477  1.0000
  H   H12       1.0  0.13407030622753519  0.42383079367274235  0.6512061537428693  1.0000
  H   H13       1.0  0.6340699381643942  0.15120635631905804  0.923831580148281  1.0000
  H   H14       1.0  0.6340703353587783  0.07616818389485053  0.15120630398845236  1.0000
  H   H15       1.0  0.6340698193488875  0.8487935851233602  0.0761682879341592  1.0000
  H   H16       1.0  0.6340701393939342  0.9238317575478379  0.8487942707141585  1.0000
  H   H17       1.0  0.33973986343121254  0.0600437592648575  0.4003773296063001  1.0000
  H   H18       1.0  0.33974132750233105  0.5996230232287303  0.06004238215876969  1.0000
  H   H19       1.0  0.3397423540180781  0.9399581316616905  0.5996237318827795  1.0000
  H   H20       1.0  0.33974232442360364  0.4003760412179176  0.9399565594708787  1.0000
  H   H21       1.0  0.8397419290636561  0.4399567966927408  0.9003761425510814  1.0000
  H   H22       1.0  0.8397423675282879  0.09962381544256262  0.43995742067210125  1.0000
  H   H23       1.0  0.8397409390640433  0.560043263805369  0.09962387914688259  1.0000
  H   H24       1.0  0.8397419350777254  0.9003762450559591  0.5600426010264029  1.0000
  H   H25       1.0  0.2370479885861272  0.986973753791425  0.39924466522238317  1.0000
  H   H26       1.0  0.2370495344739112  0.6007550845341427  0.9869729081925555  1.0000
  H   H27       1.0  0.23704992783694218  0.013025957830322501  0.6007563195660096  1.0000
  H   H28       1.0  0.23704981642671186  0.3992439204678605  0.013026663356498599  1.0000
  H   H29       1.0  0.7370497998798056  0.5130269310382403  0.8992433992483198  1.0000
  H   H30       1.0  0.7370502455064096  0.10075579776866311  0.5130268268386543  1.0000
  H   H31       1.0  0.7370487672222551  0.48697377663513214  0.10075583912932017  1.0000
  H   H32       1.0  0.7370497560740219  0.8992442032851574  0.4869731181593621  1.0000
  H   H33       1.0  0.1986294422126775  0.030895626797033112  0.2344848259743415  1.0000
  H   H34       1.0  0.19863029982905536  0.7655147511443446  0.030894980373950897  1.0000
  H   H35       1.0  0.19863064352247048  0.9691047692054513  0.7655161301191384  1.0000
  H   H36       1.0  0.19863050314461358  0.23448352499825387  0.9691059757195999  1.0000
  H   H37       1.0  0.6986308079710354  0.4691062300278333  0.7344836443070618  1.0000
  H   H38       1.0  0.6986306450769317  0.2655148421300737  0.46910545434644035  1.0000
  H   H39       1.0  0.6986306456823141  0.5308944554065107  0.2655162719957644  1.0000
  H   H40       1.0  0.6986308085757853  0.7344837234441783  0.5308944619561871  1.0000
  H   H41       1.0  0.31630572320152334  0.9846532220754655  0.2427672499669669  1.0000
  H   H42       1.0  0.31630594130935213  0.757233286658625  0.9846531191085857  1.0000
  H   H43       1.0  0.3163063499382658  0.0153465354252873  0.7572337940183258  1.0000
  H   H44       1.0  0.3163061318302312  0.24276576422209933  0.0153479248766502  1.0000
  H   H45       1.0  0.8163068186382103  0.5153474796860565  0.7427652778016878  1.0000
  H   H46       1.0  0.8163066541300024  0.2572347069423985  0.5153474106642619  1.0000
  H   H47       1.0  0.8163066224195178  0.48465256724649225  0.2572340197730512  1.0000
  H   H48       1.0  0.8163060696890482  0.7427660466100433  0.4846525935301784  1.0000
  H   H49       1.0  0.299618888161497  0.10863445827254742  0.22938307516696443  1.0000
  H   H50       1.0  0.29961903882092855  0.7706165841885523  0.10863380729733757  1.0000
  H   H51       1.0  0.2996200470904426  0.8913659961889309  0.7706172497353448  1.0000
  H   H52       1.0  0.2996206136698021  0.22938175041310427  0.8913672242249433  1.0000
  H   H53       1.0  0.7996202076076172  0.3913667494475492  0.7293818791294482  1.0000
  H   H54       1.0  0.7996193241630961  0.2706173674130882  0.3913659971744891  1.0000
  H   H55       1.0  0.799620095562588  0.608633287825832  0.2706181126020439  1.0000
  H   H56       1.0  0.7996202617674726  0.7293819632399803  0.6086332879367687  1.0000
  H   H57       1.0  0.4063083167102448  0.2143067057819509  0.41819125650373923  1.0000
  H   H58       1.0  0.4063112165777197  0.58180916578187  0.2143067164730681  1.0000
  H   H59       1.0  0.4063114189069096  0.7856938104384741  0.5818070282256256  1.0000
  H   H60       1.0  0.40630995351889954  0.4181906438192726  0.7856951013562821  1.0000
  H   H61       1.0  0.9063095732037139  0.28569318538504973  0.9181921607920953  1.0000
  H   H62       1.0  0.9063107032486497  0.08180780959739313  0.285693839404871  1.0000
  H   H63       1.0  0.9063100958543301  0.7143055004071284  0.0818093238653077  1.0000
  H   H64       1.0  0.9063096830481567  0.9181922894348635  0.7143055253932146  1.0000
  H   H65       1.0  0.5310189783086726  0.29614817134529403  0.31926735056168803  1.0000
  H   H66       1.0  0.5310190839572613  0.6807360137956238  0.2961467828489645  1.0000
  H   H67       1.0  0.5310199562647212  0.7038545369253555  0.6807345604126454  1.0000
  H   H68       1.0  0.5310205678539077  0.3192638679949767  0.703853714885575  1.0000
  H   H69       1.0  0.031020252604847094  0.20385360414004342  0.8192643331735494  1.0000
  H   H70       1.0  0.0310214430782523  0.18073505966050626  0.20385280439232634  1.0000
  H   H71       1.0  0.031020900244882892  0.7961474014595213  0.18073649773294417  1.0000
  H   H72       1.0  0.03102042701036109  0.8192659459392004  0.7961473198945228  1.0000
  H   H73       1.0  0.3098360178850257  0.41329438637276894  0.14428063238374725  1.0000
  H   H74       1.0  0.3098362533213361  0.8557191053874932  0.41329511044472156  1.0000
  H   H75       1.0  0.3098384953748408  0.5867067806234374  0.8557197001502599  1.0000
  H   H76       1.0  0.3098375426985314  0.14427923512838703  0.5867052220887529  1.0000
  H   H77       1.0  0.8098378730720981  0.0867053982783688  0.6442793800293812  1.0000
  H   H78       1.0  0.8098384556091174  0.35572124549246803  0.0867054240104039  1.0000
  H   H79       1.0  0.8098372908670868  0.9132960581495696  0.35572061933360993  1.0000
  H   H80       1.0  0.8098381428076848  0.6442787976957475  0.9132938687330848  1.0000
  H   H81       1.0  0.18498764320141697  0.3286773167256457  0.23712972670320903  1.0000
  H   H82       1.0  0.184988525045938  0.7628684827234127  0.3286766151156968  1.0000
  H   H83       1.0  0.184990816789778  0.6713237780005132  0.762869099342339  1.0000
  H   H84       1.0  0.18498921770450488  0.2371290789022495  0.6713207976894466  1.0000
  H   H85       1.0  0.6849888315588472  0.17132099959162872  0.7371291966099703  1.0000
  H   H86       1.0  0.6849893580615073  0.2628699318615944  0.17132168906712048  1.0000
  H   H87       1.0  0.6849881273942627  0.828679677945658  0.2628700028835951  1.0000
  H   H88       1.0  0.684989035369554  0.7371286258160765  0.8286782170466935  1.0000
  C   C1        1.0  0.0827847032797422  0.20581799058891906  0.470929711434202  1.0000
  C   C2        1.0  0.0827854146583533  0.5290711919594246  0.2058179658717876  1.0000
  C   C3        1.0  0.0827849009377744  0.794181631735114  0.5290725713745273  1.0000
  C   C4        1.0  0.08278562403589967  0.4709277237446728  0.7941807838378876  1.0000
  C   C5        1.0  0.5827859648294049  0.2941817230582444  0.9709284974319841  1.0000
  C   C6        1.0  0.5827856251100909  0.029072663825488104  0.2941809253776383  1.0000
  C   C7        1.0  0.582786441784087  0.7058181886979399  0.029071332346816796  1.0000
  C   C8        1.0  0.5827860642644537  0.9709279545505254  0.7058189044009565  1.0000
  C   C9        1.0  0.1390800910029597  0.2726472990447135  0.42880812615739927  1.0000
  C   C10       1.0  0.13908083700052026  0.5711928344864391  0.2726465682084651  1.0000
  C   C11       1.0  0.1390795640682256  0.7273530624864717  0.571194198697995  1.0000
  C   C12       1.0  0.1390809697868391  0.4288068204250735  0.7273529301680524  1.0000
  C   C13       1.0  0.6390813127400178  0.22735314601759177  0.9288068998017137  1.0000
  C   C14       1.0  0.6390817131930362  0.0711928807498694  0.2273530794941436  1.0000
  C   C15       1.0  0.6390811447271358  0.7726475049457379  0.07119297202375208  1.0000
  C   C16       1.0  0.6390814615130651  0.9288070635936378  0.7726467923315282  1.0000
  C   C17       1.0  0.20422400323893433  0.13001676914031182  0.4060161122992695  1.0000
  C   C18       1.0  0.2042254695756753  0.5939834560105413  0.13001607364208206  1.0000
  C   C19       1.0  0.2042271650328189  0.869982923481068  0.5939834347336301  1.0000
  C   C20       1.0  0.20422569869586482  0.4060155299908034  0.8699834733907537  1.0000
  C   C21       1.0  0.7042260271854984  0.36998300279524443  0.9060149123093308  1.0000
  C   C22       1.0  0.7042257384405843  0.0939842352794926  0.36998362692959563  1.0000
  C   C23       1.0  0.704225791765836  0.6300169792579172  0.09398500817245997  1.0000
  C   C24       1.0  0.7042253632716606  0.9060150401534983  0.6300170001717686  1.0000
  C   C25       1.0  0.2671860886144941  0.05267227536315032  0.3707734609521083  1.0000
  C   C26       1.0  0.267187572265918  0.6292261411292159  0.052672312201124796  1.0000
  C   C27       1.0  0.2671886064046944  0.9473274537045315  0.6292268397266624  1.0000
  C   C28       1.0  0.2671878399920046  0.37077217469862234  0.9473279884777881  1.0000
  C   C29       1.0  0.7671881586381984  0.4473275264991943  0.8707722752594549  1.0000
  C   C30       1.0  0.76718861797152  0.12922693470652294  0.44732814853164626  1.0000
  C   C31       1.0  0.7671871870603083  0.5526724920002123  0.1292276922482998  1.0000
  C   C32       1.0  0.7671881622050875  0.8707723771732675  0.5526718189765845  1.0000
  C   C33       1.0  0.2705914960663732  0.0446521289932917  0.2626302315158497  1.0000
  C   C34       1.0  0.2705923356576889  0.7373693907874782  0.04465218755754559  1.0000
  C   C35       1.0  0.27059266749153466  0.9553476020452649  0.7373700717059107  1.0000
  C   C36       1.0  0.2705925451394365  0.2626296336313274  0.9553488222843212  1.0000
  C   C37       1.0  0.77059285362904  0.4553483614543907  0.7626290473055377  1.0000
  C   C38       1.0  0.7705926703044597  0.23737018584824912  0.4553482957084397  1.0000
  C   C39       1.0  0.7705926778473466  0.544651659016104  0.23737092274547675  1.0000
  C   C40       1.0  0.77059286117192  0.7626298346222384  0.5446516743425817  1.0000
  C   C41       1.0  0.2890160299612247  0.2690979812851282  0.33432108812054645  1.0000
  C   C42       1.0  0.28901612295891255  0.6656778683881655  0.2690958679168887  1.0000
  C   C43       1.0  0.2890184469085213  0.7309045868990083  0.6656771090034679  1.0000
  C   C44       1.0  0.2890169194313899  0.33431904683543934  0.7309037424458751  1.0000
  C   C45       1.0  0.789017253812986  0.23090323971014473  0.8343198624210331  1.0000
  C   C46       1.0  0.789017719127237  0.16567932854873393  0.23090390923809415  1.0000
  C   C47       1.0  0.7890171564969108  0.7690967914255754  0.16568012139114774  1.0000
  C   C48       1.0  0.7890174084213868  0.8343192893471354  0.7690960745742216  1.0000
  C   C49       1.0  0.3857507977915233  0.2578238888716768  0.3579342405357124  1.0000
  C   C50       1.0  0.3857515909117737  0.642066893625625  0.25782248791205115  1.0000
  C   C51       1.0  0.38575248602059986  0.7421787353086416  0.6420661486986743  1.0000
  C   C52       1.0  0.38575169289971706  0.3579336106946016  0.7421779013221366  1.0000
  C   C53       1.0  0.885752028359981  0.24217739248812367  0.8579337235401496  1.0000
  C   C54       1.0  0.8857517612882545  0.14206552939116082  0.2421773571290586  1.0000
  C   C55       1.0  0.8857519061306147  0.7578226946437924  0.14206633252296538  1.0000
  C   C56       1.0  0.8857514559629178  0.8579345577404781  0.7578219923138789  1.0000
  C   C57       1.0  0.45485463111582897  0.3032913697068054  0.30317829418443404  1.0000
  C   C58       1.0  0.4548540311406553  0.6968236106590169  0.30328926988170213  1.0000
  C   C59       1.0  0.45485561721449125  0.6967127077150369  0.6968221466632867  1.0000
  C   C60       1.0  0.4548547827105125  0.3031776402822858  0.6967111709652228  1.0000
  C   C61       1.0  0.9548544001192382  0.19670994152475885  0.8031777687835768  1.0000
  C   C62       1.0  0.954855600958197  0.19682153139383027  0.19670993027425954  1.0000
  C   C63       1.0  0.9548543471717322  0.8032894789880276  0.1968230455117705  1.0000
  C   C64       1.0  0.9548545808104763  0.8031785957392119  0.8032887641619765  1.0000
  C   C65       1.0  0.4274202208728397  0.36008664630711007  0.22667396542297513  1.0000
  C   C66       1.0  0.4274203953681876  0.7733258256359364  0.3600866679704495  1.0000
  C   C67       1.0  0.4274212320895926  0.6399145887537828  0.7733257483139012  1.0000
  C   C68       1.0  0.4274210575938255  0.22667399618489273  0.6399130457662991  1.0000
  C   C69       1.0  0.9274213905193064  0.13991251503135524  0.7266748427635504  1.0000
  C   C70       1.0  0.9274219214184567  0.27332585572376195  0.13991323245706158  1.0000
  C   C71       1.0  0.9274207131228349  0.8600875962213906  0.2733266576618973  1.0000
  C   C72       1.0  0.9274208994617509  0.7266742555289342  0.8600854414890404  1.0000
  C   C73       1.0  0.3300012072137619  0.3702725438305521  0.20474610112272268  1.0000
  C   C74       1.0  0.33000139757964314  0.7952529245659504  0.3702718529122393  1.0000
  C   C75       1.0  0.3300036637389922  0.6297300480785992  0.79525424647273  1.0000
  C   C76       1.0  0.33000275613220953  0.20474472100271165  0.6297277880625883  1.0000
  C   C77       1.0  0.8300023707914759  0.12972726367896575  0.7047448567207579  1.0000
  C   C78       1.0  0.8300029157817974  0.29525507262967204  0.1297279788067414  1.0000
  C   C79       1.0  0.8300017163613872  0.8702734978013352  0.2952544510830463  1.0000
  C   C80       1.0  0.8300026058489535  0.7047442756109847  0.8702713289974678  1.0000
  C   C81       1.0  0.2602446854988969  0.32452241463199993  0.2577496298422304  1.0000
  C   C82       1.0  0.2602448356543121  0.7422493316141044  0.324521716278845  1.0000
  C   C83       1.0  0.26024641119503394  0.6754787236573989  0.7422506656518661  1.0000
  C   C84       1.0  0.26024626103807685  0.25774756695503953  0.6754778725949533  1.0000
  C   C85       1.0  0.76024659357067  0.17547665568351084  0.7577483938974723  1.0000
  C   C86       1.0  0.7602471063507392  0.2422514881414983  0.1754780535416316  1.0000
  C   C87       1.0  0.7602458710413059  0.8245233587977483  0.24225156842574336  1.0000
  C   C88       1.0  0.7602460754999779  0.7577471130999103  0.8245219087817259  1.0000
  C   C89       1.0  0.5016881745802023  0.407838630665765  0.16617108153220525  1.0000
  C   C90       1.0  0.5016869601072357  0.8338308983282303  0.40784007440924336  1.0000
  C   C91       1.0  0.5016884867331156  0.5921605275258199  0.8338286876747532  1.0000
  C   C92       1.0  0.5016882667281947  0.16616967310299913  0.5921596947973028  1.0000
  C   C93       1.0  0.0016872306204546996  0.09216097965868643  0.666169456736661  1.0000
  C   C94       1.0  0.0016892331572436  0.3338292169106298  0.092160225843628  1.0000
  C   C95       1.0  0.0016873455356502998  0.9078393023408182  0.33383064564090137  1.0000
  C   C96       1.0  0.0016889291943726998  0.6661710650898486  0.9078391699153697  1.0000
  N   N1        1.0  0.12370531696949168  0.11802540854997552  0.4561966936033953  1.0000
  N   N2        1.0  0.1237060307369617  0.5438035167102911  0.11802469916353427  1.0000
  N   N3        1.0  0.12370629552083298  0.8819749440815559  0.5438034999094724  1.0000
  N   N4        1.0  0.1237062989917632  0.45619612930129  0.8819740811097245  1.0000
  N   N5        1.0  0.6237073480599803  0.38197503267937816  0.956195495830144  1.0000
  N   N6        1.0  0.623706308842152  0.04380429819749311  0.38197422537265163  1.0000
  N   N7        1.0  0.6237070668271301  0.6180256093845032  0.043804364512510595  1.0000
  N   N8        1.0  0.6237066715666514  0.9561963438659692  0.6180256349694699  1.0000
  N   N9        1.0  0.21567618234602284  0.22446219097928835  0.3888473814979605  1.0000
  N   N10       1.0  0.2156776686694997  0.6111515083359222  0.2244621892534084  1.0000
  N   N11       1.0  0.2156778666265069  0.775537508270773  0.6111507608481757  1.0000
  N   N12       1.0  0.21567709754209827  0.38884607105438124  0.7755373663326138  1.0000
  N   N13       1.0  0.7156774327884178  0.27553687778915764  0.8888461640492692  1.0000
  N   N14       1.0  0.7156778647544895  0.11115368337303275  0.2755375230455356  1.0000
  N   N15       1.0  0.7156772668640413  0.7244624042727921  0.1111537649855094  1.0000
  N   N16       1.0  0.7156768348979696  0.8888455986889169  0.7244624059892357  1.0000
  O   O1        1.0  0.5890256726316778  0.3976265847946223  0.18281625166286367  1.0000
  O   O2        1.0  0.5890244458944807  0.817187901070014  0.3976266213947568  1.0000
  O   O3        1.0  0.5890266952809143  0.6023733305736557  0.8171835827765648  1.0000
  O   O4        1.0  0.5890257703006512  0.18281201429764593  0.6023732130438686  1.0000
  O   O5        1.0  0.08902616923337088  0.10237378578577962  0.682812508895928  1.0000
  O   O6        1.0  0.0890260095741979  0.3171833950613134  0.1023716211535159  1.0000
  O   O7        1.0  0.08902554800032901  0.8976272533908445  0.3171876587146442  1.0000
  O   O8        1.0  0.08902570765928891  0.6828169374952754  0.8976285464569855  1.0000
  O   O9        1.0  0.4661453760476562  0.4569861569560699  0.096511069425901  1.0000
  O   O10       1.0  0.4661427789829844  0.9034887886293248  0.4569890149957131  1.0000
  O   O11       1.0  0.46614571260132454  0.5430129806610325  0.9034879666143354  1.0000
  O   O12       1.0  0.4661432889923914  0.09651105560642753  0.5430107276626188  1.0000
  O   O13       1.0  0.9661436190102747  0.0430115894788017  0.5965119288532108  1.0000
  O   O14       1.0  0.9661456648394946  0.4034895074115072  0.04301305827456759  1.0000
  O   O15       1.0  0.9661438168838501  0.9569885441889383  0.4034881872542826  1.0000
  O   O16       1.0  0.9661453572496512  0.5965099196371144  0.9569856445943897  1.0000
