data_image0
_chemical_formula_structural       Mg6H45C84N3O27
_chemical_formula_sum              "Mg6 H45 C84 N3 O27"
_cell_length_a       6.854286860550563
_cell_length_b       41.498002566002846
_cell_length_c       41.508919423019954
_cell_angle_alpha    119.6981857384048
_cell_angle_beta     93.15455951885272
_cell_angle_gamma    93.15541587376073

_space_group_name_H-M_alt    "P 1"
_space_group_IT_number       1

loop_
  _space_group_symop_operation_xyz
  'x, y, z'

loop_
  _atom_site_type_symbol
  _atom_site_label
  _atom_site_symmetry_multiplicity
  _atom_site_fract_x
  _atom_site_fract_y
  _atom_site_fract_z
  _atom_site_occupancy
  Mg  Mg1       1.0  0.14593475949514098  0.6693964751194483  0.30938284453174697  1.0000
  Mg  Mg2       1.0  0.8364163865260181  0.690551270909509  0.3599090643022293  1.0000
  Mg  Mg3       1.0  0.4764762792793534  0.6400168463456382  0.3305231466146239  1.0000
  Mg  Mg4       1.0  0.6879737379457113  0.33107144321618154  0.6907535509743497  1.0000
  Mg  Mg5       1.0  0.997227754598143  0.3092855889856025  0.6403319091247253  1.0000
  Mg  Mg6       1.0  0.3570099186815981  0.35973686609841593  0.6689631378570552  1.0000
  H   H1        1.0  0.0735432042941113  0.1045728442456166  0.5467605638317252  1.0000
  H   H2        1.0  0.5269147619641928  0.4533317713758224  0.5579126420386658  1.0000
  H   H3        1.0  0.9694197967967854  0.442129228015375  0.895287579678829  1.0000
  H   H4        1.0  0.850564015095074  0.04725060753834501  0.5147580766638526  1.0000
  H   H5        1.0  0.33621221393346457  0.48531422461717  0.5325238816694337  1.0000
  H   H6        1.0  0.8031188886017375  0.4673525136637124  0.952502282826792  1.0000
  H   H7        1.0  0.7613707271811877  0.989561931621111  0.5108067282327938  1.0000
  H   H8        1.0  0.25115473259545956  0.48922505459115934  0.4788389943845956  1.0000
  H   H9        1.0  0.7704670664118609  0.520953144897895  0.010269423032248454  1.0000
  H   H10       1.0  0.5708861771588191  0.9282850123782895  0.48014772791664495  1.0000
  H   H11       1.0  0.09103189770164737  0.5198714121822833  0.44824533378501036  1.0000
  H   H12       1.0  0.6423451353464102  0.551687512925362  0.07162518690927303  1.0000
  H   H13       1.0  0.9043336347436934  0.8917545855964234  0.38512838373868863  1.0000
  H   H14       1.0  0.519266202135256  0.6149502286416322  0.5067124756267134  1.0000
  H   H15       1.0  0.01365733314629846  0.4933442472734058  0.10813800708928775  1.0000
  H   H16       1.0  0.09396572377555408  0.9540666785822864  0.4155282834422423  1.0000
  H   H17       1.0  0.6786826318738476  0.5845754531787222  0.5386223932431661  1.0000
  H   H18       1.0  0.13987953978412554  0.4613163247035956  0.045761308221166544  1.0000
  H   H19       1.0  0.37960952450195873  0.8814778880525934  0.4356961207860692  1.0000
  H   H20       1.0  0.9440615078248911  0.5644169754482321  0.44582573081534355  1.0000
  H   H21       1.0  0.4989558940055687  0.5541754150192091  0.11854250723204275  1.0000
  H   H22       1.0  0.609051352581993  0.7949494508259605  0.4042068818892803  1.0000
  H   H23       1.0  0.20537263243615908  0.595906515260907  0.390793580939892  1.0000
  H   H24       1.0  0.8150415760526357  0.6091804235602041  0.20512451749385013  1.0000
  H   H25       1.0  0.8918755352799081  0.7805808463450673  0.3702065804392588  1.0000
  H   H26       1.0  0.5218736194411804  0.6298169753057223  0.41036943312234087  1.0000
  H   H27       1.0  0.11166674913771862  0.5896070429196455  0.21924775193661364  1.0000
  H   H28       1.0  0.06798445402141344  0.8428209459445951  0.4017369143535774  1.0000
  H   H29       1.0  0.6669603592254347  0.5984290387172208  0.441178510397151  1.0000
  H   H30       1.0  0.22624101760559515  0.5589290822821269  0.15709201438086504  1.0000
  H   H31       1.0  0.3329141526121333  0.9847708029316703  0.46063292091560015  1.0000
  H   H32       1.0  0.8728684099366647  0.5395615906216522  0.524393210996081  1.0000
  H   H33       1.0  0.3471655186280742  0.47556982434027617  0.015111705041853343  1.0000
  H   H34       1.0  0.5546772241163821  0.043118456822824704  0.49205900430727917  1.0000
  H   H35       1.0  0.06292495758114575  0.50813115149964  0.5513541318947617  1.0000
  H   H36       1.0  0.511266946060971  0.44877869472631454  0.956878930398858  1.0000
  H   H37       1.0  0.2406222857582421  0.20330462673690863  0.5872488754367067  1.0000
  H   H38       1.0  0.6536355611139372  0.4128618843707486  0.616203208324329  1.0000
  H   H39       1.0  0.03769329028381923  0.38391488262726625  0.7966985833095633  1.0000
  H   H40       1.0  0.9461053668594275  0.2213880865377647  0.6314965649155794  1.0000
  H   H41       1.0  0.31447445889556763  0.3684847006078087  0.5897740242988617  1.0000
  H   H42       1.0  0.7251771886083135  0.41007103274137074  0.7786053337177207  1.0000
  H   H43       1.0  0.7826674404956151  0.1573650323960862  0.5919509919384538  1.0000
  H   H44       1.0  0.19008160671001664  0.40799259508995783  0.5652878152652647  1.0000
  H   H45       1.0  0.625791749347222  0.43447857953442787  0.8426136236063753  1.0000
  C   C1        1.0  0.47592783046157183  0.11072247751035749  0.540485523216077  1.0000
  C   C2        1.0  0.9354371988191658  0.4596633333708056  0.5704397682657855  1.0000
  C   C3        1.0  0.3656997850830805  0.42974094389725076  0.8892644655989911  1.0000
  C   C4        1.0  0.3307421173959995  0.07750325572121848  0.5219706027917965  1.0000
  C   C5        1.0  0.8089486591393041  0.4781769586974247  0.5557215063245804  1.0000
  C   C6        1.0  0.2533419643501277  0.44435090971823143  0.922425093475205  1.0000
  C   C7        1.0  0.1312864124500308  0.07834297085717881  0.5281756063942068  1.0000
  C   C8        1.0  0.6033152382038481  0.471930900269818  0.550292678324034  1.0000
  C   C9        1.0  0.05306392225017487  0.449713360303754  0.921523516858663  1.0000
  C   C10       1.0  0.005423850888000501  0.04566878347647929  0.5100230707101544  1.0000
  C   C11       1.0  0.4957620966334134  0.49007158562423564  0.5357394424970252  1.0000
  C   C12       1.0  0.9594542908723083  0.4641797208034574  0.9541474261796165  1.0000
  C   C13       1.0  0.07419907380771922  0.01141725185051  0.48522771241412216  1.0000
  C   C14       1.0  0.5894355434807537  0.5148864332037633  0.5263223732503021  1.0000
  C   C15       1.0  0.062101485754354355  0.4735688581557156  0.9884042431900182  1.0000
  C   C16       1.0  0.9451690009522339  0.9762263895228074  0.4658704912283797  1.0000
  C   C17       1.0  0.4797516006270045  0.5342036023427923  0.5104463558610348  1.0000
  C   C18       1.0  0.9682255902766174  0.4894025284573117  0.023584734695702988  1.0000
  C   C19       1.0  0.7910700442754934  0.9686061525004351  0.4828443445172399  1.0000
  C   C20       1.0  0.30871416001157576  0.5171979929682138  0.48584550732898885  1.0000
  C   C21       1.0  0.821603050368644  0.5139841932539114  0.031227130264568508  1.0000
  C   C22       1.0  0.6825556025883232  0.9338029750710818  0.4652760419708601  1.0000
  C   C23       1.0  0.21762077176138214  0.5347598161583066  0.4686132671410164  1.0000
  C   C24       1.0  0.748523567514205  0.5312968874189465  0.0660826488426309  1.0000
  C   C25       1.0  0.7250298617640285  0.9056681037672333  0.43018021138057344  1.0000
  C   C26       1.0  0.29499958887853944  0.5698668369266712  0.47556419169006847  1.0000
  C   C27       1.0  0.8198403126589042  0.5244319175069238  0.09424407334196169  1.0000
  C   C28       1.0  0.8737431534052221  0.913674681912319  0.41255112915061437  1.0000
  C   C29       1.0  0.46135994107267214  0.5875094250327421  0.5012041981133704  1.0000
  C   C30       1.0  0.9606178907652136  0.49879798262067954  0.08621182645966033  1.0000
  C   C31       1.0  0.9807075769330922  0.9483115054484798  0.4299375880793903  1.0000
  C   C32       1.0  0.5510848694896211  0.5701474210957895  0.5184588395600966  1.0000
  C   C33       1.0  0.03229061656585235  0.4814675367028372  0.05153012368968044  1.0000
  C   C34       1.0  0.6353488157389009  0.8661499647707342  0.41083667306715194  1.0000
  C   C35       1.0  0.22477527791856033  0.5892465246633165  0.455420284425486  1.0000
  C   C36       1.0  0.770206430863766  0.5446482678155532  0.1337853889556939  1.0000
  C   C37       1.0  0.3540635951511674  0.8234610268553623  0.4047246612163847  1.0000
  C   C38       1.0  0.94986205676112  0.595395088721986  0.4188000383392136  1.0000
  C   C39       1.0  0.531588239495342  0.5812041057674762  0.17652083474728641  1.0000
  C   C40       1.0  0.452340814174633  0.792293565040751  0.3966764980035791  1.0000
  C   C41       1.0  0.05616062712357467  0.6034230600021432  0.3956640383742708  1.0000
  C   C42       1.0  0.6608452520078316  0.6043109616418079  0.20771287884191741  1.0000
  C   C43       1.0  0.35334196622598313  0.7563138853653939  0.3778322383717807  1.0000
  C   C44       1.0  0.9757387662389334  0.6221956544249991  0.3784657159638484  1.0000
  C   C45       1.0  0.5973593946428436  0.6215008993093247  0.24364799256441924  1.0000
  C   C46       1.0  0.14679516808646303  0.7513832342870542  0.36713155043950957  1.0000
  C   C47       1.0  0.7797885777817655  0.6328499448841001  0.3841935603398525  1.0000
  C   C48       1.0  0.39565039108185834  0.6157617860878872  0.24854131777662059  1.0000
  C   C49       1.0  0.04925728464819214  0.7837351261745695  0.3777115604029149  1.0000
  C   C50       1.0  0.6717877955875341  0.6223154244680985  0.4060064447475469  1.0000
  C   C51       1.0  0.26600150232866326  0.5939896903563023  0.21616317738928353  1.0000
  C   C52       1.0  0.15018618370762477  0.8189529603994145  0.39570941904764817  1.0000
  C   C53       1.0  0.7549505162998001  0.6044019088059541  0.42328884528039606  1.0000
  C   C54       1.0  0.33209632707278297  0.5767542408314481  0.1809874968237394  1.0000
  C   C55       1.0  0.472287425319017  0.7249463289699632  0.3693564796085552  1.0000
  C   C56       1.0  0.10301733129139738  0.6306131673553992  0.35552059308442807  1.0000
  C   C57       1.0  0.7474376937282514  0.6444527427846083  0.2750244779625319  1.0000
  C   C58       1.0  0.27446588669018007  0.011030393475898799  0.4791029086768359  1.0000
  C   C59       1.0  0.7958416380782014  0.52106612105937  0.5321419178690548  1.0000
  C   C60       1.0  0.26277994092168194  0.4678227031658862  0.9888445253558158  1.0000
  C   C61       1.0  0.40022983639022414  0.04350395089372941  0.49702217680476923  1.0000
  C   C62       1.0  0.9035224583857726  0.5031542349058853  0.546721965076209  1.0000
  C   C63       1.0  0.3564452009697804  0.45333838433163726  0.9564325855252064  1.0000
  C   C64       1.0  0.5008625233130458  0.17643758239942287  0.5866510078945237  1.0000
  C   C65       1.0  0.9141099368615287  0.413412878533343  0.5898456045594641  1.0000
  C   C66       1.0  0.32489344351405697  0.4101264527340547  0.823538407250524  1.0000
  C   C67       1.0  0.3957480737659012  0.20710987498441108  0.5969125867805045  1.0000
  C   C68       1.0  0.7990175994339239  0.40317922063474754  0.6102963207058635  1.0000
  C   C69       1.0  0.18902261596092276  0.38975737767463403  0.7928856749860883  1.0000
  C   C70       1.0  0.4856631059411853  0.24359745575365824  0.6199397953472284  1.0000
  C   C71       1.0  0.8660051032977378  0.3801463810652308  0.623728364046542  1.0000
  C   C72       1.0  0.24240550228220312  0.37632896078405037  0.756411963585691  1.0000
  C   C73       1.0  0.690047847957139  0.24904572375604767  0.6324201845635071  1.0000
  C   C74       1.0  0.05788911484193455  0.3676365635111978  0.6166436757410239  1.0000
  C   C75       1.0  0.44131067621519554  0.38336208424910717  0.7509600638044984  1.0000
  C   C76       1.0  0.7910680117775826  0.2170759282545731  0.6216213465944731  1.0000
  C   C77       1.0  0.1694210072780535  0.3783878347160297  0.5954038104919589  1.0000
  C   C78       1.0  0.5744563470470467  0.404499925425469  0.78291357842766  1.0000
  C   C79       1.0  0.700065862036645  0.1812827488901689  0.5994403652386209  1.0000
  C   C80       1.0  0.1003318310294077  0.40056122517264464  0.5817988283361045  1.0000
  C   C81       1.0  0.5192784544272583  0.4180705496664743  0.8186971621938567  1.0000
  C   C82       1.0  0.36216153642793353  0.2746992467248148  0.6301683869669077  1.0000
  C   C83       1.0  0.7323012553607597  0.3699102096133232  0.6445899016274764  1.0000
  C   C84       1.0  0.08772287427329671  0.35547282546411907  0.7253191741309307  1.0000
  N   N1        1.0  0.4570566305927387  0.8593810537915303  0.42099038143269507  1.0000
  N   N2        1.0  0.03642100657884857  0.5791142430124625  0.43846027100413215  1.0000
  N   N3        1.0  0.5986637456983743  0.5615622670571624  0.14060922157413105  1.0000
  O   O1        1.0  0.6508452042337041  0.7305211008208304  0.38252732816616947  1.0000
  O   O2        1.0  0.2683811018604628  0.6174322803566666  0.34791637061074704  1.0000
  O   O3        1.0  0.9204102432033707  0.6520639293063653  0.26945609731433257  1.0000
  O   O4        1.0  0.3906920495295623  0.6914762367052631  0.3474704416575776  1.0000
  O   O5        1.0  0.04318551582273513  0.6524505113127006  0.34389060187066184  1.0000
  O   O6        1.0  0.6991519192228355  0.6560658211199241  0.30847921848712906  1.0000
  O   O7        1.0  0.04341630324614705  0.7179112822814346  0.34743766094496215  1.0000
  O   O8        1.0  0.6959232274738412  0.6524736808918802  0.3703460538677348  1.0000
  O   O9        1.0  0.32553329525414654  0.6295548019566652  0.2819921342351392  1.0000
  O   O10       1.0  0.18243918053404684  0.26893379427112046  0.6175718195455885  1.0000
  O   O11       1.0  0.5653250567228553  0.3825560968698696  0.6514708628965025  1.0000
  O   O12       1.0  0.9138112350176542  0.3485941902126939  0.7310753050352827  1.0000
  O   O13       1.0  0.4411853647579776  0.3081929408366975  0.6529212369576384  1.0000
  O   O14       1.0  0.788365956020037  0.34708586525629664  0.6552532922868222  1.0000
  O   O15       1.0  0.1331515395545324  0.3447894568968053  0.6918365679288241  1.0000
  O   O16       1.0  0.7905911385361576  0.2826181021698915  0.6538650227296685  1.0000
  O   O17       1.0  0.13706360137908294  0.3461998790021212  0.628776474532259  1.0000
  O   O18       1.0  0.5082217016084485  0.3712635059234585  0.7173963840429562  1.0000
  O   O19       1.0  0.3920013464813224  0.1417730189481574  0.5654555015873797  1.0000
  O   O20       1.0  0.8263904840955971  0.43463512768005336  0.5764258887483676  1.0000
  O   O21       1.0  0.250684600098417  0.4235461881503042  0.8581830283255056  1.0000
  O   O22       1.0  0.6487884894781429  0.1105048204501031  0.5345315138094192  1.0000
  O   O23       1.0  0.1142102147909512  0.4656503256773234  0.5762625758841721  1.0000
  O   O24       1.0  0.5390020789629943  0.4241556643084009  0.8895474240446856  1.0000
  O   O25       1.0  0.7239042286800909  0.841074043591824  0.38726406615202785  1.0000
  O   O26       1.0  0.33696499747532027  0.6128456921935452  0.4539680811911778  1.0000
  O   O27       1.0  0.8841667902096405  0.5461658993628191  0.1588213861545569  1.0000
