data_image0
_chemical_formula_structural       Cd3H30C36Se6N12
_chemical_formula_sum              "Cd3 H30 C36 Se6 N12"
_cell_length_a       7.684146278870455
_cell_length_b       8.962612319301485
_cell_length_c       17.729761795164244
_cell_angle_alpha    97.16386752428497
_cell_angle_beta     98.14050462804236
_cell_angle_gamma    110.9303902638028

_space_group_name_H-M_alt    "P 1"
_space_group_IT_number       1

loop_
  _space_group_symop_operation_xyz
  'x, y, z'

loop_
  _atom_site_type_symbol
  _atom_site_label
  _atom_site_symmetry_multiplicity
  _atom_site_fract_x
  _atom_site_fract_y
  _atom_site_fract_z
  _atom_site_occupancy
  Cd  Cd1       1.0  0.81882685080393  0.8268778722275981  0.8350690400464984  1.0000
  Cd  Cd2       1.0  0.1811759105054307  0.17311953388138332  0.1649294490114315  1.0000
  Cd  Cd3       1.0  0.499996773851528  0.49999869513924017  0.4999992369886498  1.0000
  H   H1        1.0  0.5042151055549057  0.46218658283815733  0.7915126370327527  1.0000
  H   H2        1.0  0.49577974066058766  0.5378108091319549  0.2084881746319169  1.0000
  H   H3        1.0  0.38627494165897486  0.2020916257624492  0.843319366737681  1.0000
  H   H4        1.0  0.6137241443255376  0.7979094201758559  0.1566836313338982  1.0000
  H   H5        1.0  0.5326073120860072  0.20014908884865432  0.9785496393760695  1.0000
  H   H6        1.0  0.4673951888533309  0.7998507474579171  0.021452369340508412  1.0000
  H   H7        1.0  0.7884239379043549  0.4557909407065707  0.0572371974619514  1.0000
  H   H8        1.0  0.21157833260064512  0.5442113267604826  0.9427643846678817  1.0000
  H   H9        1.0  0.8904108883237924  0.7050125321669968  0.9968689491169866  1.0000
  H   H10       1.0  0.10958636297096547  0.2949872955848463  0.0031310375915793985  1.0000
  H   H11       1.0  0.8072165614450385  0.1793972914782742  0.8554439208921352  1.0000
  H   H12       1.0  0.19278252881599656  0.8206037545975845  0.1445585134300984  1.0000
  H   H13       1.0  0.911894686133344  0.44281708589134894  0.8057539528220798  1.0000
  H   H14       1.0  0.08810363323951263  0.5571851747126078  0.1942479449871115  1.0000
  H   H15       1.0  0.09615004825121078  0.4659951288834349  0.6990658967540426  1.0000
  H   H16       1.0  0.9038432476348816  0.5340046918677501  0.3009349693832206  1.0000
  H   H17       1.0  0.17103480639654833  0.22746279275678216  0.6466725730460396  1.0000
  H   H18       1.0  0.8289622059108197  0.7725394658804349  0.3533281145744667  1.0000
  H   H19       1.0  0.06091079442935396  0.9754830583113899  0.7043271718123305  1.0000
  H   H20       1.0  0.9390869930427213  0.024517985935290205  0.2956734885718716  1.0000
  H   H21       1.0  0.7698180148952715  0.8750310630930898  0.5678334348372899  1.0000
  H   H22       1.0  0.23017924495253786  0.1249687649338682  0.4321654243725916  1.0000
  H   H23       1.0  0.8631655980240112  0.15327166713070986  0.5331328519476273  1.0000
  H   H24       1.0  0.13683374833051695  0.8467269486099982  0.4668666264652969  1.0000
  H   H25       1.0  0.7152995427811104  0.1796246099396228  0.4032187725174126  1.0000
  H   H26       1.0  0.28470034830377244  0.8203752225710375  0.596780252072463  1.0000
  H   H27       1.0  0.478397134046574  0.9289919118931211  0.3123328399575556  1.0000
  H   H28       1.0  0.5216014371432465  0.07100791823813069  0.6876666656916653  1.0000
  H   H29       1.0  0.4001981733611117  0.6598807537143331  0.3560848875609111  1.0000
  H   H30       1.0  0.5998011815464607  0.34011786230149  0.6439134633533213  1.0000
  C   C1        1.0  0.20481758549844642  0.9602630195019232  0.9922231984750169  1.0000
  C   C2        1.0  0.7951817565795523  0.03973559610123092  0.007776843687246108  1.0000
  C   C3        1.0  0.8733590632435906  0.6356056970979723  0.6631997627892829  1.0000
  C   C4        1.0  0.12664455709214914  0.36439657371138173  0.3367973920357983  1.0000
  C   C5        1.0  0.4423977235395213  0.6688949342916788  0.67729001314526  1.0000
  C   C6        1.0  0.5576047902293908  0.3311049024275619  0.32271030432328723  1.0000
  C   C7        1.0  0.5637797349763145  0.454630948972266  0.8499386519979167  1.0000
  C   C8        1.0  0.43621773819973697  0.5453664473439873  0.15006288879608579  1.0000
  C   C9        1.0  0.4985364902034988  0.3113600599661908  0.8788512735585101  1.0000
  C   C10       1.0  0.5014596673540197  0.688637334108215  0.12115018454549904  1.0000
  C   C11       1.0  0.5797540818133128  0.31040508017396456  0.9542730959634368  1.0000
  C   C12       1.0  0.42024448082346316  0.6895947496821722  0.04572753718446881  1.0000
  C   C13       1.0  0.7223630238043768  0.4527575286800243  0.9981480328891761  1.0000
  C   C14       1.0  0.2776397957075076  0.5472459556945283  0.0018525316682698144  1.0000
  C   C15       1.0  0.7795017020390134  0.590879042068508  0.9648737810615343  1.0000
  C   C16       1.0  0.22049925712396853  0.4091232232942589  0.03512715462895951  1.0000
  C   C17       1.0  0.8886838456711033  0.19633959242243293  0.8093453473618055  1.0000
  C   C18       1.0  0.1113165644849943  0.8036614560328347  0.19065660590108283  1.0000
  C   C19       1.0  0.9467292655587586  0.34154785749384337  0.7816599778019722  1.0000
  C   C20       1.0  0.05327169360422349  0.6584544078689235  0.2183409578885289  1.0000
  C   C21       1.0  0.04912690853284124  0.3543378982935438  0.7221137268233164  1.0000
  C   C22       1.0  0.9508695590441645  0.645663143573735  0.2778874146202384  1.0000
  C   C23       1.0  0.09075385234527997  0.22175096829140267  0.6929234488389466  1.0000
  C   C24       1.0  0.9092431556855658  0.7782512902082601  0.3070778025309052  1.0000
  C   C25       1.0  0.0295404213366695  0.0814758557731423  0.7245485627950713  1.0000
  C   C26       1.0  0.9704579023127097  0.9185264049683752  0.27545277126477424  1.0000
  C   C27       1.0  0.7086384757540927  0.8931066880493931  0.5119346491803256  1.0000
  C   C28       1.0  0.2913608706004353  0.10689192769132211  0.48806482923259153  1.0000
  C   C29       1.0  0.7603529615386294  0.046615043444639105  0.49237720626550896  1.0000
  C   C30       1.0  0.23964716425712138  0.9533823580430935  0.5076216811617726  1.0000
  C   C31       1.0  0.6772768392417419  0.0609221533064641  0.4198760931320037  1.0000
  C   C32       1.0  0.32272173622460093  0.9390776769623416  0.5801228487678785  1.0000
  C   C33       1.0  0.5455416741285288  0.9213669433973736  0.36942299252333294  1.0000
  C   C34       1.0  0.45445768077905047  0.0786316726184495  0.6305753583908995  1.0000
  C   C35       1.0  0.5019066349886928  0.7724021698446323  0.3933869068271605  1.0000
  C   C36       1.0  0.49809379655003033  0.22759887929841227  0.6066122276890057  1.0000
  Se  Se1       1.0  0.19979755081770642  0.8706873705493552  0.8948992416809318  1.0000
  Se  Se2       1.0  0.8002033458662295  0.1293088164102798  0.10510018225938468  1.0000
  Se  Se3       1.0  0.889029667186108  0.5719742299868571  0.5649072165209645  1.0000
  Se  Se4       1.0  0.11096893393938966  0.4280256011072866  0.43508834288284953  1.0000
  Se  Se5       1.0  0.4407681456166372  0.7794816224683245  0.7689983785955617  1.0000
  Se  Se6       1.0  0.5592353823043723  0.22051456897500538  0.2310012107247559  1.0000
  N   N1        1.0  0.21096291664032657  0.0152748881817786  0.0570016289979591  1.0000
  N   N2        1.0  0.7890364382672459  0.9847237278340515  0.9429967219162732  1.0000
  N   N3        1.0  0.8631798387748546  0.6736668594378089  0.7281281007992533  1.0000
  N   N4        1.0  0.1368264299040618  0.3263354164054705  0.2718669644084457  1.0000
  N   N5        1.0  0.4364212509025904  0.5940377116861839  0.61671012723545  1.0000
  N   N6        1.0  0.563578330162798  0.40595847303160343  0.38328921401488  1.0000
  N   N7        1.0  0.7023656311677087  0.5917115866138972  0.8919728702698463  1.0000
  N   N8        1.0  0.29763502225230093  0.4082870310935506  0.108027818331756  1.0000
  N   N9        1.0  0.9296330633034345  0.0686882556082651  0.781529795151286  1.0000
  N   N10       1.0  0.07036788730650306  0.9313140094793867  0.2184722680378925  1.0000
  N   N11       1.0  0.5821816273851752  0.7585053967244877  0.4633464263515563  1.0000
  N   N12       1.0  0.41781903458788605  0.2414932212580752  0.5366531347513613  1.0000
