data_image0
_chemical_formula_structural       NiH22C18N4O8
_chemical_formula_sum              "Ni1 H22 C18 N4 O8"
_cell_length_a       7.502670974702547
_cell_length_b       8.27211335931813
_cell_length_c       9.760783283605718
_cell_angle_alpha    101.00151597221422
_cell_angle_beta     98.53470558073043
_cell_angle_gamma    120.24647161883911

_space_group_name_H-M_alt    "P 1"
_space_group_IT_number       1

loop_
  _space_group_symop_operation_xyz
  'x, y, z'

loop_
  _atom_site_type_symbol
  _atom_site_label
  _atom_site_symmetry_multiplicity
  _atom_site_fract_x
  _atom_site_fract_y
  _atom_site_fract_z
  _atom_site_occupancy
  Ni  Ni1       1.0  0.4999990262477709  0.4999973698638129  0.5000003081690068  1.0000
  H   H1        1.0  0.560381733475104  0.7936652629251383  0.8835644409571938  1.0000
  H   H2        1.0  0.43961883004230634  0.20633392487953017  0.11643813100501887  1.0000
  H   H3        1.0  0.2890334930035792  0.6424629824812982  0.4783411066002542  1.0000
  H   H4        1.0  0.7109688009829682  0.3575392194970206  0.5216641488743291  1.0000
  H   H5        1.0  0.370879290025087  0.6368347302309304  0.32783610622673354  1.0000
  H   H6        1.0  0.629131230309703  0.3631749797338414  0.6721701042596349  1.0000
  H   H7        1.0  0.775180311564327  0.8698100626530518  0.49698310591021055  1.0000
  H   H8        1.0  0.2247971012627232  0.1301792867777607  0.5030104779599894  1.0000
  H   H9        1.0  0.892419129745207  0.05219721721371681  0.6324122892681386  1.0000
  H   H10       1.0  0.10755447458977593  0.9477948902539312  0.36758337122918755  1.0000
  H   H11       1.0  0.1385675173248799  0.5112293215531736  0.8625140096208594  1.0000
  H   H12       1.0  0.8614326794590994  0.4887589438948083  0.1375032709094768  1.0000
  H   H13       1.0  0.2911952707130325  0.4276157556205149  0.9405679404372546  1.0000
  H   H14       1.0  0.7088267527782506  0.5723830960114142  0.0594398565985017  1.0000
  H   H15       1.0  0.6333223268033024  0.029421482373017196  0.362894287295873  1.0000
  H   H16       1.0  0.36667201588507226  0.9705814033863616  0.6370989817408413  1.0000
  H   H17       1.0  0.9774075320075538  0.34542343968119127  0.5008920269534797  1.0000
  H   H18       1.0  0.02258832503213157  0.6545868168521876  0.4991066125993696  1.0000
  H   H19       1.0  0.18230790981231598  0.3650496039010705  0.11340251554497628  1.0000
  H   H20       1.0  0.8176990225614775  0.6349539679412647  0.8865952234501007  1.0000
  H   H21       1.0  0.8502304866690197  0.043404549594207295  0.9764707775024274  1.0000
  H   H22       1.0  0.14978371513510083  0.9566022925585858  0.023530251890271428  1.0000
  C   C1        1.0  0.30379840905926164  0.43884750814201823  0.7261404381030372  1.0000
  C   C2        1.0  0.696191334994488  0.5611468473803853  0.27385926790710596  1.0000
  C   C3        1.0  0.29358711517048874  0.5227086053148682  0.8752920818203476  1.0000
  C   C4        1.0  0.7064101541840416  0.4772775035446912  0.12470714807756882  1.0000
  C   C5        1.0  0.5179448437599419  0.8101711924284559  0.09123444238806401  1.0000
  C   C6        1.0  0.48206113169593573  0.189828141737884  0.9087656319928495  1.0000
  C   C7        1.0  0.7164585659985933  0.011271343411323197  0.16101643926392478  1.0000
  C   C8        1.0  0.2835516623630738  0.9887335708525385  0.8389746663524987  1.0000
  C   C9        1.0  0.7533616720992525  0.10305418705184619  0.30794446522564545  1.0000
  C   C10       1.0  0.24664409424034525  0.896952161120595  0.6920525493726258  1.0000
  C   C11       1.0  0.9438610639112569  0.28241313254020645  0.38452071067441546  1.0000
  C   C12       1.0  0.05614007104261988  0.717594503173963  0.615478073616984  1.0000
  C   C13       1.0  0.10044546042890092  0.37612342459681974  0.3152236509969767  1.0000
  C   C14       1.0  0.8995620363798269  0.6238859377492718  0.6847760471136793  1.0000
  C   C15       1.0  0.062047064455583674  0.28881172341780825  0.16714924542871049  1.0000
  C   C16       1.0  0.9379577449660916  0.711190387078638  0.8328501045554049  1.0000
  C   C17       1.0  0.8721696364634185  0.1077793203476318  0.09105250229963954  1.0000
  C   C18       1.0  0.127839764591336  0.8922286629800315  0.9089461574974534  1.0000
  N   N1        1.0  0.47423442431580304  0.7229015835802883  0.9478835360789829  1.0000
  N   N2        1.0  0.5257626782633551  0.2770915758770869  0.0521136688584818  1.0000
  N   N3        1.0  0.3024966733681751  0.5557382105464511  0.3958502576521851  1.0000
  N   N4        1.0  0.697512419885406  0.4442713987924023  0.6041547662906976  1.0000
  O   O1        1.0  0.4418175123966321  0.5681456119455817  0.6768402655765015  1.0000
  O   O2        1.0  0.5581701061167125  0.4318400852662735  0.32315893709441207  1.0000
  O   O3        1.0  0.18172446444752666  0.2577538038296368  0.6632301362899395  1.0000
  O   O4        1.0  0.8182539899792756  0.7422398564605925  0.3367631818387905  1.0000
  O   O5        1.0  0.39711507657365536  0.719860888042348  0.1627293751177774  1.0000
  O   O6        1.0  0.6028998660305758  0.2801545483867969  0.8372720058928349  1.0000
  O   O7        1.0  0.7476913640169869  0.9365850779229417  0.5782674577000576  1.0000
  O   O8        1.0  0.2522840175412995  0.06340554075114821  0.421724060017162  1.0000
