data_image0
_chemical_formula_structural       Mn2H20C12N4O10
_chemical_formula_sum              "Mn2 H20 C12 N4 O10"
_cell_length_a       7.169704413934745
_cell_length_b       7.617702468733841
_cell_length_c       9.504088104802458
_cell_angle_alpha    113.65133748274388
_cell_angle_beta     112.1538836523837
_cell_angle_gamma    89.98326416858845

_space_group_name_H-M_alt    "P 1"
_space_group_IT_number       1

loop_
  _space_group_symop_operation_xyz
  'x, y, z'

loop_
  _atom_site_type_symbol
  _atom_site_label
  _atom_site_symmetry_multiplicity
  _atom_site_fract_x
  _atom_site_fract_y
  _atom_site_fract_z
  _atom_site_occupancy
  Mn  Mn1       1.0  0.27224728469994364  0.8050535662462791  0.6102105137994585  1.0000
  Mn  Mn2       1.0  0.6621364748505842  0.1949401019354227  0.3898524719117731  1.0000
  H   H1        1.0  0.8986642996310225  0.6155027749103182  0.44487903359160447  1.0000
  H   H2        1.0  0.4538353105232389  0.3845655582842225  0.5551926027633911  1.0000
  H   H3        1.0  0.4538067857640228  0.17079739590747067  0.5551794759334853  1.0000
  H   H4        1.0  0.8986430962955438  0.8292709377757246  0.44487511715628597  1.0000
  H   H5        1.0  0.33605690589028114  0.5606982139896599  0.12131426240647156  1.0000
  H   H6        1.0  0.21470008824987016  0.4393582794041961  0.8787921159853624  1.0000
  H   H7        1.0  0.13530793686391715  0.5963951339924944  0.19279682530557096  1.0000
  H   H8        1.0  0.9424934110078451  0.40374543775504185  0.8072712262623654  1.0000
  H   H9        1.0  0.7672467132693159  0.3513983833140343  0.15146286367075854  1.0000
  H   H10       1.0  0.6160327149615057  0.6485284713258892  0.8484484078250675  1.0000
  H   H11       1.0  0.6158968203716455  0.19993388451047875  0.8485820287279323  1.0000
  H   H12       1.0  0.7673931111806311  0.7999842359783004  0.15133777903476905  1.0000
  H   H13       1.0  0.9998304941961609  0.29037455099941667  0.2635795881621945  1.0000
  H   H14       1.0  0.7364464155725942  0.7095507685907378  0.736313334923132  1.0000
  H   H15       1.0  0.7363500240698004  0.02670624001113  0.7363869749202578  1.0000
  H   H16       1.0  0.999902383074165  0.9732409273261028  0.26350825034620584  1.0000
  H   H17       1.0  0.048222186052363704  0.9437709373675178  0.8876026062053484  1.0000
  H   H18       1.0  0.1605401197866172  0.056178548849544485  0.11231681845468701  1.0000
  H   H19       1.0  0.45392193544842036  0.1175372976139002  0.9999810975388782  1.0000
  H   H20       1.0  0.4540192859019072  0.8823189814939237  0.9999049992509798  1.0000
  C   C1        1.0  0.3847917396862001  0.4980781705830708  0.33171660769925637  1.0000
  C   C2        1.0  0.05306095252507248  0.501988577120457  0.6683745120206623  1.0000
  C   C3        1.0  0.052847962870394796  0.16619203689102593  0.66838203074753  1.0000
  C   C4        1.0  0.3845713013182531  0.8338762609121344  0.3317274432056648  1.0000
  C   C5        1.0  0.3024544490324601  0.6163503424492446  0.2325511128796762  1.0000
  C   C6        1.0  0.06992320835851731  0.3837567813254453  0.7675456715655359  1.0000
  C   C7        1.0  0.8556751634739613  0.2334392681700236  0.14988306020785558  1.0000
  C   C8        1.0  0.7059811271114073  0.7664981056019047  0.8500231484510155  1.0000
  C   C9        1.0  0.7058938159361859  0.08350650596011629  0.8500940202086723  1.0000
  C   C10       1.0  0.8557549489759925  0.91641484751527  0.14980387227065972  1.0000
  C   C11       1.0  0.01509108942765635  0.9999885531264427  0.9999656139964586  1.0000
  C   C12       1.0  0.5420161001155607  0.999937237383726  0.9999302984097652  1.0000
  N   N1        1.0  0.7355363337918988  0.07755896265984318  0.15513009169594474  1.0000
  N   N2        1.0  0.5804422084664295  0.9223518180725208  0.8447575234535734  1.0000
  N   N3        1.0  0.8995421295463543  0.16023445010038267  0.9999927274621427  1.0000
  N   N4        1.0  0.8996338633203679  0.8397153514956414  0.9999229244918126  1.0000
  O   O1        1.0  0.9516035521684288  0.7048953191747811  0.4099453403331594  1.0000
  O   O2        1.0  0.5416985936373139  0.29513403705520597  0.5901219366778959  1.0000
  O   O3        1.0  0.363158135472986  0.5432494097968997  0.4693909521730717  1.0000
  O   O4        1.0  0.8937400207147801  0.4568389406973096  0.5306950360174055  1.0000
  O   O5        1.0  0.8936661030413618  0.0737462000474949  0.5306303295352919  1.0000
  O   O6        1.0  0.362955686704808  0.9263917034759288  0.4694396950218263  1.0000
  O   O7        1.0  0.4680926139220105  0.35733207037708326  0.2710117413304047  1.0000
  O   O8        1.0  0.19697202010276982  0.642636656380077  0.7289875298194702  1.0000
  O   O9        1.0  0.1965936254920564  0.0860244604919629  0.7291422403803622  1.0000
  O   O10       1.0  0.4677491145976377  0.9139430515194319  0.27104541639832297  1.0000
