data_image0
_chemical_formula_structural       CuH8C16S2N2Cl2F4
_chemical_formula_sum              "Cu1 H8 C16 S2 N2 Cl2 F4"
_cell_length_a       7.62128546978714
_cell_length_b       8.255123043104772
_cell_length_c       10.55872627846087
_cell_angle_alpha    87.47466124973782
_cell_angle_beta     117.34301535416313
_cell_angle_gamma    104.82242046507788

_space_group_name_H-M_alt    "P 1"
_space_group_IT_number       1

loop_
  _space_group_symop_operation_xyz
  'x, y, z'

loop_
  _atom_site_type_symbol
  _atom_site_label
  _atom_site_symmetry_multiplicity
  _atom_site_fract_x
  _atom_site_fract_y
  _atom_site_fract_z
  _atom_site_occupancy
  Cu  Cu1       1.0  0.9999799581713732  0.9999997721630933  0.9999844906911475  1.0000
  H   H1        1.0  0.5922258932960248  0.053989394615278685  0.908127836933545  1.0000
  H   H2        1.0  0.40773036290938336  0.9460603890376261  0.09181453539305547  1.0000
  H   H3        1.0  0.45032620309191873  0.25551091262067865  0.9768612196420107  1.0000
  H   H4        1.0  0.5496504218710782  0.7445337181409287  0.0231189279227308  1.0000
  H   H5        1.0  0.7018426934217101  0.5114865027809615  0.148221530436075  1.0000
  H   H6        1.0  0.2981873619456579  0.48852837656726683  0.8517779472333229  1.0000
  H   H7        1.0  0.07306219229969464  0.5509657673610351  0.23758650716165158  1.0000
  H   H8        1.0  0.9269568744533101  0.44899998366289406  0.7624342975162148  1.0000
  C   C1        1.0  0.6929917022386007  0.16378145843832206  0.9832804204426464  1.0000
  C   C2        1.0  0.30701824980373266  0.8362705995871736  0.016696965903392383  1.0000
  C   C3        1.0  0.6159841366728925  0.27720332774482864  0.022250383373190595  1.0000
  C   C4        1.0  0.38402762610196817  0.7228625423929601  0.9777370676505439  1.0000
  C   C5        1.0  0.7545218622543357  0.41668407700362303  0.1170768402400384  1.0000
  C   C6        1.0  0.24551811231904003  0.5833552068473368  0.8829136579178112  1.0000
  C   C7        1.0  0.9638114013575603  0.43880071881361  0.1690110470184081  1.0000
  C   C8        1.0  0.03620933458729777  0.5611988243662155  0.8309790664070531  1.0000
  C   C9        1.0  0.028863918247466796  0.31654305517330533  0.12746542789670195  1.0000
  C   C10       1.0  0.9711469370636506  0.6834613094598082  0.8725337840282065  1.0000
  C   C11       1.0  0.40266812511822536  0.4243894196554336  0.35735719028776447  1.0000
  C   C12       1.0  0.5973051207433  0.5755267793448978  0.6426485443813446  1.0000
  C   C13       1.0  0.5566174330550593  0.5765674519013968  0.40018416854804423  1.0000
  C   C14       1.0  0.4434028754900438  0.42338654099071243  0.5998648681670743  1.0000
  C   C15       1.0  0.34867183386486283  0.34870471919539636  0.46066671819014704  1.0000
  C   C16       1.0  0.6513520304053557  0.6512553593034126  0.5393932852399671  1.0000
  S   S1        1.0  0.2897890657977413  0.32984629858977843  0.18197346749916218  1.0000
  S   S2        1.0  0.710207129011202  0.6700965741485659  0.8180614721183658  1.0000
  N   N1        1.0  0.10459159520470249  0.8185853023999384  0.9625661346874707  1.0000
  N   N2        1.0  0.8954117167793568  0.18143850438374898  0.03741225541906348  1.0000
  Cl  Cl1       1.0  0.0586219081828219  0.14412440692143497  0.8303568770365997  1.0000
  Cl  Cl2       1.0  0.9413520905486691  0.8558724501233995  0.1696192432303079  1.0000
  F   F1        1.0  0.38626871303188176  0.344052444850945  0.6949070467508845  1.0000
  F   F2        1.0  0.6137182056862754  0.655936466942542  0.3050902554641438  1.0000
  F   F3        1.0  0.20381551249497676  0.201709231210387  0.4261541223524787  1.0000
  F   F4        1.0  0.7961425860877042  0.7982695135649819  0.5738651699823335  1.0000
