data_image0
_chemical_formula_structural       ZnH16C20N6O2F4
_chemical_formula_sum              "Zn1 H16 C20 N6 O2 F4"
_cell_length_a       7.094174006179702
_cell_length_b       8.487957392438252
_cell_length_c       9.51244211581297
_cell_angle_alpha    80.73547827916028
_cell_angle_beta     74.85157066322971
_cell_angle_gamma    74.26865971397481

_space_group_name_H-M_alt    "P 1"
_space_group_IT_number       1

loop_
  _space_group_symop_operation_xyz
  'x, y, z'

loop_
  _atom_site_type_symbol
  _atom_site_label
  _atom_site_symmetry_multiplicity
  _atom_site_fract_x
  _atom_site_fract_y
  _atom_site_fract_z
  _atom_site_occupancy
  Zn  Zn1       1.0  0.5000044784916895  0.5000014601624089  0.4999991299023352  1.0000
  H   H1        1.0  0.36067614425246575  0.4659270092774576  0.9542497425737082  1.0000
  H   H2        1.0  0.639314149026603  0.5340747928889726  0.04575213246130976  1.0000
  H   H3        1.0  0.813510537804561  0.8485732661273743  0.7956634383951525  1.0000
  H   H4        1.0  0.18647973256068437  0.15142854505392478  0.2043394909357659  1.0000
  H   H5        1.0  0.6359072188309439  0.7268256614853428  0.8231379864462199  1.0000
  H   H6        1.0  0.3640830057066323  0.27317616772569414  0.1768670514765063  1.0000
  H   H7        1.0  0.8623724694990217  0.6848889991226128  0.6862048703377752  1.0000
  H   H8        1.0  0.13761631525366622  0.3151128296555683  0.313799382477626  1.0000
  H   H9        1.0  0.2452862952985484  0.671100713101012  0.7253670963476893  1.0000
  H   H10       1.0  0.7547076719636792  0.3288985944224976  0.27463236327612617  1.0000
  H   H11       1.0  0.36679793383015635  0.8800717586322263  0.4611855900403157  1.0000
  H   H12       1.0  0.6331974732169529  0.1199275493241387  0.5388146546908246  1.0000
  H   H13       1.0  0.24944773174311058  0.9583380129775703  0.6340802774370077  1.0000
  H   H14       1.0  0.7505476523901676  0.04166130399366351  0.36592102159004025  1.0000
  H   H15       1.0  0.1138057944554448  0.8692568510867459  0.5462609476324262  1.0000
  H   H16       1.0  0.8861896125916644  0.13074245686961916  0.45373929709871424  1.0000
  C   C1        1.0  0.19806772376823292  0.4814860728843655  0.9760096183030029  1.0000
  C   C2        1.0  0.8019254490806061  0.5185157301477686  0.02399382694667206  1.0000
  C   C3        1.0  0.9019238327676503  0.6079280165390413  0.90430140394826  1.0000
  C   C4        1.0  0.09806757183110903  0.39207500676995005  0.095700086119308  1.0000
  C   C5        1.0  0.796463161540622  0.7232809914511761  0.7971697874020762  1.0000
  C   C6        1.0  0.20352710882461617  0.276720819730123  0.20283314192884214  1.0000
  C   C7        1.0  0.8116740334972262  0.328108699034928  0.7038675802685433  1.0000
  C   C8        1.0  0.18833711185674679  0.6718917442438508  0.29612958760939995  1.0000
  C   C9        1.0  0.1746502121521658  0.0296879112115747  0.9101574668461438  1.0000
  C   C10       1.0  0.8253554108721346  0.970311345685559  0.089841947860883  1.0000
  C   C11       1.0  0.8202871679491183  0.0903502687739675  0.9723424370214674  1.0000
  C   C12       1.0  0.17972188068959133  0.9096526154913745  0.02765160559958702  1.0000
  C   C13       1.0  0.15300734525535384  0.30989807894118115  0.6728863380644442  1.0000
  C   C14       1.0  0.8469923010499658  0.69009632901232  0.3271180485886731  1.0000
  C   C15       1.0  0.9941563258276458  0.125887206903684  0.8759274408890365  1.0000
  C   C16       1.0  0.005857462286243678  0.8741144218910435  0.12406590994516623  1.0000
  C   C17       1.0  0.9866031353880726  0.25182847319475593  0.7527229094580506  1.0000
  C   C18       1.0  0.013407681500709104  0.7481731907937359  0.24727308834511058  1.0000
  C   C19       1.0  0.2623896348179215  0.861019754796466  0.5664426575575235  1.0000
  C   C20       1.0  0.7376057722291877  0.13897955315989916  0.43355758717362397  1.0000
  N   N1        1.0  0.10214094838743652  0.5878386874611364  0.8827211550754016  1.0000
  N   N2        1.0  0.8978496733568307  0.412161893995588  0.11728189003439841  1.0000
  N   N3        1.0  0.6708943035319805  0.3989403570031769  0.6572087476956625  1.0000
  N   N4        1.0  0.32911671589788233  0.6010552030039163  0.3427923153740764  1.0000
  N   N5        1.0  0.286270296426828  0.3653402058872571  0.6022484835621429  1.0000
  N   N6        1.0  0.7137456684987739  0.6346638832223306  0.3977462059289678  1.0000
  O   O1        1.0  0.34362970602742854  0.7026856092950665  0.6341791185893584  1.0000
  O   O2        1.0  0.6563657239335114  0.2973136896464297  0.36582007184588167  1.0000
  F   F1        1.0  0.6362320433574739  0.1789118465539019  0.9526178027982369  1.0000
  F   F2        1.0  0.36377213988193813  0.821087409910376  0.047380826801457915  1.0000
  F   F3        1.0  0.35389614987286677  0.05213829644915081  0.8249869414816261  1.0000
  F   F4        1.0  0.6461079875388832  0.9478609780448578  0.17501379670987663  1.0000
