data_image0
_chemical_formula_structural       Gd4Cu6H60C48N12O48
_chemical_formula_sum              "Gd4 Cu6 H60 C48 N12 O48"
_cell_length_a       13.391335336726277
_cell_length_b       13.391319971965933
_cell_length_c       14.426132059013995
_cell_angle_alpha    90.00015204607138
_cell_angle_beta     89.99988179442664
_cell_angle_gamma    120.00018463692578

_space_group_name_H-M_alt    "P 1"
_space_group_IT_number       1

loop_
  _space_group_symop_operation_xyz
  'x, y, z'

loop_
  _atom_site_type_symbol
  _atom_site_label
  _atom_site_symmetry_multiplicity
  _atom_site_fract_x
  _atom_site_fract_y
  _atom_site_fract_z
  _atom_site_occupancy
  Gd  Gd1       1.0  0.6666649959339496  0.33333406499343715  0.3319141050042518  1.0000
  Gd  Gd2       1.0  0.33333402085627034  0.6666657008617778  0.1680906033617333  1.0000
  Gd  Gd3       1.0  0.33333418783823293  0.6666658521438935  0.6680867194724556  1.0000
  Gd  Gd4       1.0  0.6666691277236794  0.33333473198757707  0.8319095279253048  1.0000
  Cu  Cu1       1.0  0.5000003386398362  0.5000007053229822  0.5000004122385562  1.0000
  Cu  Cu2       1.0  0.49999960692544215  1.334281166053883e-07  0.4999989486792344  1.0000
  Cu  Cu3       1.0  1.820183826109075e-07  0.5000003261480259  0.5000001980436082  1.0000
  Cu  Cu4       1.0  0.9999996970471158  0.4999985774272844  3.512014785999997e-07  1.0000
  Cu  Cu5       1.0  0.4999983775736324  0.9999980574974074  7.530076544999995e-07  1.0000
  Cu  Cu6       1.0  0.49999944324937934  0.49999893196216766  0.9999993010939291  1.0000
  H   H1        1.0  0.2871358637161876  0.26056067934999316  0.446158446103496  1.0000
  H   H2        1.0  0.7394376997866062  0.026576077209156675  0.446154258604075  1.0000
  H   H3        1.0  0.9734230832982576  0.7128625040646244  0.4461548799550101  1.0000
  H   H4        1.0  0.02657844096632534  0.7394337354641891  0.053844146959484404  1.0000
  H   H5        1.0  0.7128573297198814  0.9734226319427252  0.05384516416287249  1.0000
  H   H6        1.0  0.2605652950659447  0.2871400203225107  0.0538433655778618  1.0000
  H   H7        1.0  0.7128633200556255  0.7394392377881477  0.5538430715597045  1.0000
  H   H8        1.0  0.2605614839877717  0.9734238399233278  0.5538424067536241  1.0000
  H   H9        1.0  0.02657630057142061  0.28714019999474527  0.5538466377114375  1.0000
  H   H10       1.0  0.9734214049810743  0.26056253247684674  0.9461566775120858  1.0000
  H   H11       1.0  0.28714047606341353  0.02657418265820872  0.9461570466843269  1.0000
  H   H12       1.0  0.7394351821169565  0.7128586033998019  0.9461553793365096  1.0000
  H   H13       1.0  0.30464725302913115  0.16880394269744417  0.5260411286192976  1.0000
  H   H14       1.0  0.8311935818201377  0.135844957792088  0.5260378108449899  1.0000
  H   H15       1.0  0.864154938587859  0.6953498925356245  0.5260384685788324  1.0000
  H   H16       1.0  0.13584770779242214  0.8311927129148986  0.9739625866385353  1.0000
  H   H17       1.0  0.6953469846430169  0.8641540385225074  0.9739627844421932  1.0000
  H   H18       1.0  0.1688070706674624  0.30465069599885924  0.9739619063640461  1.0000
  H   H19       1.0  0.6953514996061405  0.8311964055782259  0.4739603890448478  1.0000
  H   H20       1.0  0.16880560195350824  0.8641549593420166  0.4739602408857095  1.0000
  H   H21       1.0  0.1358439295660219  0.3046488467122829  0.4739644354562244  1.0000
  H   H22       1.0  0.8641520226352739  0.1688051640563303  0.026038931021631094  1.0000
  H   H23       1.0  0.30465113675784755  0.13584395396946297  0.0260387332196572  1.0000
  H   H24       1.0  0.8311937221322766  0.6953491056161172  0.0260375317379768  1.0000
  H   H25       1.0  0.46261925363623396  0.25950849190872566  0.6314740625962258  1.0000
  H   H26       1.0  0.7404915674972229  0.20311258551070932  0.6314723405462814  1.0000
  H   H27       1.0  0.7968880032513113  0.5373778530069303  0.631472005147849  1.0000
  H   H28       1.0  0.20311509607296308  0.7404904412275499  0.8685252777697414  1.0000
  H   H29       1.0  0.5373776550438336  0.7968844672122091  0.8685250270291078  1.0000
  H   H30       1.0  0.2595069388363812  0.46261993027874854  0.868525574597207  1.0000
  H   H31       1.0  0.5373791833821998  0.7404906784742948  0.3685267618802754  1.0000
  H   H32       1.0  0.25951244335617196  0.7968869850627697  0.3685270975523665  1.0000
  H   H33       1.0  0.2031120427946861  0.4626212018537218  0.3685274329539681  1.0000
  H   H34       1.0  0.7968866745180988  0.2595068890854009  0.13147623988779597  1.0000
  H   H35       1.0  0.46262121311151105  0.2031142720324652  0.1314751042599482  1.0000
  H   H36       1.0  0.7404931072096159  0.5373791245819107  0.1314738635046098  1.0000
  H   H37       1.0  0.3958660339991695  0.31242006304828623  0.7051460530216644  1.0000
  H   H38       1.0  0.6875799374247294  0.08344634226064337  0.7051434119092832  1.0000
  H   H39       1.0  0.9165555231128905  0.6041329826623072  0.7051438340405268  1.0000
  H   H40       1.0  0.08344745501880617  0.6875772813718584  0.7948548523034944  1.0000
  H   H41       1.0  0.6041314338337711  0.9165533655998956  0.7948546355953282  1.0000
  H   H42       1.0  0.31241994007217505  0.3958664056047852  0.7948535803771718  1.0000
  H   H43       1.0  0.6041358211711555  0.6875816632136635  0.29485407826820886  1.0000
  H   H44       1.0  0.3124189307313473  0.9165523969824181  0.29485533300677247  1.0000
  H   H45       1.0  0.0834452696864858  0.39586681895347203  0.29485629724799617  1.0000
  H   H46       1.0  0.9165531376819729  0.3124197333243117  0.205146665354782  1.0000
  H   H47       1.0  0.3958668876653277  0.0834474138125003  0.205146188883262  1.0000
  H   H48       1.0  0.6875777501936113  0.6041320180214884  0.2051451645396227  1.0000
  H   H49       1.0  0.3231806590048904  0.3610107340834007  0.5832846888877298  1.0000
  H   H50       1.0  0.6389891559145013  0.9621702161115239  0.5832823542310238  1.0000
  H   H51       1.0  0.037830180665167766  0.6768205057416312  0.5832825785806008  1.0000
  H   H52       1.0  0.9621746208608002  0.638988702153263  0.9167168306380873  1.0000
  H   H53       1.0  0.6768147171670053  0.03782575380967066  0.9167170565617582  1.0000
  H   H54       1.0  0.3610101275749925  0.3231813909257752  0.9167149379096742  1.0000
  H   H55       1.0  0.6768204494113234  0.6389902454250347  0.4167161355884446  1.0000
  H   H56       1.0  0.3610112057487029  0.037830016640981484  0.4167170838719443  1.0000
  H   H57       1.0  0.9621702965162697  0.3231781179839147  0.41671893907977164  1.0000
  H   H58       1.0  0.037826718594089835  0.3610090592964141  0.083283993833895  1.0000
  H   H59       1.0  0.32318383537003825  0.9621718075455802  0.08328515428564738  1.0000
  H   H60       1.0  0.6389896028545365  0.6768164860414175  0.08328311381799128  1.0000
  C   C1        1.0  0.4461790209796704  0.2630088665339941  0.43185508650434196  1.0000
  C   C2        1.0  0.7369886353109861  0.18317177571550766  0.4318533231811301  1.0000
  C   C3        1.0  0.8168282664241813  0.5538178216415872  0.4318537033321306  1.0000
  C   C4        1.0  0.18317324493525416  0.7369882057122439  0.0681485905588843  1.0000
  C   C5        1.0  0.5538152512030194  0.8168267284968993  0.0681483338509565  1.0000
  C   C6        1.0  0.2630128625606217  0.4461826813969623  0.06814676942831  1.0000
  C   C7        1.0  0.5538201627928815  0.7369910506025336  0.568145044785858  1.0000
  C   C8        1.0  0.2630092550523032  0.8168294348328049  0.5681461149254048  1.0000
  C   C9        1.0  0.1831724108558532  0.4461835890035745  0.5681464279584816  1.0000
  C   C10       1.0  0.8168264854924344  0.2630096712589847  0.9318529271012892  1.0000
  C   C11       1.0  0.4461821234444656  0.18317051723995095  0.9318524906241946  1.0000
  C   C12       1.0  0.7369914639099875  0.5538180670683701  0.9318526686714889  1.0000
  C   C13       1.0  0.34874621017360846  0.25445501850035873  0.492808444680854  1.0000
  C   C14       1.0  0.7455430822267743  0.094291911669636  0.4928057876753939  1.0000
  C   C15       1.0  0.9057077115985662  0.6512520623394238  0.4928056272288898  1.0000
  C   C16       1.0  0.09429520916954451  0.7455409703794659  0.007194024490793498  1.0000
  C   C17       1.0  0.6512477630179204  0.9057063118160046  0.007194381449558298  1.0000
  C   C18       1.0  0.2544581675029604  0.34874894251158384  0.0071926890228582  1.0000
  C   C19       1.0  0.6512537203523154  0.7455456453912891  0.5071923797960523  1.0000
  C   C20       1.0  0.2544561015468715  0.9057080054644616  0.5071922640553055  1.0000
  C   C21       1.0  0.09429221892735747  0.34874860155222365  0.5071951972480164  1.0000
  C   C22       1.0  0.9057046367774858  0.2544552975623802  0.9928074931672768  1.0000
  C   C23       1.0  0.34875035838294366  0.09429168067596555  0.9928071362122922  1.0000
  C   C24       1.0  0.7455434875702309  0.6512499968275166  0.9928060558907674  1.0000
  C   C25       1.0  0.4485075088149556  0.33284689950093593  0.641993271615469  1.0000
  C   C26       1.0  0.6671536433612529  0.11566091567188859  0.6419907150233115  1.0000
  C   C27       1.0  0.8843395801808144  0.5514922143833235  0.6419910439070335  1.0000
  C   C28       1.0  0.11566318160031838  0.6671512872202285  0.8580075524189182  1.0000
  C   C29       1.0  0.5514904460228962  0.8843362759682307  0.8580080956619651  1.0000
  C   C30       1.0  0.33284564786373494  0.4485076699121252  0.8580063818061276  1.0000
  C   C31       1.0  0.5514935996016275  0.6671540800066894  0.3580068596742052  1.0000
  C   C32       1.0  0.33284832732950764  0.8843392015582554  0.358007336704965  1.0000
  C   C33       1.0  0.11566078148165104  0.4485080183707952  0.35800978056892757  1.0000
  C   C34       1.0  0.8843369799639192  0.33284615861347094  0.1419939652403031  1.0000
  C   C35       1.0  0.44850916888545816  0.11566321003237336  0.1419934220002901  1.0000
  C   C36       1.0  0.6671543981829944  0.5514913849469141  0.1419916699226889  1.0000
  C   C37       1.0  0.5655981234987522  0.4385832060511421  0.6606913023804636  1.0000
  C   C38       1.0  0.5614194463674949  0.12701749747400026  0.660690229347999  1.0000
  C   C39       1.0  0.8729860043500891  0.43440398742112046  0.6606896163860725  1.0000
  C   C40       1.0  0.12702103120508917  0.5614200103893908  0.8392996939975674  1.0000
  C   C41       1.0  0.43439855927006477  0.8729746307342481  0.8393025561163013  1.0000
  C   C42       1.0  0.43857747439896855  0.5655982863438852  0.8393007870521955  1.0000
  C   C43       1.0  0.4344050250819294  0.5614172267965928  0.3393074425335739  1.0000
  C   C44       1.0  0.438584964683102  0.8729876469387039  0.3393064360111352  1.0000
  C   C45       1.0  0.12701478844928737  0.5655958141946587  0.3393105149024507  1.0000
  C   C46       1.0  0.8729775213330484  0.4385775509634372  0.1607004372903376  1.0000
  C   C47       1.0  0.5655992465135995  0.1270221838658828  0.16069896154439792  1.0000
  C   C48       1.0  0.5614225716473911  0.43440076851596393  0.16069795786311397  1.0000
  N   N1        1.0  0.38961378800360796  0.3479076856778037  0.5612641535365269  1.0000
  N   N2        1.0  0.6520918639374356  0.04170650859719418  0.5612614452873289  1.0000
  N   N3        1.0  0.9582931682038806  0.6103860998268121  0.5612611593784251  1.0000
  N   N4        1.0  0.04170967428888852  0.6520903394874366  0.9387381841361488  1.0000
  N   N5        1.0  0.6103823091753569  0.9582905301172462  0.9387380165957565  1.0000
  N   N6        1.0  0.3479083419606183  0.3896149612277214  0.9387361810600368  1.0000
  N   N7        1.0  0.6103868892760647  0.6520937249681612  0.4387366709405924  1.0000
  N   N8        1.0  0.3479081821089307  0.9582925462626477  0.4387372996279808  1.0000
  N   N9        1.0  0.041706446705205714  0.38961338617217933  0.43873897191083694  1.0000
  N   N10       1.0  0.9582909184118902  0.3479066752087336  0.06126333352213459  1.0000
  N   N11       1.0  0.3896165589792561  0.041708209129041156  0.061263501066299894  1.0000
  N   N12       1.0  0.6520921352226524  0.6103836624937886  0.0612618706678347  1.0000
  O   O1        1.0  0.5449358978261925  0.3545279003224522  0.43938865553748485  1.0000
  O   O2        1.0  0.6454701869610276  0.19040869522608977  0.4393883570323496  1.0000
  O   O3        1.0  0.8095918661492975  0.45506134801383524  0.4393885258586181  1.0000
  O   O4        1.0  0.19040838493821613  0.645465326576833  0.0606142267958703  1.0000
  O   O5        1.0  0.4550580560645158  0.8095912502012936  0.0606134822824842  1.0000
  O   O6        1.0  0.3545341828844712  0.5449402657432928  0.0606118661596113  1.0000
  O   O7        1.0  0.45506371708289367  0.6454715856765392  0.5606114757517702  1.0000
  O   O8        1.0  0.3545273877839604  0.8095913374327993  0.5606131606325349  1.0000
  O   O9        1.0  0.19040924226691652  0.5449396314945999  0.5606122986175491  1.0000
  O   O10       1.0  0.8095920922432214  0.35453329714871273  0.939387290864502  1.0000
  O   O11       1.0  0.5449404964739842  0.19040631115072432  0.9393859558189206  1.0000
  O   O12       1.0  0.6454695123517241  0.45505812693834025  0.9393875719378926  1.0000
  O   O13       1.0  0.42617242667281363  0.18246791260036593  0.37609023202546144  1.0000
  O   O14       1.0  0.817530684759788  0.2437064393693192  0.3760885461834959  1.0000
  O   O15       1.0  0.7562918372947252  0.5738219924035306  0.37608970473830544  1.0000
  O   O16       1.0  0.2437046104702033  0.8175262026515497  0.12391201983904658  1.0000
  O   O17       1.0  0.5738203273821652  0.7562937606090898  0.1239109349686629  1.0000
  O   O18       1.0  0.18247397668434231  0.42617721597956415  0.1239109031684009  1.0000
  O   O19       1.0  0.5738267570993612  0.8175320045369645  0.6239105924512387  1.0000
  O   O20       1.0  0.18246752122070123  0.7562959490708394  0.6239108919241829  1.0000
  O   O21       1.0  0.24370616858680452  0.4261776091178221  0.623911812925641  1.0000
  O   O22       1.0  0.7562942576844093  0.18247253659473742  0.8760894978230098  1.0000
  O   O23       1.0  0.4261763005119406  0.2437027383726402  0.8760891963197749  1.0000
  O   O24       1.0  0.8175306654030976  0.5738247103784178  0.8760892281190493  1.0000
  O   O25       1.0  0.6030828346206291  0.5244966320294823  0.6055428406967849  1.0000
  O   O26       1.0  0.47550574606929524  0.0785901554889462  0.6055410271836195  1.0000
  O   O27       1.0  0.9214143341808738  0.3969169639520659  0.6055396058161833  1.0000
  O   O28       1.0  0.07858764311806968  0.47550188581465147  0.894459950334621  1.0000
  O   O29       1.0  0.3969104874230283  0.9214027828479773  0.8944643538555822  1.0000
  O   O30       1.0  0.5244956597947663  0.6030826776257997  0.894458987155069  1.0000
  O   O31       1.0  0.3969175270422056  0.4755036007238261  0.3944572905926762  1.0000
  O   O32       1.0  0.5244968558558722  0.9214123175248902  0.3944570245469521  1.0000
  O   O33       1.0  0.07858634309953073  0.6030844466922859  0.3944598322879287  1.0000
  O   O34       1.0  0.9214124029268264  0.5244971690484237  0.1055415673266964  1.0000
  O   O35       1.0  0.6030844468635267  0.07858943570872873  0.1055399365482117  1.0000
  O   O36       1.0  0.4755037550175559  0.39691402144954685  0.10553906457144538  1.0000
  O   O37       1.0  0.6228426871349059  0.43737952234764776  0.729798474241207  1.0000
  O   O38       1.0  0.5626230083723058  0.18546326364888452  0.7297989147562518  1.0000
  O   O39       1.0  0.8145385468714252  0.37715688822560633  0.7297982164053777  1.0000
  O   O40       1.0  0.18545641042938132  0.5626158178945673  0.7702021159186287  1.0000
  O   O41       1.0  0.3771600734280015  0.8145408717997001  0.7702029358278963  1.0000
  O   O42       1.0  0.4373808906314807  0.6228387832268397  0.7702026419602888  1.0000
  O   O43       1.0  0.3771630482661336  0.5626183236724742  0.27019819110766713  1.0000
  O   O44       1.0  0.4373832118033502  0.8145445521634899  0.2701970574179384  1.0000
  O   O45       1.0  0.18546460170779266  0.6228435446253614  0.27020330125466063  1.0000
  O   O46       1.0  0.8145409642184732  0.4373814278414729  0.2297980153700152  1.0000
  O   O47       1.0  0.6228380479728628  0.18545712069227707  0.22979858183395405  1.0000
  O   O48       1.0  0.5626179775249582  0.37715995601541163  0.22979540976926668  1.0000
