data_image0
_chemical_formula_structural       Cd4H32C56S12O4F32
_chemical_formula_sum              "Cd4 H32 C56 S12 O4 F32"
_cell_length_a       7.514108991
_cell_length_b       9.044336415126333
_cell_length_c       26.3233
_cell_angle_alpha    90.0
_cell_angle_beta     90.0
_cell_angle_gamma    99.5584419098744

_space_group_name_H-M_alt    "P 1"
_space_group_IT_number       1

loop_
  _space_group_symop_operation_xyz
  'x, y, z'

loop_
  _atom_site_type_symbol
  _atom_site_label
  _atom_site_symmetry_multiplicity
  _atom_site_fract_x
  _atom_site_fract_y
  _atom_site_fract_z
  _atom_site_occupancy
  Cd  Cd1       1.0  0.23275964394086665  0.9607264819347138  0.4894728244559018  1.0000
  Cd  Cd2       1.0  0.2672421780515037  0.5392749417479054  0.9894713048895837  1.0000
  Cd  Cd3       1.0  0.7672383308714857  0.0392733459563814  0.5105279353272607  1.0000
  Cd  Cd4       1.0  0.7327617923806502  0.46072824983513533  0.0105271755440981  1.0000
  H   H1        1.0  0.25377317849129355  0.48861886223885886  0.5065584482188754  1.0000
  H   H2        1.0  0.24622214569009065  0.0113793698607196  0.0065584482188754  1.0000
  H   H3        1.0  0.7462241240203653  0.5113776019602909  0.4934415517811245  1.0000
  H   H4        1.0  0.7537729433624705  0.9886193367997295  0.9934419316726988  1.0000
  H   H5        1.0  0.3013767179845389  0.386975940179191  0.4513035979531422  1.0000
  H   H6        1.0  0.19862016112685413  0.11302341315103351  0.9513039778447236  1.0000
  H   H7        1.0  0.6986210327275801  0.613022766481258  0.548695642263695  1.0000
  H   H8        1.0  0.8013764828557158  0.8869764147400616  0.0486964020468577  1.0000
  H   H9        1.0  0.07359903975530811  0.4183132155991487  0.4630999912624957  1.0000
  H   H10       1.0  0.4263978393560849  0.0816861377310758  0.9630999912624956  1.0000
  H   H11       1.0  0.9263982627563508  0.581683248600001  0.5369000087375042  1.0000
  H   H12       1.0  0.5735976978969362  0.9183148113906724  0.0369007685206668  1.0000
  H   H13       1.0  0.044123769398339605  0.5286972518015034  0.3741377410886954  1.0000
  H   H14       1.0  0.4558722948460598  0.971308656803707  0.8741381209802697  1.0000
  H   H15       1.0  0.9558706611251324  0.471304818550891  0.6258618790197303  1.0000
  H   H16       1.0  0.5441241388078881  0.028696777240632805  0.1258622589113045  1.0000
  H   H17       1.0  0.26711547572439553  0.49417568133726064  0.3574187126993991  1.0000
  H   H18       1.0  0.23288096895814192  0.005828156915555401  0.8574190925909732  1.0000
  H   H19       1.0  0.7328816164586416  0.5058263890151338  0.6425809074090267  1.0000
  H   H20       1.0  0.7671165714253478  0.9941761558981314  0.1425812873006009  1.0000
  H   H21       1.0  0.20795155856305317  0.6762624175684735  0.3470776840289815  1.0000
  H   H22       1.0  0.29204561241089527  0.8237423698060908  0.8470769242458187  1.0000
  H   H23       1.0  0.7920442027902013  0.3237396527839209  0.6529223159710182  1.0000
  H   H24       1.0  0.7079521520728278  0.176263064238249  0.15292231597101844  1.0000
  H   H25       1.0  0.7336679630993928  0.7241770881397543  0.2652486580329949  1.0000
  H   H26       1.0  0.7663297765841367  0.7758232143122187  0.7652478982498392  1.0000
  H   H27       1.0  0.26633200107181665  0.2758193760593954  0.7347528615333161  1.0000
  H   H28       1.0  0.23368041356805241  0.2241844621934277  0.23475362131647864  1.0000
  H   H29       1.0  0.6643072541968494  0.19332707349140324  0.2564454304741446  1.0000
  H   H30       1.0  0.8356930931555129  0.3066756435307667  0.756443151124671  1.0000
  H   H31       1.0  0.3356918273450447  0.8066716331690388  0.743555329309018  1.0000
  H   H32       1.0  0.16430731921616373  0.6933230631296824  0.24355570920059216  1.0000
  C   C1        1.0  0.5074593282758073  0.0724673793317407  0.3169541812766639  1.0000
  C   C2        1.0  0.9925430084354192  0.4275319739984766  0.8169522818187714  1.0000
  C   C3        1.0  0.49254552478566194  0.9275335697900005  0.683047338289654  1.0000
  C   C4        1.0  0.007457614264879491  0.5724611265087205  0.1830469583980729  1.0000
  C   C5        1.0  0.5483724197334753  0.1747785548584488  0.4029361820136542  1.0000
  C   C6        1.0  0.9516303651782112  0.325223040933068  0.9029346624473361  1.0000
  C   C7        1.0  0.4516277823095721  0.8252257579552378  0.597064197877927  1.0000
  C   C8        1.0  0.04837203655232259  0.6747723020354286  0.0970645777695012  1.0000
  C   C9        1.0  0.9716084159999242  0.0105014462622393  0.3345424015985827  1.0000
  C   C10       1.0  0.5283965823708598  0.4894979070679852  0.834542781490164  1.0000
  C   C11       1.0  0.028391996371745193  0.9894972603982027  0.665457598401417  1.0000
  C   C12       1.0  0.471608046590383  0.5105019208231099  0.165455698943525  1.0000
  C   C13       1.0  0.9159411618902169  0.9692029856441451  0.3842622315591129  1.0000
  C   C14       1.0  0.5840672244315359  0.5307973168078277  0.8842622315591127  1.0000
  C   C15       1.0  0.08406146394055722  0.0307934785550046  0.6157385282240426  1.0000
  C   C16       1.0  0.4159347428701424  0.4692025110832745  0.1157366287661503  1.0000
  C   C17       1.0  0.4676786427143399  0.0656581455979648  0.3685248430098085  1.0000
  C   C18       1.0  0.0323275522055013  0.4343412077322597  0.8685229435519091  1.0000
  C   C19       1.0  0.5323246554171206  0.9343416822931302  0.6314762966649283  1.0000
  C   C20       1.0  0.9676786179141389  0.5656530140055906  0.1314759167733541  1.0000
  C   C21       1.0  0.7948914300510524  0.8338155059602599  0.3890879942864274  1.0000
  C   C22       1.0  0.7051120811520449  0.6661870389530051  0.8890876143948532  1.0000
  C   C23       1.0  0.20510875822039054  0.1661820794695359  0.6109127654967279  1.0000
  C   C24       1.0  0.2948887931916958  0.333820637552634  0.1109108660388358  1.0000
  C   C25       1.0  0.21730389141058742  0.4647254371002346  0.4667632857582474  1.0000
  C   C26       1.0  0.2826929877008056  0.0352739162299898  0.9667636656498217  1.0000
  C   C27       1.0  0.7826938593015315  0.5352732695602143  0.5332363343501783  1.0000
  C   C28       1.0  0.7173023254519892  0.9647259116611054  0.0332367142417525  1.0000
  C   C29       1.0  0.7312520040676916  0.7479852997490184  0.34696409644687515  1.0000
  C   C30       1.0  0.768745301186982  0.7520194876255459  0.8469637165552937  1.0000
  C   C31       1.0  0.2687441917144185  0.2520122856807774  0.6530381829025984  1.0000
  C   C32       1.0  0.23125047393787673  0.24798931011074637  0.1530374231194429  1.0000
  C   C33       1.0  0.6752798906069445  0.2902742815914081  0.38192627824019343  1.0000
  C   C34       1.0  0.8247180191860937  0.209729556661415  0.8819255184570308  1.0000
  C   C35       1.0  0.32471631894676994  0.7097300312222856  0.6180737217598065  1.0000
  C   C36       1.0  0.17527995562625162  0.7902702712296801  0.1180744815429691  1.0000
  C   C37       1.0  0.6319736016376967  0.1880012279067742  0.296727993830558  1.0000
  C   C38       1.0  0.868029183273997  0.3120003678847425  0.796726474264247  1.0000
  C   C39       1.0  0.3680270348342063  0.8119985999843209  0.7032727659525972  1.0000
  C   C40       1.0  0.1319707808972197  0.6879960963144001  0.203273525735753  1.0000
  C   C41       1.0  0.7154863302629197  0.2962706231043768  0.3303434599765254  1.0000
  C   C42       1.0  0.7845124621594338  0.203730972687147  0.830341940410207  1.0000
  C   C43       1.0  0.28451497850967666  0.7037325684786708  0.6696565400234746  1.0000
  C   C44       1.0  0.21548107196311866  0.7962666127426488  0.1696576796982114  1.0000
  C   C45       1.0  0.18737924755777163  0.5767363789748643  0.371516109302405  1.0000
  C   C46       1.0  0.31261659258639446  0.9232684083996999  0.8715161093024049  1.0000
  C   C47       1.0  0.8126149588654741  0.4232645701468769  0.6284838906975948  1.0000
  C   C48       1.0  0.6873798410675535  0.0767370256446398  0.1284838906975949  1.0000
  C   C49       1.0  0.9082529589353358  0.9234791997617862  0.29265099740533873  1.0000
  C   C50       1.0  0.5917501040673019  0.5765211026901796  0.7926509974053388  1.0000
  C   C51       1.0  0.0917430127465408  0.0765172644373635  0.7073493824862352  1.0000
  C   C52       1.0  0.408255631623483  0.4234776039702624  0.20735052216097213  1.0000
  C   C53       1.0  0.7870075913945203  0.7905819733502142  0.2979744181010773  1.0000
  C   C54       1.0  0.7129883830303783  0.7094228140243501  0.7979736583179144  1.0000
  C   C55       1.0  0.21298506009871696  0.2094178545408809  0.702025961790504  1.0000
  C   C56       1.0  0.2870156011733798  0.2905871049425883  0.2020240623326117  1.0000
  S   S1        1.0  0.5016829712119631  0.1744791862750645  0.467860412638231  1.0000
  S   S2        1.0  0.9983187069701814  0.3255235307471054  0.9678596528550756  1.0000
  S   S3        1.0  0.4983110111110492  0.8255206416160306  0.5321395873617689  1.0000
  S   S4        1.0  0.0016879251215299648  0.6744796608359351  0.0321399672533431  1.0000
  S   S5        1.0  0.9921864581844774  0.0881231228892574  0.4349192540448925  1.0000
  S   S6        1.0  0.5078214259460909  0.4118773516716203  0.9349192540448923  1.0000
  S   S7        1.0  0.007815060916740857  0.9118744625405384  0.5650811258466817  1.0000
  S   S8        1.0  0.4921827548146852  0.5881202337581827  0.06507960628037068  1.0000
  S   S9        1.0  0.26779061388909053  0.6388065864947592  0.433420581765965  1.0000
  S   S10       1.0  0.23220832234348884  0.8611937159572065  0.9334198219828094  1.0000
  S   S11       1.0  0.7322086917530372  0.3611932413963359  0.5665797981256162  1.0000
  S   S12       1.0  0.7677912073988723  0.1388072331645418  0.0665794182340349  1.0000
  O   O1        1.0  0.1276129198841431  0.7323912238772223  0.4521549349815571  1.0000
  O   O2        1.0  0.37238890210822734  0.7676101998053895  0.9521526556320834  1.0000
  O   O3        1.0  0.8723877165877668  0.2676086040138728  0.5478469644763351  1.0000
  O   O4        1.0  0.627613513393918  0.2323918705469978  0.0478450650184428  1.0000
  F   F1        1.0  0.7626187874030992  0.39920968779474464  0.41270167494197096  1.0000
  F   F2        1.0  0.7373735887422087  0.1007997566113232  0.9127012950503897  1.0000
  F   F3        1.0  0.23737565689199164  0.6007991099415477  0.5872971853832922  1.0000
  F   F4        1.0  0.2626208417812705  0.8992023137410712  0.087298325058029  1.0000
  F   F5        1.0  0.3475321177368755  0.946286152401143  0.3852814806654195  1.0000
  F   F6        1.0  0.15248211615235624  0.5537107863588773  0.8852776817496276  1.0000
  F   F7        1.0  0.6524789412730243  0.0537125542592989  0.6147192791177429  1.0000
  F   F8        1.0  0.8475264915266154  0.44628231414832703  0.11471851933458047  1.0000
  F   F9        1.0  0.08710574784144143  0.1407749929542277  0.32639638647130187  1.0000
  F   F10       1.0  0.4129075356561388  0.3592198754533982  0.8263971462544573  1.0000
  F   F11       1.0  0.9129028736091345  0.8592248349368674  0.6736043733118534  1.0000
  F   F12       1.0  0.5871075020714828  0.6407721038231529  0.17360057439606888  1.0000
  F   F13       1.0  0.6094578527276511  0.6208119558026084  0.354134170107848  1.0000
  F   F14       1.0  0.8905409936854269  0.8791872254187112  0.8541326505415369  1.0000
  F   F15       1.0  0.3905454316322051  0.3791811447045887  0.6458654500005706  1.0000
  F   F16       1.0  0.10945078895010601  0.1208215723175812  0.1458669695668888  1.0000
  F   F17       1.0  0.7336505091021908  0.7857539541739129  0.43569803178172606  1.0000
  F   F18       1.0  0.7663561119609313  0.7142508332006514  0.9356972719985703  1.0000
  F   F19       1.0  0.2663483483394771  0.2142436312558829  0.5643027280014294  1.0000
  F   F20       1.0  0.23364120432233196  0.2857523583823891  0.0643015883266926  1.0000
  F   F21       1.0  0.8404176127942194  0.4102952952253176  0.3128338772114461  1.0000
  F   F22       1.0  0.6595738669501614  0.0897096642581516  0.8128338772114458  1.0000
  F   F23       1.0  0.1595872402672498  0.5897056538964236  0.6871672624632907  1.0000
  F   F24       1.0  0.34041124776486953  0.9102924060942428  0.1871684021380275  1.0000
  F   F25       1.0  0.4226912091413197  0.9616896190625397  0.2864420494390885  1.0000
  F   F26       1.0  0.07731393303969014  0.5383084409281268  0.7864401499811959  1.0000
  F   F27       1.0  0.5773171882090226  0.0383090875979022  0.7135590902356483  1.0000
  F   F28       1.0  0.9226833694719618  0.46168802327102304  0.2135590902356483  1.0000
  F   F29       1.0  0.9630543025952536  0.9735331784121115  0.24546048557741776  1.0000
  F   F30       1.0  0.5369476399062381  0.5264615178866094  0.7454604855774178  1.0000
  F   F31       1.0  0.0369458719045852  0.0264576796337934  0.7545395144225822  1.0000
  F   F32       1.0  0.46307496214281235  0.473541673696431  0.2545379948562712  1.0000
