data_image0
_chemical_formula_structural       Ag6H60C30S12N6
_chemical_formula_sum              "Ag6 H60 C30 S12 N6"
_cell_length_a       9.460639575
_cell_length_b       10.189000203381894
_cell_length_c       14.245
_cell_angle_alpha    103.58363889987307
_cell_angle_beta     90.0
_cell_angle_gamma    117.66226716204399

_space_group_name_H-M_alt    "P 1"
_space_group_IT_number       1

loop_
  _space_group_symop_operation_xyz
  'x, y, z'

loop_
  _atom_site_type_symbol
  _atom_site_label
  _atom_site_symmetry_multiplicity
  _atom_site_fract_x
  _atom_site_fract_y
  _atom_site_fract_z
  _atom_site_occupancy
  Ag  Ag1       1.0  0.84879089132901  0.96528175040482  0.9519945955479087  1.0000
  Ag  Ag2       1.0  0.8836222718357617  0.0349429550340403  0.5481242340751038  1.0000
  Ag  Ag3       1.0  0.1512119489570338  0.03471885122770858  0.048005154520723195  1.0000
  Ag  Ag4       1.0  0.11638114307710623  0.9650587958487691  0.451878517060301  1.0000
  Ag  Ag5       1.0  0.9305763851002665  0.9998592438469913  0.24995353917861252  1.0000
  Ag  Ag6       1.0  0.0694285692077585  0.0001413577855374  0.7500476148914216  1.0000
  H   H1        1.0  0.9333748411966241  0.5363666023331104  0.0620402985057353  1.0000
  H   H2        1.0  0.3968242839541815  0.46347080575839067  0.4380296145776085  1.0000
  H   H3        1.0  0.06662627520894662  0.4636305515485475  0.9379574683696033  1.0000
  H   H4        1.0  0.6031749029147235  0.5365309451244258  0.5619731365577962  1.0000
  H   H5        1.0  0.7765732896335037  0.4112373801278294  0.11663007679565847  1.0000
  H   H6        1.0  0.3651472829158138  0.5885666997052965  0.38340334940184556  1.0000
  H   H7        1.0  0.2234284013988983  0.5887609230041164  0.8833692871450439  1.0000
  H   H8        1.0  0.6348523863372648  0.4114339019272322  0.6165978046681956  1.0000
  H   H9        1.0  0.7753026944778368  0.27448578975089066  0.94512068107241  1.0000
  H   H10       1.0  0.5005862125258602  0.7253136930810768  0.554936542893806  1.0000
  H   H11       1.0  0.22469899655455794  0.725512513381062  0.0548786828682921  1.0000
  H   H12       1.0  0.49940874629908893  0.2746880578017397  0.4450648042401966  1.0000
  H   H13       1.0  0.5959097752879784  0.29135103774051874  0.9552153900034668  1.0000
  H   H14       1.0  0.30438138649358126  0.7085277433613866  0.544780041301145  1.0000
  H   H15       1.0  0.4040919157444165  0.7086472653914342  0.044783271936538034  1.0000
  H   H16       1.0  0.6956129977045435  0.2914728582711419  0.455219708767487  1.0000
  H   H17       1.0  0.7573647443609061  0.41741345118038703  0.9023625832323958  1.0000
  H   H18       1.0  0.3396280679202519  0.5824216584105386  0.597663419679499  1.0000
  H   H19       1.0  0.24263588966050514  0.5825848519515657  0.09763467470620665  1.0000
  H   H20       1.0  0.6603685225425124  0.4175812417225657  0.4023381205184648  1.0000
  H   H21       1.0  0.525531923141763  0.5845270849398077  0.1117538625980288  1.0000
  H   H22       1.0  0.9408645302975883  0.4154126064274095  0.38839500923987197  1.0000
  H   H23       1.0  0.47447427266256165  0.4154781136938722  0.8882445537243554  1.0000
  H   H24       1.0  0.05913552909699859  0.5845845474542486  0.611606267638976  1.0000
  H   H25       1.0  0.5200766471330097  0.40472572799091466  0.10004161688190288  1.0000
  H   H26       1.0  0.11529301951740221  0.5951220233531842  0.4000300337771136  1.0000
  H   H27       1.0  0.47992791703349974  0.5952783213924773  0.8999587123786198  1.0000
  H   H28       1.0  0.8847054082393768  0.4048739812781861  0.5999696460363637  1.0000
  H   H29       1.0  0.5208508802880161  0.5213654383120812  0.2737518948172095  1.0000
  H   H30       1.0  0.9992051110648318  0.4784650742776861  0.2263709139364067  1.0000
  H   H31       1.0  0.47915166209917004  0.4786409095718867  0.7262467145691359  1.0000
  H   H32       1.0  0.0007950405724059396  0.5215343781045474  0.7736293450689686  1.0000
  H   H33       1.0  0.7072812056677265  0.5219320187045113  0.2610327545370694  1.0000
  H   H34       1.0  0.1850041533717786  0.4777755241043451  0.2389935802966008  1.0000
  H   H35       1.0  0.29272076209264236  0.47807317992916853  0.7389684697881194  1.0000
  H   H36       1.0  0.8149949412544756  0.5222239282778887  0.7610080827101766  1.0000
  H   H37       1.0  0.6980407159889097  0.6944735615784123  0.2718722035403189  1.0000
  H   H38       1.0  0.0031710513449923036  0.3053040854980651  0.22822206825130556  1.0000
  H   H39       1.0  0.3019623087824428  0.3055316370552674  0.7281269147827699  1.0000
  H   H40       1.0  0.9968291002922526  0.6946953668841687  0.7717781907540625  1.0000
  H   H41       1.0  0.518222658455322  0.8645580073346437  0.22780958729954648  1.0000
  H   H42       1.0  0.6536090542155008  0.13491853616613975  0.272029117528561  1.0000
  H   H43       1.0  0.48178296272217835  0.1354460420487484  0.772189337959574  1.0000
  H   H44       1.0  0.34638831653028035  0.8650774684652305  0.727967052281407  1.0000
  H   H45       1.0  0.3122443440458652  0.7684048326634281  0.24617196621500168  1.0000
  H   H46       1.0  0.5440513952098699  0.23143487392864867  0.2539888910868271  1.0000
  H   H47       1.0  0.6877621496573169  0.23159461971880546  0.7538282927903663  1.0000
  H   H48       1.0  0.4559449185249278  0.7685611307027216  0.7460107887266572  1.0000
  H   H49       1.0  0.5055167255078173  0.820885347106106  0.3923711735073425  1.0000
  H   H50       1.0  0.6842877669044469  0.17897044899001455  0.10757476647236068  1.0000
  H   H51       1.0  0.4944866894050506  0.1791164037767103  0.6076280676245529  1.0000
  H   H52       1.0  0.31570344626071284  0.8210301526425069  0.8924228775941643  1.0000
  H   H53       1.0  0.37848508288853105  0.9065895381506335  0.4213745521536153  1.0000
  H   H54       1.0  0.4715278057219122  0.09340876498131927  0.07870624386851689  1.0000
  H   H55       1.0  0.6215167003865218  0.093411063481895  0.5786251979150164  1.0000
  H   H56       1.0  0.5284629250590811  0.9065929859014971  0.9212922952626739  1.0000
  H   H57       1.0  0.5830541204488142  0.0200038505286173  0.40622042221479393  1.0000
  H   H58       1.0  0.5626790366907598  0.9798703335721299  0.09363945269917916  1.0000
  H   H59       1.0  0.4169476628262386  0.9799967511039113  0.5937793278538378  1.0000
  H   H60       1.0  0.4373121764743999  0.0201302680603916  0.9063560853652459  1.0000
  C   C1        1.0  0.809670641882974  0.7133201170661039  0.0575338719791674  1.0000
  C   C2        1.0  0.0961818932512131  0.2864115599988182  0.4424024491036675  1.0000
  C   C3        1.0  0.19033968972264856  0.2866827830670004  0.9424655622166894  1.0000
  C   C4        1.0  0.9038219118031704  0.7135867431331278  0.5575976168377395  1.0000
  C   C5        1.0  0.26324666435102256  0.9999488853695268  0.2499882541874499  1.0000
  C   C6        1.0  0.7367469607349761  4.5970011555599985e-05  0.7500147425655754  1.0000
  C   C7        1.0  0.8023049181915171  0.4702559794640635  0.05847518552592131  1.0000
  C   C8        1.0  0.331851775958441  0.5295503988696382  0.4415607328016121  1.0000
  C   C9        1.0  0.19769734746770953  0.5297434729181703  0.9415222654766424  1.0000
  C   C10       1.0  0.668148467921455  0.4704513520131783  0.5584413163330879  1.0000
  C   C11       1.0  0.7274866326457001  0.3560549782559476  0.9593409634882945  1.0000
  C   C12       1.0  0.37120371811396063  0.6437927730881581  0.5406983951384348  1.0000
  C   C13       1.0  0.272511795111079  0.6439410263754226  0.04065941832588753  1.0000
  C   C14       1.0  0.6287944117439609  0.3562089777946582  0.4593029519955678  1.0000
  C   C15       1.0  0.5933966396508551  0.529673368650549  0.13066738573174058  1.0000
  C   C16       1.0  0.06355528304266758  0.47016633794152796  0.3694204634970788  1.0000
  C   C17       1.0  0.4066079245156545  0.4703306807328431  0.8693315395273797  1.0000
  C   C18       1.0  0.9364432369567623  0.5298319651904178  0.6305803044450329  1.0000
  C   C19       1.0  0.6323302090983205  0.5694879956592445  0.24059141493102487  1.0000
  C   C20       1.0  0.06254245767438249  0.4302976961692551  0.2594803402844761  1.0000
  C   C21       1.0  0.36767339029985646  0.43051835222472323  0.7594071944553276  1.0000
  C   C22       1.0  0.9374576939628625  0.5697017562129787  0.7405206207215967  1.0000
  C   C23       1.0  0.42610498204238195  0.8751931695081365  0.27121712084197463  1.0000
  C   C24       1.0  0.5508470071698568  0.12454195530765588  0.22878295949593758  1.0000
  C   C25       1.0  0.5738882529021012  0.12480513362380918  0.7287836471001368  1.0000
  C   C26       1.0  0.449143148984305  0.8754586463248726  0.7712139825698896  1.0000
  C   C27       1.0  0.4759415127326037  0.9076698334221972  0.37910324182685423  1.0000
  C   C28       1.0  0.5679574107107682  0.09218596267392337  0.12085393016408828  1.0000
  C   C29       1.0  0.5240608451692736  0.0923319174606192  0.620896701305746  1.0000
  C   C30       1.0  0.43203150394710116  0.9078100419574466  0.8791429416465844  1.0000
  S   S1        1.0  0.7386913332558366  0.8456723773371309  0.09513749368205995  1.0000
  S   S2        1.0  0.8928706406439844  0.154060448978079  0.4047175883833134  1.0000
  S   S3        1.0  0.2613189983497861  0.1543305227959735  0.9048626425145014  1.0000
  S   S4        1.0  0.10713258978356777  0.8459367049035791  0.5952843904962393  1.0000
  S   S5        1.0  0.09497077246376763  0.8486006670732493  0.275220856253398  1.0000
  S   S6        1.0  0.2464067811656605  0.1512907557818295  0.2246910546691723  1.0000
  S   S7        1.0  0.905029677072335  0.1513930390575382  0.7247833514370683  1.0000
  S   S8        1.0  0.7535836728873662  0.848704099599253  0.7753126440845577  1.0000
  S   S9        1.0  0.962662787802891  0.7503351703710378  0.9864203807952876  1.0000
  S   S10       1.0  0.21214910912652127  0.2493769694389769  0.5135203802078934  1.0000
  S   S11       1.0  0.03734850857107121  0.2496654312614908  0.013582879276860613  1.0000
  S   S12       1.0  0.7878559374241546  0.7506259306941272  0.4864804579893728  1.0000
  N   N1        1.0  0.7389438665931108  0.579545084937422  0.0816098050075951  1.0000
  N   N2        1.0  0.15922190769803277  0.4202348606396383  0.4184188648459681  1.0000
  N   N3        1.0  0.26106099547225625  0.4204532181945311  0.9183902609338119  1.0000
  N   N4        1.0  0.8407798755770202  0.5797657409928902  0.5815815872233685  1.0000
  N   N5        1.0  0.4048025121248243  0.9999063631088347  0.2500148068544874  1.0000
  N   N6        1.0  0.5952001436759105  8.96415225355e-05  0.7499862769603991  1.0000
