data_image0
_chemical_formula_structural       Sr4H40C32O16
_chemical_formula_sum              "Sr4 H40 C32 O16"
_cell_length_a       7.062375656001954
_cell_length_b       10.000067481078986
_cell_length_c       13.3919370706099
_cell_angle_alpha    107.60964179833839
_cell_angle_beta     90.00007065197487
_cell_angle_gamma    89.99993296746818

_space_group_name_H-M_alt    "P 1"
_space_group_IT_number       1

loop_
  _space_group_symop_operation_xyz
  'x, y, z'

loop_
  _atom_site_type_symbol
  _atom_site_label
  _atom_site_symmetry_multiplicity
  _atom_site_fract_x
  _atom_site_fract_y
  _atom_site_fract_z
  _atom_site_occupancy
  Sr  Sr1       1.0  0.5112150067181743  0.31074183298895247  0.5122097205318215  1.0000
  Sr  Sr2       1.0  0.011214771265258598  0.18925887257610438  0.4877907400087481  1.0000
  Sr  Sr3       1.0  0.4887873668464024  0.6892598994848598  0.48779207364354  1.0000
  Sr  Sr4       1.0  0.988786186344349  0.8107397094115709  0.5122081044458683  1.0000
  H   H1        1.0  0.1635765811006564  0.5284664606878309  0.2850114404521378  1.0000
  H   H2        1.0  0.6635770250703955  0.9715333486340041  0.7149878251285601  1.0000
  H   H3        1.0  0.836425792461611  0.47153316945022544  0.7149868933533484  1.0000
  H   H4        1.0  0.33642251658769606  0.028465236371175696  0.28501326016014167  1.0000
  H   H5        1.0  0.8630550883611929  0.44143582453416735  0.22120081452261084  1.0000
  H   H6        1.0  0.36305575135880735  0.05856466209947091  0.7787990781946237  1.0000
  H   H7        1.0  0.13694870115898533  0.5585648597883901  0.7788014903026125  1.0000
  H   H8        1.0  0.6369452062487326  0.9414360171955277  0.2211994919058071  1.0000
  H   H9        1.0  0.7237565435231943  0.21674959803910096  0.22515424622584132  1.0000
  H   H10       1.0  0.22375682477406394  0.28325202503666697  0.7748465588147513  1.0000
  H   H11       1.0  0.27624441408431716  0.7832542307367871  0.7748465266501583  1.0000
  H   H12       1.0  0.7762427168840274  0.7167465599685058  0.22515452647395057  1.0000
  H   H13       1.0  0.9358113474680676  0.16741899226032325  0.2730615026994556  1.0000
  H   H14       1.0  0.43581143470031947  0.33258040015265067  0.7269381907624252  1.0000
  H   H15       1.0  0.06418677823236152  0.8325827382034274  0.7269387975851984  1.0000
  H   H16       1.0  0.5641866910027602  0.6674181838472747  0.2730621475811007  1.0000
  H   H17       1.0  0.9238010961643963  0.054656204722697097  0.08370542413778281  1.0000
  H   H18       1.0  0.4238028560426912  0.445344244285266  0.9162944995054332  1.0000
  H   H19       1.0  0.07619561358277588  0.9453455267471822  0.9162956230913225  1.0000
  H   H20       1.0  0.5761981015663196  0.5546553868589115  0.0837045812445041  1.0000
  H   H21       1.0  0.8841853693966113  0.2167569992285081  0.06008865610043301  1.0000
  H   H22       1.0  0.3841860373815322  0.2832434743172881  0.9399112473741981  1.0000
  H   H23       1.0  0.11581275630295101  0.7832447302295549  0.9399108972394076  1.0000
  H   H24       1.0  0.6158120883209577  0.7167561588391392  0.06008932726464172  1.0000
  H   H25       1.0  0.22288100208521658  0.14896803926110638  0.028450429737489503  1.0000
  H   H26       1.0  0.7228822469037793  0.35103148503796416  0.9715491553221653  1.0000
  H   H27       1.0  0.7771185395711271  0.8510305437326905  0.9715491616615853  1.0000
  H   H28       1.0  0.2771187107046345  0.6489691952627225  0.028450161723078782  1.0000
  H   H29       1.0  0.2434337380421638  0.1344363940304589  0.15621766240087712  1.0000
  H   H30       1.0  0.743436075387045  0.36556206838165645  0.8437816968271153  1.0000
  H   H31       1.0  0.7565629717055984  0.8655642882829183  0.8437831485329143  1.0000
  H   H32       1.0  0.2565634662681475  0.6344354634442622  0.15621616438701844  1.0000
  H   H33       1.0  0.14942684004757467  0.4037256144378459  0.10164568140945822  1.0000
  H   H34       1.0  0.6494283357192144  0.09627395636344717  0.898354613199672  1.0000
  H   H35       1.0  0.8505727016073051  0.5962740167067723  0.8983533993401169  1.0000
  H   H36       1.0  0.3505712059391612  0.9037256788039227  0.10164745532915728  1.0000
  H   H37       1.0  0.37048143799322725  0.36596163040263  0.14880003035902692  1.0000
  H   H38       1.0  0.8704827605850339  0.13403780348019717  0.8512003767886256  1.0000
  H   H39       1.0  0.6295181036607714  0.6340379997362999  0.8511983034457347  1.0000
  H   H40       1.0  0.1295167810724678  0.8659618306814847  0.14880094479539  1.0000
  C   C1        1.0  0.14505172422168755  0.41429532144568526  0.26487234305367485  1.0000
  C   C2        1.0  0.6450528550013245  0.08570425105992285  0.7351272023831897  1.0000
  C   C3        1.0  0.8549492333858522  0.5857053578493137  0.7351262270467559  1.0000
  C   C4        1.0  0.3549481026100238  0.9142943329391215  0.2648731359610608  1.0000
  C   C5        1.0  0.9304305390956386  0.38380103404158206  0.2702380358421125  1.0000
  C   C6        1.0  0.4304295757066399  0.1161983617045195  0.7297616548801359  1.0000
  C   C7        1.0  0.06957183446778  0.6161996472643523  0.729762028148315  1.0000
  C   C8        1.0  0.569569965949114  0.8838012704457865  0.2702381728142456  1.0000
  C   C9        1.0  0.8786902340794638  0.22833796349793536  0.2242255774058748  1.0000
  C   C10       1.0  0.378689120762118  0.27166251244634754  0.7757735763259248  1.0000
  C   C11       1.0  0.12131072352982387  0.7716627178084394  0.77577448658419  1.0000
  C   C12       1.0  0.6213104208927545  0.7283371186982706  0.22422550442365016  1.0000
  C   C13       1.0  0.9562702813526867  0.16737137826004297  0.1130634010875156  1.0000
  C   C14       1.0  0.45627499121626147  0.3326279994681086  0.8869348089015291  1.0000
  C   C15       1.0  0.043727844348339304  0.8326293030472058  0.8869366629018245  1.0000
  C   C16       1.0  0.5437273823474696  0.6673705825191262  0.1130640355534567  1.0000
  C   C17       1.0  0.1698280919311728  0.19157784488068325  0.10922958315768479  1.0000
  C   C18       1.0  0.6698306340907364  0.308421713283998  0.8907707218379601  1.0000
  C   C19       1.0  0.8301700337704431  0.8084217872700633  0.8907702445363412  1.0000
  C   C20       1.0  0.33017032352002207  0.6915779198715554  0.10922985280160452  1.0000
  C   C21       1.0  0.21711946423619108  0.34773875785110403  0.15161708284108502  1.0000
  C   C22       1.0  0.7171221659725121  0.15225867170313015  0.848382026695127  1.0000
  C   C23       1.0  0.7828800774186817  0.652260873293514  0.8483819979084899  1.0000
  C   C24       1.0  0.2828787916403073  0.8477388641451  0.15161882229862306  1.0000
  C   C25       1.0  0.273610574002852  0.36819294825945553  0.33995690409560103  1.0000
  C   C26       1.0  0.7736100364890885  0.1318065446188896  0.6600427067899519  1.0000
  C   C27       1.0  0.726388967659979  0.6317972434936648  0.6600422908305958  1.0000
  C   C28       1.0  0.2263838413439174  0.8682025289360452  0.3399585006159996  1.0000
  C   C29       1.0  0.8522600311409789  0.4527122135748697  0.3803564766819961  1.0000
  C   C30       1.0  0.3522589240019514  0.0472893289021528  0.6196436468343619  1.0000
  C   C31       1.0  0.14774092648978862  0.5472674956639452  0.6196470777947455  1.0000
  C   C32       1.0  0.647739201678469  0.9527323254783436  0.380353673613115  1.0000
  O   O1        1.0  0.2385516711656024  0.25745089237663876  0.36531555328860327  1.0000
  O   O2        1.0  0.7385508906527959  0.2425496723790346  0.6346850229885774  1.0000
  O   O3        1.0  0.761457782160875  0.7425539795190018  0.6346809742159963  1.0000
  O   O4        1.0  0.2614543148306012  0.7574457732003734  0.3653213289741331  1.0000
  O   O5        1.0  0.42150412931443526  0.4418515746993563  0.3733074878907488  1.0000
  O   O6        1.0  0.9215036357773129  0.05814887673771098  0.6266931815273225  1.0000
  O   O7        1.0  0.5785053240175628  0.5581543533926092  0.6266945045228525  1.0000
  O   O8        1.0  0.07850298565294618  0.9418455106335556  0.37330621163711447  1.0000
  O   O9        1.0  0.8243163093758807  0.3775341300764481  0.4407427531251217  1.0000
  O   O10       1.0  0.3243163520855603  0.122467429708216  0.5592573561654178  1.0000
  O   O11       1.0  0.1756874801296533  0.6224738862733971  0.5592522424295368  1.0000
  O   O12       1.0  0.6756860214886939  0.8775280148663782  0.4407482488517546  1.0000
  O   O13       1.0  0.8171570338177433  0.5837048603113004  0.40611287844665617  1.0000
  O   O14       1.0  0.3171538386414666  0.9162959030423036  0.5938867016160003  1.0000
  O   O15       1.0  0.18283542805994557  0.4163063115570793  0.5938888015495608  1.0000
  O   O16       1.0  0.6828343753865481  0.08369428670295057  0.40611099941768464  1.0000
