data_image0
_chemical_formula_structural       Zn4H20C32N4O16
_chemical_formula_sum              "Zn4 H20 C32 N4 O16"
_cell_length_a       7.295809741682909
_cell_length_b       7.296216115454519
_cell_length_c       18.10948351498098
_cell_angle_alpha    94.31379523491948
_cell_angle_beta     98.05738878613569
_cell_angle_gamma    117.70295962203737

_space_group_name_H-M_alt    "P 1"
_space_group_IT_number       1

loop_
  _space_group_symop_operation_xyz
  'x, y, z'

loop_
  _atom_site_type_symbol
  _atom_site_label
  _atom_site_symmetry_multiplicity
  _atom_site_fract_x
  _atom_site_fract_y
  _atom_site_fract_z
  _atom_site_occupancy
  Zn  Zn1       1.0  0.160973842142127  0.3021335710446991  0.6868712754866095  1.0000
  Zn  Zn2       1.0  0.6150222967285686  0.9739214542062768  0.8131501136442196  1.0000
  Zn  Zn3       1.0  0.8390314973663777  0.697866728796349  0.31312882547182147  1.0000
  Zn  Zn4       1.0  0.3849753281502545  0.026077169850388802  0.1868495072037675  1.0000
  H   H1        1.0  0.12713535869011852  0.5881872610405239  0.3203373998857444  1.0000
  H   H2        1.0  0.2672133966562171  0.3063539800762669  0.17968046820725905  1.0000
  H   H3        1.0  0.8728700669184876  0.4118161347723088  0.6796633675694184  1.0000
  H   H4        1.0  0.7327806067736874  0.6936398999252233  0.8203193394636301  1.0000
  H   H5        1.0  0.24006863423947788  0.8445367793096069  0.3317476028749553  1.0000
  H   H6        1.0  0.5122254850419239  0.40834164591459643  0.1682352828668172  1.0000
  H   H7        1.0  0.7599389320939666  0.15546824303081755  0.668252234425431  1.0000
  H   H8        1.0  0.4877672167506972  0.5916553639524834  0.8317634600786477  1.0000
  H   H9        1.0  0.36240155271652696  0.4775347859764309  0.5529020824664459  1.0000
  H   H10       1.0  0.9245503915970872  0.3097274299943606  0.9470266419342864  1.0000
  H   H11       1.0  0.6376052721071161  0.5224686683586057  0.4470976588991818  1.0000
  H   H12       1.0  0.07544527623475264  0.6902758518942846  0.052972484750242195  1.0000
  H   H13       1.0  0.24219032455557973  0.45226186545883  0.4154418710508452  1.0000
  H   H14       1.0  0.03661485727818812  0.3271329848212901  0.0845112805215464  1.0000
  H   H15       1.0  0.7578173301735022  0.5477462713365855  0.5845580812839373  1.0000
  H   H16       1.0  0.9633784930375454  0.6728624416298032  0.9154885462489731  1.0000
  H   H17       1.0  0.14552333746145518  0.9858891933457415  0.4602201280684213  1.0000
  H   H18       1.0  0.5249275173970034  0.1846974460827937  0.03982119686541101  1.0000
  H   H19       1.0  0.8544785550938627  0.014112572866906705  0.5397809412440466  1.0000
  H   H20       1.0  0.4750543223443985  0.8152853501019592  0.9601775550864319  1.0000
  C   C1        1.0  0.24937873985788891  0.8822858130118761  0.5583061322573499  1.0000
  C   C2        1.0  0.3235158558972344  0.19059543756235087  0.9417106380336978  1.0000
  C   C3        1.0  0.7506280803746961  0.11771760435676272  0.44169471203295535  1.0000
  C   C4        1.0  0.6764845582295465  0.8094032296059126  0.05828913648456079  1.0000
  C   C5        1.0  0.3168907012408225  0.7425738979373049  0.5846357409816109  1.0000
  C   C6        1.0  0.1576073789208934  0.23188934045591483  0.9153591801754928  1.0000
  C   C7        1.0  0.6831139851535112  0.25742794835334587  0.4153643790764505  1.0000
  C   C8        1.0  0.84239033435356  0.7681123980557344  0.08464055570688339  1.0000
  C   C9        1.0  0.31382630404960576  0.5884196356193954  0.5327803411597287  1.0000
  C   C10       1.0  0.05534758604717643  0.2809831725267102  0.9671679270523369  1.0000
  C   C11       1.0  0.6861805207740375  0.4115838187156414  0.4672194002058917  1.0000
  C   C12       1.0  0.9446507757503896  0.7190169825689523  0.032832892655093794  1.0000
  C   C13       1.0  0.24937662871745667  0.5758586301914548  0.45556325191062547  1.0000
  C   C14       1.0  0.11998311483875312  0.2939318508951558  0.044403659017774495  1.0000
  C   C15       1.0  0.7506302845018241  0.42414793859856564  0.5444366044893912  1.0000
  C   C16       1.0  0.8800103284636763  0.706066726977319  0.9555951798624636  1.0000
  C   C17       1.0  0.1937995293272081  0.7221649449280889  0.4297894275706255  1.0000
  C   C18       1.0  0.29184267151066484  0.2638162633121297  0.0701985191603356  1.0000
  C   C19       1.0  0.80620663549567  0.2778400004069397  0.5702119872816455  1.0000
  C   C20       1.0  0.7081464995242044  0.7361791354379649  0.9297999741800924  1.0000
  C   C21       1.0  0.1945014671246525  0.8758304916872673  0.4809635461513794  1.0000
  C   C22       1.0  0.3942737422252804  0.21307890060272433  0.019067152292329588  1.0000
  C   C23       1.0  0.8055025615644523  0.1241728640865745  0.5190376959309901  1.0000
  C   C24       1.0  0.605715252018328  0.7869102692373957  0.9809311109793059  1.0000
  C   C25       1.0  0.2027812422105058  0.014841717682180896  0.6118143984270149  1.0000
  C   C26       1.0  0.4025918991050404  0.09048149598956463  0.8882107654528824  1.0000
  C   C27       1.0  0.7972291110753673  0.9851633292866425  0.3881861440059851  1.0000
  C   C28       1.0  0.5973950474004183  0.9095091987443453  0.1117874400832477  1.0000
  C   C29       1.0  0.40099342377318004  0.7676637107402657  0.6665850121735772  1.0000
  C   C30       1.0  0.10084992193040421  0.23408636470277605  0.8334041213723253  1.0000
  C   C31       1.0  0.5990105165202948  0.23233653057858564  0.3334161148743959  1.0000
  C   C32       1.0  0.8991456529147399  0.7659137657644878  0.16659599320249194  1.0000
  N   N1        1.0  0.12908171097898  0.7143480290647659  0.350093057471085  1.0000
  N   N2        1.0  0.36379543385848473  0.27887979362562015  0.14990592392321392  1.0000
  N   N3        1.0  0.8709209230861389  0.2856553051532771  0.6499081077761488  1.0000
  N   N4        1.0  0.6361986648536445  0.7211172562804578  0.8500923443950441  1.0000
  O   O1        1.0  0.3693418396970004  0.6125557745269816  0.7001692517791298  1.0000
  O   O2        1.0  0.9121586548070229  0.16889659399671333  0.7998341621809502  1.0000
  O   O3        1.0  0.6306613590866663  0.38744289878648175  0.2998317793340775  1.0000
  O   O4        1.0  0.08783823085752833  0.8311004805377635  0.20016481126992863  1.0000
  O   O5        1.0  0.5151904269199079  0.9566190111678735  0.7023265516865537  1.0000
  O   O6        1.0  0.25414074607185466  0.31262004444732133  0.7976831921799532  1.0000
  O   O7        1.0  0.4848085856962996  0.043379578994994006  0.29767480038358235  1.0000
  O   O8        1.0  0.7458541756591189  0.6873816324695312  0.20231694149449456  1.0000
  O   O9        1.0  0.05928944626474224  0.9258273642252844  0.6485044993090768  1.0000
  O   O10       1.0  0.2769822640244045  0.9104561061974935  0.8514335806415474  1.0000
  O   O11       1.0  0.9407259139118979  0.07418237442171718  0.3514981389855124  1.0000
  O   O12       1.0  0.7230054285819209  0.0895361935082093  0.1485636179046708  1.0000
  O   O13       1.0  0.30195325130233647  0.21559827770919787  0.6147744053996151  1.0000
  O   O14       1.0  0.6004761228453931  0.1867106264833396  0.8853413461599331  1.0000
  O   O15       1.0  0.6980549658497494  0.7844051796984387  0.38522596426348343  1.0000
  O   O16       1.0  0.3995115651698741  0.8132816362559652  0.11465695531096291  1.0000
