data_image0
_chemical_formula_structural       Zn6H48C56O28
_chemical_formula_sum              "Zn6 H48 C56 O28"
_cell_length_a       10.66275970279691
_cell_length_b       10.916578762219986
_cell_length_c       16.267944705347055
_cell_angle_alpha    106.20140995101848
_cell_angle_beta     90.00422546562557
_cell_angle_gamma    119.2414272559867

_space_group_name_H-M_alt    "P 1"
_space_group_IT_number       1

loop_
  _space_group_symop_operation_xyz
  'x, y, z'

loop_
  _atom_site_type_symbol
  _atom_site_label
  _atom_site_symmetry_multiplicity
  _atom_site_fract_x
  _atom_site_fract_y
  _atom_site_fract_z
  _atom_site_occupancy
  Zn  Zn1       1.0  0.7291835547105593  0.13428809801254002  0.9098299485074717  1.0000
  Zn  Zn2       1.0  0.5950020309521024  0.8657517297049966  0.5901349874073105  1.0000
  Zn  Zn3       1.0  0.270816025666285  0.8657107982461981  0.09016973463128154  1.0000
  Zn  Zn4       1.0  0.4049986549315676  0.1342493771243696  0.4098663420974518  1.0000
  Zn  Zn5       1.0  0.9999995078522305  0.5000005830903975  0.9999996776993355  1.0000
  Zn  Zn6       1.0  0.4999997901884187  0.4999994481293727  0.4999998415693767  1.0000
  H   H1        1.0  0.9025073756103622  0.036489280428568804  0.682240058613523  1.0000
  H   H2        1.0  0.8659298624106884  0.963493998271979  0.8179191618125614  1.0000
  H   H3        1.0  0.09749237238330717  0.9635118263078513  0.31776127085112194  1.0000
  H   H4        1.0  0.1340702720435303  0.036506005988627514  0.18208073031393468  1.0000
  H   H5        1.0  0.054860121735657706  0.021832402367429903  0.5678962932196966  1.0000
  H   H6        1.0  0.03303563499751056  0.9781340216794163  0.9321940600076529  1.0000
  H   H7        1.0  0.9451396275819806  0.9781687070855446  0.43210442204968313  1.0000
  H   H8        1.0  0.9669639453793337  0.021864874579321705  0.0678056231311004  1.0000
  H   H9        1.0  0.3967817773343612  0.46534222717187407  0.706409092688105  1.0000
  H   H10       1.0  0.9315338854005332  0.5347534941031429  0.7935468138675005  1.0000
  H   H11       1.0  0.60321946527462  0.5346599930924683  0.29359121741387645  1.0000
  H   H12       1.0  0.06846624905368515  0.4652465101574635  0.2064530782589955  1.0000
  H   H13       1.0  0.24662874604819507  0.4764137395940224  0.8250163677851245  1.0000
  H   H14       1.0  0.7701899446505108  0.5236862221655729  0.6750109022565027  1.0000
  H   H15       1.0  0.7533723262960165  0.5235862647595297  0.1749835243814957  1.0000
  H   H16       1.0  0.2298101884797461  0.47631377937847214  0.3249896040652587  1.0000
  H   H17       1.0  0.7515774900834273  0.6369333556385471  0.9688619239489498  1.0000
  H   H18       1.0  0.11452268160191893  0.36292368028706085  0.5310599598293066  1.0000
  H   H19       1.0  0.24842264569475955  0.3630666513386204  0.03113735398228102  1.0000
  H   H20       1.0  0.8854783920662612  0.6370763267830456  0.4689393181420485  1.0000
  H   H21       1.0  0.3901279480077946  0.23366824749419385  0.9872600921694499  1.0000
  H   H22       1.0  0.1566291002273915  0.7663108777602475  0.5127379811115134  1.0000
  H   H23       1.0  0.6098721890943538  0.7663317621995278  0.012738571566515646  1.0000
  H   H24       1.0  0.8433719734407817  0.23368912930985894  0.4872612968598489  1.0000
  H   H25       1.0  0.6111887910900933  0.877199597900429  0.7830782393068174  1.0000
  H   H26       1.0  0.7339846551130407  0.12283994709826367  0.7169203431099264  1.0000
  H   H27       1.0  0.38880891218279595  0.12279929545586302  0.21692205794694527  1.0000
  H   H28       1.0  0.26601603341855906  0.8771611651642175  0.2830797580043125  1.0000
  H   H29       1.0  0.43988589152485247  0.7321881240343161  0.8664736808370037  1.0000
  H   H30       1.0  0.7076965016958425  0.267756543088936  0.6334924117464027  1.0000
  H   H31       1.0  0.5601121968846172  0.2678096641296079  0.1335257932738827  1.0000
  H   H32       1.0  0.2923036340823372  0.7322434638882243  0.36650686618482803  1.0000
  H   H33       1.0  0.42615542842913373  0.8917862970938163  0.9124208692362998  1.0000
  H   H34       1.0  0.5343570897344846  0.10813003404442872  0.5874960311238766  1.0000
  H   H35       1.0  0.5738422748437486  0.10821259626247583  0.0875794280174702  1.0000
  H   H36       1.0  0.4656445366871084  0.8918710783109917  0.4125040700304936  1.0000
  H   H37       1.0  0.32593023676270166  0.8701059598985668  0.7661869023718353  1.0000
  H   H38       1.0  0.455705625452687  0.12977496660472815  0.7337079465160554  1.0000
  H   H39       1.0  0.6740695138789049  0.12989515227096154  0.23381319870227907  1.0000
  H   H40       1.0  0.5442954468915248  0.8702250377488242  0.2662919456505648  1.0000
  H   H41       1.0  0.2194093937980313  0.7007924900907695  0.7891032223603247  1.0000
  H   H42       1.0  0.518526057428076  0.2991040053569379  0.7108033454557442  1.0000
  H   H43       1.0  0.7805883121227807  0.2992064086986376  0.2108958465029218  1.0000
  H   H44       1.0  0.48147407702614226  0.7008959989036685  0.28919654667075173  1.0000
  H   H45       1.0  0.3472388802053459  0.714393002123373  0.7174620711333404  1.0000
  H   H46       1.0  0.6327447518800896  0.28550753956778857  0.782450476211018  1.0000
  H   H47       1.0  0.6527608704362534  0.2856081100461623  0.2825380299407811  1.0000
  H   H48       1.0  0.3672553825741218  0.7144924646928176  0.2175494159154852  1.0000
  C   C1        1.0  0.06560813886768815  0.2581242275351416  0.7598814971696441  1.0000
  C   C2        1.0  0.8073726380937742  0.741880246862742  0.740204210351024  1.0000
  C   C3        1.0  0.9343925470159817  0.7418768792942245  0.2401198323351252  1.0000
  C   C4        1.0  0.19262600571703106  0.2581186520196114  0.2597948585523397  1.0000
  C   C5        1.0  0.010731151897203991  0.13005287593519907  0.6874584675098703  1.0000
  C   C6        1.0  0.8805677926562937  0.8699145025140994  0.8126508055105717  1.0000
  C   C7        1.0  0.9892695353104343  0.869948233610721  0.31254224779963374  1.0000
  C   C8        1.0  0.1194332783639567  0.13008549912289172  0.1873497008513141  1.0000
  C   C9        1.0  0.09561439940855372  0.12166537810792734  0.6236744793804405  1.0000
  C   C10       1.0  0.9739137267702561  0.8783198065275571  0.8764098661203334  1.0000
  C   C11       1.0  0.9043862891230391  0.8783357341545471  0.37632562173379824  1.0000
  C   C12       1.0  0.026086406359993902  0.12168019501649502  0.12359064020142088  1.0000
  C   C13       1.0  0.2347428568249086  0.24299484786146766  0.630783441947429  1.0000
  C   C14       1.0  0.9917826889175813  0.7570383079275019  0.8692498037123854  1.0000
  C   C15       1.0  0.7652557856619354  0.7570040483043317  0.36921624115120016  1.0000
  C   C16       1.0  0.00821650897060526  0.24296169895672665  0.130749474178721  1.0000
  C   C17       1.0  0.28909292005508297  0.3718748514445169  0.7028795025367386  1.0000
  C   C18       1.0  0.9172512977717985  0.6281885679751653  0.7971288441311086  1.0000
  C   C19       1.0  0.7109062751851738  0.6281251500065893  0.2971210037448984  1.0000
  C   C20       1.0  0.08274883668241982  0.37181143628544083  0.20287104799539427  1.0000
  C   C21       1.0  0.2058863092960763  0.37871638706909755  0.7677482856991276  1.0000
  C   C22       1.0  0.8271337904474905  0.621340761836976  0.7322940441210832  1.0000
  C   C23       1.0  0.7941147617241737  0.6212836145679006  0.2322522206627582  1.0000
  C   C24       1.0  0.17286578860537816  0.3786581317052082  0.2677062532129355  1.0000
  C   C25       1.0  0.9785870012568267  0.2664891623642802  0.8306093359176286  1.0000
  C   C26       1.0  0.7120575699808498  0.7335589235872179  0.6694471271799998  1.0000
  C   C27       1.0  0.0214146225168363  0.7335119445580247  0.169391993627265  1.0000
  C   C28       1.0  0.2879420090720188  0.26643996995495917  0.33055317015401187  1.0000
  C   C29       1.0  0.32570258629474585  0.23840802593260702  0.5617408525966281  1.0000
  C   C30       1.0  0.08738166666527299  0.7616496980779673  0.9382946422399667  1.0000
  C   C31       1.0  0.6742966089455179  0.7615919755184989  0.4382596536850086  1.0000
  C   C32       1.0  0.9126190218663268  0.23835141418451397  0.061705458874271785  1.0000
  C   C33       1.0  0.5793097369427187  0.4285025236945118  0.9756959095383451  1.0000
  C   C34       1.0  0.1508163449224682  0.5713997015688648  0.524244130320838  1.0000
  C   C35       1.0  0.42069039618753834  0.5714974778495404  0.02430459678341635  1.0000
  C   C36       1.0  0.8491843436091314  0.4286014106936165  0.4757559707934007  1.0000
  C   C37       1.0  0.6413515420643704  0.5784485738797898  0.9825916449225857  1.0000
  C   C38       1.0  0.06283590276905933  0.42147100765453166  0.5173547317789939  1.0000
  C   C39       1.0  0.358648592389848  0.4215514303808164  0.017408247203910338  1.0000
  C   C40       1.0  0.9371647870865016  0.5785301073245037  0.4826447551399866  1.0000
  C   C41       1.0  0.43738864496964414  0.35023906778293684  0.9931681310277297  1.0000
  C   C42       1.0  0.08723924790781008  0.6497423343268095  0.5068212326663327  1.0000
  C   C43       1.0  0.5626105515945811  0.6497609363847303  0.006831761058641915  1.0000
  C   C44       1.0  0.9127608878703697  0.35025767265035074  0.493178045264905  1.0000
  C   C45       1.0  0.6657605421767984  0.354187010799322  0.9500748249484088  1.0000
  C   C46       1.0  0.311601740652698  0.6456721140973374  0.5498667303015452  1.0000
  C   C47       1.0  0.3342395922774202  0.6458129934612843  0.04992506717808713  1.0000
  C   C48       1.0  0.6883983938015205  0.35432789016326893  0.4501331618249509  1.0000
  C   C49       1.0  0.44187858964857457  0.8264464646672355  0.8530118551384404  1.0000
  C   C50       1.0  0.6153775244226765  0.17348931374971246  0.6469362466991839  1.0000
  C   C51       1.0  0.5581196690256575  0.17355353940748594  0.1469880369078069  1.0000
  C   C52       1.0  0.3846231654328918  0.8265118012293159  0.3530632402197895  1.0000
  C   C53       1.0  0.3272978976276448  0.77570740718037  0.7768272886756192  1.0000
  C   C54       1.0  0.5515019763444046  0.22421412173422092  0.7230886234999829  1.0000
  C   C55       1.0  0.6727022368265736  0.22429259708023616  0.2231726034508839  1.0000
  C   C56       1.0  0.44849871086323395  0.7757869878116993  0.27691209180952114  1.0000
  O   O1        1.0  0.04360872910158526  0.35691617151034194  0.9047161494224126  1.0000
  O   O2        1.0  0.6866821333802093  0.6431674012338393  0.5953423123475332  1.0000
  O   O3        1.0  0.9563914027047032  0.643083827317149  0.09528497109461401  1.0000
  O   O4        1.0  0.313317063184016  0.3568326029338211  0.4046575797388384  1.0000
  O   O5        1.0  0.8384312837297255  0.17466712158659453  0.8116103509046012  1.0000
  O   O6        1.0  0.6637710234424644  0.8254101192025589  0.6884046564110163  1.0000
  O   O7        1.0  0.16156978729051735  0.8253328800503967  0.18839015545728446  1.0000
  O   O8        1.0  0.3362291110117539  0.17458988505804746  0.31159523571547953  1.0000
  O   O9        1.0  0.4486645797233422  0.35280215295320977  0.5690929093544739  1.0000
  O   O10       1.0  0.09595987167059412  0.6472708603962404  0.9309400321040683  1.0000
  O   O11       1.0  0.5513346155169147  0.6471978484979034  0.4309075969271631  1.0000
  O   O12       1.0  0.9040408168610057  0.3527302518662339  0.06906006901017041  1.0000
  O   O13       1.0  0.2751364576993324  0.1171934935170924  0.4977878671484461  1.0000
  O   O14       1.0  0.1579890403062978  0.8828367420564479  0.002270329712281735  1.0000
  O   O15       1.0  0.7248627375409242  0.8828065079340136  0.5022126391331838  1.0000
  O   O16       1.0  0.8420095995326164  0.1171621486762291  0.9977305817768707  1.0000
  O   O17       1.0  0.7925093945081939  0.4263292728631073  0.9330650476522635  1.0000
  O   O18       1.0  0.3661542951273944  0.573521094869605  0.5669093442966755  1.0000
  O   O19       1.0  0.20749167783601763  0.573670731490445  0.06693484451435691  1.0000
  O   O20       1.0  0.6338458393268239  0.42647890939100114  0.4330905478298205  1.0000
  O   O21       1.0  0.6035193200634197  0.21608506607090314  0.944621810350135  1.0000
  O   O22       1.0  0.38750370306186005  0.7837555292984747  0.5553030556709473  1.0000
  O   O23       1.0  0.3964808143907987  0.7839149381897031  0.055378081776360936  1.0000
  O   O24       1.0  0.612497367958383  0.2162444723385164  0.44469745069093847  1.0000
  O   O25       1.0  0.5871753865377656  0.9222985168772696  0.8386959540592043  1.0000
  O   O26       1.0  0.6647882701525346  0.07765408277906972  0.6613184081995911  1.0000
  O   O27       1.0  0.4128232533011484  0.07770037385541428  0.1613049574299481  1.0000
  O   O28       1.0  0.335212418379065  0.9223470294834117  0.3386816929146477  1.0000
