data_image0
_chemical_formula_structural       Co2H8C16O8
_chemical_formula_sum              "Co2 H8 C16 O8"
_cell_length_a       4.612222774695406
_cell_length_b       5.812596722732903
_cell_length_c       13.693447893492415
_cell_angle_alpha    88.3131055528007
_cell_angle_beta     90.62246189014002
_cell_angle_gamma    109.0431672778265

_space_group_name_H-M_alt    "P 1"
_space_group_IT_number       1

loop_
  _space_group_symop_operation_xyz
  'x, y, z'

loop_
  _atom_site_type_symbol
  _atom_site_label
  _atom_site_symmetry_multiplicity
  _atom_site_fract_x
  _atom_site_fract_y
  _atom_site_fract_z
  _atom_site_occupancy
  Co  Co1       1.0  0.770341334337232  0.746461372424598  0.4465070860996789  1.0000
  Co  Co2       1.0  0.2297572836586284  0.25346928858581924  0.5534897652688784  1.0000
  H   H1        1.0  0.0021746677447255563  0.5656060913092206  0.180725744240867  1.0000
  H   H2        1.0  0.501361483256936  0.9292092835654202  0.186975738848993  1.0000
  H   H3        1.0  0.9978642655637415  0.434459062902242  0.8193855704154842  1.0000
  H   H4        1.0  0.49858167728833536  0.07081642675205302  0.8129128821790559  1.0000
  H   H5        1.0  0.13546034169888096  0.41484527735689625  0.023384154905556898  1.0000
  H   H6        1.0  0.3765212736177902  0.09285956466182911  0.0265753485295406  1.0000
  H   H7        1.0  0.8642483522627131  0.5853098980239723  0.9766653822728131  1.0000
  H   H8        1.0  0.6231403556370267  0.9072594296740919  0.9733647700561434  1.0000
  C   C1        1.0  0.10501268847846752  0.4514994917458496  0.3592688495771768  1.0000
  C   C2        1.0  0.3866840624258785  0.027233888456592595  0.3634021111472521  1.0000
  C   C3        1.0  0.895123865189916  0.5484476984290438  0.6407747131497955  1.0000
  C   C4        1.0  0.6134074532472769  0.9726654485117836  0.6365532886047376  1.0000
  C   C5        1.0  0.1791189518175642  0.3352735163758994  0.2710809835753381  1.0000
  C   C6        1.0  0.3198061353710742  0.1524346074242686  0.2729660831921805  1.0000
  C   C7        1.0  0.821002274347265  0.6647106372225622  0.7289477174269194  1.0000
  C   C8        1.0  0.6802724201498691  0.8475531120444658  0.7270143139538519  1.0000
  C   C9        1.0  0.11265655521489036  0.42624306375104476  0.18058296945618932  1.0000
  C   C10       1.0  0.39123450150410116  0.0688768208638919  0.18420948101061896  1.0000
  C   C11       1.0  0.8873451489577278  0.5738492780346222  0.8194813673626555  1.0000
  C   C12       1.0  0.6087414369654028  0.9311578079817481  0.8157353831864143  1.0000
  C   C13       1.0  0.1851584837626561  0.3412928851725781  0.0932216271060113  1.0000
  C   C14       1.0  0.3231057854369226  0.1608251292250458  0.0950572277948183  1.0000
  C   C15       1.0  0.8147131387555647  0.6588009166378656  0.9068059440116585  1.0000
  C   C16       1.0  0.6767015836740242  0.8392777592831068  0.9049212356664712  1.0000
  O   O1        1.0  0.8848738458424849  0.5361442355962256  0.35027923548666007  1.0000
  O   O2        1.0  0.6090798928622905  0.9453165701924181  0.3574229722153532  1.0000
  O   O3        1.0  0.11519588882771366  0.46368737180057457  0.6497912054503985  1.0000
  O   O4        1.0  0.39096669892039415  0.05453259179923721  0.6425107416325844  1.0000
  O   O5        1.0  0.2713473091783882  0.4764800650315236  0.43721537498282  1.0000
  O   O6        1.0  0.21467779774933157  0.9937973849454168  0.439428354741743  1.0000
  O   O7        1.0  0.7289118483482683  0.5235021479867472  0.5628114000657405  1.0000
  O   O8        1.0  0.7854144784676861  0.0061035939319893035  0.5605321488602186  1.0000
