data_image0
_chemical_formula_structural       Cd2H40C24N12O16
_chemical_formula_sum              "Cd2 H40 C24 N12 O16"
_cell_length_a       4.804014839295225
_cell_length_b       11.792747797112058
_cell_length_c       15.361957450878043
_cell_angle_alpha    94.81962235664433
_cell_angle_beta     90.01554772045112
_cell_angle_gamma    101.76202303661309

_space_group_name_H-M_alt    "P 1"
_space_group_IT_number       1

loop_
  _space_group_symop_operation_xyz
  'x, y, z'

loop_
  _atom_site_type_symbol
  _atom_site_label
  _atom_site_symmetry_multiplicity
  _atom_site_fract_x
  _atom_site_fract_y
  _atom_site_fract_z
  _atom_site_occupancy
  Cd  Cd1       1.0  0.9999987582284503  0.9999978321898267  0.4999979658011713  1.0000
  Cd  Cd2       1.0  5.304245128498313e-06  1.776893298954979e-07  0.999999849163608  1.0000
  H   H1        1.0  0.6527381866093549  0.7470586761302228  0.5144179724179382  1.0000
  H   H2        1.0  0.9068912921416866  0.2533380164311295  0.9859318317276834  1.0000
  H   H3        1.0  0.34725900133520327  0.2529439064510512  0.4855843786151298  1.0000
  H   H4        1.0  0.09310624245615867  0.7466610984860363  0.014069616046683085  1.0000
  H   H5        1.0  0.6756137522515644  0.8184672113673768  0.6198077673339739  1.0000
  H   H6        1.0  0.8570713651791665  0.18186239011286173  0.8805946130178628  1.0000
  H   H7        1.0  0.3243980071185391  0.181535371772469  0.3801945843522817  1.0000
  H   H8        1.0  0.14292825554853278  0.8181367344407416  0.11940618454721631  1.0000
  H   H9        1.0  0.2384504857016267  0.42338156631745955  0.6202061113453611  1.0000
  H   H10       1.0  0.8150407530947561  0.5763727887096692  0.8791629858816637  1.0000
  H   H11       1.0  0.7615574750478659  0.5766175872252504  0.37979273568515043  1.0000
  H   H12       1.0  0.18493553930701273  0.42362547519768157  0.12083709709201432  1.0000
  H   H13       1.0  0.4505796011135743  0.4896692823483732  0.7122640884790031  1.0000
  H   H14       1.0  0.9625150307681875  0.5100722410354094  0.787511093117047  1.0000
  H   H15       1.0  0.5494308761372864  0.5103307405992651  0.28773482190717203  1.0000
  H   H16       1.0  0.037460054237286  0.48992777099905976  0.21248846598541604  1.0000
  H   H17       1.0  0.7821589303383405  0.1708293699774188  0.7426046353763314  1.0000
  H   H18       1.0  0.6112186701255664  0.8295939655445249  0.7575044568527219  1.0000
  H   H19       1.0  0.2178378452252686  0.8291723910619168  0.25739440088135274  1.0000
  H   H20       1.0  0.388784683495075  0.17040429940016813  0.24249562733403004  1.0000
  H   H21       1.0  0.9613644673454402  0.21380673274804704  0.6475748091143745  1.0000
  H   H22       1.0  0.7474186748108096  0.7865720066588294  0.8525566667364972  1.0000
  H   H23       1.0  0.038635579256130335  0.7861932420174111  0.3524273523182729  1.0000
  H   H24       1.0  0.2525774759590078  0.2134201824069564  0.14744232412456887  1.0000
  H   H25       1.0  0.1615786833031336  0.7784045143869917  0.5137157175912607  1.0000
  H   H26       1.0  0.38379911593953864  0.22160119148327334  0.9863878862503415  1.0000
  H   H27       1.0  0.8384230235544265  0.2215946198030423  0.486284429764524  1.0000
  H   H28       1.0  0.6162047697613815  0.778402298889091  0.013611927114588696  1.0000
  H   H29       1.0  0.18855689747002205  0.8537903241977247  0.610391731730779  1.0000
  H   H30       1.0  0.33475312170777016  0.14632611303430554  0.889698168276283  1.0000
  H   H31       1.0  0.8114523678869078  0.14621143732038888  0.3896073050867842  1.0000
  H   H32       1.0  0.6652474659693581  0.8536791062720963  0.11030242172932253  1.0000
  H   H33       1.0  0.39888069335579246  0.583506982025298  0.5475031709351657  1.0000
  H   H34       1.0  0.81569302758691  0.41661013398766034  0.9523020568303056  1.0000
  H   H35       1.0  0.6011256251282687  0.4164930503193887  0.4524950889617757  1.0000
  H   H36       1.0  0.1842995712193414  0.583391598222164  0.0476989301485702  1.0000
  H   H37       1.0  0.5299099891109904  0.32164086594273306  0.7439387239131465  1.0000
  H   H38       1.0  0.20778032689589307  0.6788026724788168  0.7561944010722075  1.0000
  H   H39       1.0  0.4700959872174336  0.6783626436227053  0.2560597889398793  1.0000
  H   H40       1.0  0.7922214114451336  0.32119652860770026  0.24380119416533574  1.0000
  C   C1        1.0  0.7800792736097294  0.7630978026083568  0.5749963602621548  1.0000
  C   C2        1.0  0.01757177811666112  0.2371509583131797  0.9252852606684103  1.0000
  C   C3        1.0  0.2199278921244243  0.23690392060339605  0.4250052776725185  1.0000
  C   C4        1.0  0.982422471950308  0.7628499142079476  0.07471501283882281  1.0000
  C   C5        1.0  0.769825851155467  0.6499168306760834  0.61615640384057  1.0000
  C   C6        1.0  0.12071979876179739  0.3502184024622819  0.8840433942046462  1.0000
  C   C7        1.0  0.2301767299380231  0.35008405172087004  0.3838432197373082  1.0000
  C   C8        1.0  0.8792677760369967  0.6497816100509652  0.11595616545768914  1.0000
  C   C9        1.0  0.456062719872648  0.4659898661026106  0.6416478018267214  1.0000
  C   C10       1.0  0.9906503891572738  0.5339487697456631  0.8581275091568517  1.0000
  C   C11       1.0  0.5439468831422829  0.5340084086381154  0.3583516323373601  1.0000
  C   C12       1.0  0.009333022377084976  0.4660512426079962  0.14187205031885955  1.0000
  C   C13       1.0  0.6424945763196277  0.3763797178902237  0.624555760922661  1.0000
  C   C14       1.0  0.2662554939755778  0.623836544040813  0.8754488879139972  1.0000
  C   C15       1.0  0.3575179780658218  0.6236202955805652  0.3754437998594328  1.0000
  C   C16       1.0  0.7337259196447902  0.3761677956656441  0.12455228829205112  1.0000
  C   C17       1.0  0.7522643423592612  0.2012456021413271  0.6783544900453367  1.0000
  C   C18       1.0  0.5509287569501566  0.7992036607902548  0.8217644151993471  1.0000
  C   C19       1.0  0.2477348479969379  0.7987526626437783  0.32164559395478426  1.0000
  C   C20       1.0  0.449071210430823  0.20079199609923387  0.17823547910703755  1.0000
  C   C21       1.0  0.5489885035174495  0.1024910690286163  0.6241001769040155  1.0000
  C   C22       1.0  0.4463916106815802  0.8979132559291967  0.8759504393413098  1.0000
  C   C23       1.0  0.4510215388642678  0.8975080845938875  0.3758986702198115  1.0000
  C   C24       1.0  0.553616656242454  0.10208234393963515  0.12405335715396863  1.0000
  N   N1        1.0  0.06174360531330342  0.8292130622407184  0.5558707991648505  1.0000
  N   N2        1.0  0.2328277030882688  0.17084750125403048  0.9442757280257725  1.0000
  N   N3        1.0  0.9382614967791838  0.17078869911780706  0.4441282374660816  1.0000
  N   N4        1.0  0.7671728935841385  0.8291577371656516  0.055723561374627195  1.0000
  N   N5        1.0  0.5352409411282578  0.568528872497204  0.5949146829733112  1.0000
  N   N6        1.0  0.9673903285684559  0.43160588590551907  0.9050465062639931  1.0000
  N   N7        1.0  0.4647637170998137  0.4314720004229001  0.4050855910004857  1.0000
  N   N8        1.0  0.032598888495776544  0.5683932478057442  0.09495364053191932  1.0000
  N   N9        1.0  0.6510982133207576  0.30884120796346076  0.6900890961589354  1.0000
  N   N10       1.0  0.3418302856947406  0.6916347834734111  0.8100525625586956  1.0000
  N   N11       1.0  0.3489030676629312  0.6911570760147184  0.309909687329288  1.0000
  N   N12       1.0  0.6581605916254816  0.30836350966243486  0.18994557016035435  1.0000
  O   O1        1.0  0.9550513720007386  0.6359324640092722  0.6690911193049092  1.0000
  O   O2        1.0  0.32020155272123674  0.3641108868442373  0.831216467315038  1.0000
  O   O3        1.0  0.044950774223600824  0.36406754906253974  0.330908441010621  1.0000
  O   O4        1.0  0.679780225542963  0.6358900234246788  0.16878120442189024  1.0000
  O   O5        1.0  0.7653548087994864  0.36438286168834094  0.5530926148704012  1.0000
  O   O6        1.0  0.4010891336942492  0.635760636833943  0.9469214793303781  1.0000
  O   O7        1.0  0.2346581804550993  0.6356180211075895  0.44690700917404064  1.0000
  O   O8        1.0  0.5988785602483091  0.3642454027376587  0.0530824239576049  1.0000
  O   O9        1.0  0.31507391861208583  0.12380773603921816  0.5987132641249604  1.0000
  O   O10       1.0  0.19104872536365042  0.8765342355536916  0.9012028807221244  1.0000
  O   O11       1.0  0.6849391021259662  0.8761932136532024  0.40128180780124023  1.0000
  O   O12       1.0  0.8089575661345805  0.1234657394511558  0.09879928099045543  1.0000
  O   O13       1.0  0.6316259791564605  0.007198892298298191  0.6089997445326534  1.0000
  O   O14       1.0  0.624216053175175  0.9932315226045461  0.8911509528476531  1.0000
  O   O15       1.0  0.3683911598696525  0.9928019619873039  0.3910018306062355  1.0000
  O   O16       1.0  0.3757934256427903  0.006762338693803797  0.10885271721623724  1.0000
