data_image0
_chemical_formula_structural       CdH28C28N10O6
_chemical_formula_sum              "Cd1 H28 C28 N10 O6"
_cell_length_a       9.036946434124165
_cell_length_b       9.452199198795427
_cell_length_c       9.88779881245467
_cell_angle_alpha    79.46585497126446
_cell_angle_beta     62.92455494688873
_cell_angle_gamma    81.49468743023783

_space_group_name_H-M_alt    "P 1"
_space_group_IT_number       1

loop_
  _space_group_symop_operation_xyz
  'x, y, z'

loop_
  _atom_site_type_symbol
  _atom_site_label
  _atom_site_symmetry_multiplicity
  _atom_site_fract_x
  _atom_site_fract_y
  _atom_site_fract_z
  _atom_site_occupancy
  Cd  Cd1       1.0  0.999999588235447  0.5000003083543447  0.4999992995637114  1.0000
  H   H1        1.0  0.010406175008832022  0.5135876479931908  0.1436051399079759  1.0000
  H   H2        1.0  0.9895965115459334  0.48641598895844135  0.8563892880301083  1.0000
  H   H3        1.0  0.1887987278392487  0.3047199753265986  0.9466417900009603  1.0000
  H   H4        1.0  0.8112042277033568  0.6952803924169687  0.053355074217570624  1.0000
  H   H5        1.0  0.2622246755658182  0.20747708679885332  0.34879176236916015  1.0000
  H   H6        1.0  0.7377694735369928  0.7925243143572447  0.6512105741845103  1.0000
  H   H7        1.0  0.19815788284743258  0.9582895364361409  0.12976450597754766  1.0000
  H   H8        1.0  0.8018413168497676  0.0417107608039089  0.8702379571964584  1.0000
  H   H9        1.0  0.544271743965318  0.3699645389448277  0.9335549581637465  1.0000
  H   H10       1.0  0.4557273684123759  0.6300368534404798  0.06644635392672876  1.0000
  H   H11       1.0  0.7404905228150869  0.288129533915459  0.918685764774544  1.0000
  H   H12       1.0  0.2595086839114273  0.7118707795522994  0.0813156814293379  1.0000
  H   H13       1.0  0.5719452391393675  0.30780308419357993  0.10087377275026194  1.0000
  H   H14       1.0  0.4280528334185476  0.6921961809478033  0.8991262839851045  1.0000
  H   H15       1.0  0.13574035512151997  0.8243977458775192  0.49989969696957093  1.0000
  H   H16       1.0  0.8642577766386523  0.17560035920778466  0.5001055787298085  1.0000
  H   H17       1.0  0.4346372984001404  0.45628430759270344  0.31675442171895435  1.0000
  H   H18       1.0  0.5653620307924428  0.5437149918683275  0.6832430907178447  1.0000
  H   H19       1.0  0.6336373181694698  0.6417474157275862  0.3417007670748403  1.0000
  H   H20       1.0  0.3663632395405402  0.3582518531422565  0.6582982689438737  1.0000
  H   H21       1.0  0.6310152281881686  0.9361615611283725  0.23638353025455666  1.0000
  H   H22       1.0  0.3689854168413548  0.06383661259621222  0.763616656847681  1.0000
  H   H23       1.0  0.11001572407467114  0.8723736135287223  0.740242942848546  1.0000
  H   H24       1.0  0.8899847322572045  0.12762671803097447  0.25975697602688547  1.0000
  H   H25       1.0  0.2100659363970365  0.8582934687908051  0.8586910420303794  1.0000
  H   H26       1.0  0.7899347086324865  0.1417047049337796  0.1413091450718583  1.0000
  H   H27       1.0  0.25030165691687506  0.7204875264788625  0.741848485895744  1.0000
  H   H28       1.0  0.7496975568389529  0.27951280321659766  0.2581519433380137  1.0000
  C   C1        1.0  0.09075820123477032  0.4196794720978546  0.15524874513219084  1.0000
  C   C2        1.0  0.9092420945167136  0.5803230822077623  0.8447468376359524  1.0000
  C   C3        1.0  0.180067741505006  0.3201735846364286  0.05609467435846231  1.0000
  C   C4        1.0  0.8199338771127246  0.6798278601604578  0.9439025661049953  1.0000
  C   C5        1.0  0.21967868773544555  0.26569865055426334  0.2661372991128417  1.0000
  C   C6        1.0  0.7803167180020341  0.7343027849214749  0.7338624931422545  1.0000
  C   C7        1.0  0.5524775482911367  0.1385168414395963  0.991405551941767  1.0000
  C   C8        1.0  0.44752174575489084  0.8614823768829039  0.008597045345631237  1.0000
  C   C9        1.0  0.3836483362718539  0.1093274016438741  0.06218170027386087  1.0000
  C   C10       1.0  0.6163508845132882  0.8906729442792951  0.9378177119897727  1.0000
  C   C11       1.0  0.3310095034604856  0.9749708720834678  0.07165420559447  1.0000
  C   C12       1.0  0.6689908655518836  0.02503055462148041  0.9283445621974376  1.0000
  C   C13       1.0  0.6054916072154982  0.2837048150336087  0.9852978134978159  1.0000
  C   C14       1.0  0.39450636396428257  0.7162955127976218  0.014703126094275532  1.0000
  C   C15       1.0  0.24169642011858633  0.7470991079447771  0.45482692684759474  1.0000
  C   C16       1.0  0.7583029612469403  0.2528990152324653  0.5451768215233344  1.0000
  C   C17       1.0  0.402555023219371  0.5614386641606258  0.3558385715633391  1.0000
  C   C18       1.0  0.5974467840960075  0.43856062280115543  0.6441589371269245  1.0000
  C   C19       1.0  0.5031213561837761  0.6510216169016021  0.3651072962547416  1.0000
  C   C20       1.0  0.4968791071774207  0.34897873088579695  0.6348916056505659  1.0000
  C   C21       1.0  0.4465506338465347  0.8867660281108911  0.4680152181350363  1.0000
  C   C22       1.0  0.5534525695959689  0.11323102174148399  0.5319871332743062  1.0000
  C   C23       1.0  0.5747764836943929  0.9653960834599074  0.35205077928603157  1.0000
  C   C24       1.0  0.4252267267774243  0.03460098262017651  0.6479505551531943  1.0000
  C   C25       1.0  0.36752095047402383  0.9191854964352332  0.6196313464407979  1.0000
  C   C26       1.0  0.6324821656489733  0.0808126485624001  0.38036985388502836  1.0000
  C   C27       1.0  0.22830492350961157  0.8373304702466626  0.7466410592901055  1.0000
  C   C28       1.0  0.7716955257929572  0.16266984508532534  0.2533598765554501  1.0000
  N   N1        1.0  0.11655974455921131  0.38411154904373035  0.28515211283693986  1.0000
  N   N2        1.0  0.8834380590108637  0.6158909853057253  0.71484550761798  1.0000
  N   N3        1.0  0.26112739835673443  0.22323551669828134  0.1281610588366817  1.0000
  N   N4        1.0  0.7388705798523532  0.7767648273606583  0.8718388637852852  1.0000
  N   N5        1.0  0.24059420889750532  0.6225458127634623  0.4113059018058395  1.0000
  N   N6        1.0  0.7594063347538836  0.3774534236509695  0.5886951681531158  1.0000
  N   N7        1.0  0.07746113842193843  0.21058121795172008  0.7011809911073001  1.0000
  N   N8        1.0  0.9225393249392511  0.7894191298356787  0.2988179107980073  1.0000
  N   N9        1.0  0.3984456951741962  0.7682706468639393  0.42966532426431314  1.0000
  N   N10       1.0  0.6015548484771926  0.23172858955049241  0.5703357456946422  1.0000
  O   O1        1.0  0.14781022824351447  0.3275897417507494  0.6213290108121966  1.0000
  O   O2        1.0  0.8521877429362662  0.6724105860804883  0.37867192877989453  1.0000
  O   O3        1.0  0.039183353490813  0.1270373280940689  0.6384555796298343  1.0000
  O   O4        1.0  0.9608210262961734  0.8729608674509068  0.3615420594273005  1.0000
  O   O5        1.0  0.050348278272146316  0.18374030094170024  0.8396170309781184  1.0000
  O   O6        1.0  0.949650942512996  0.8162600449814691  0.1603823812855154  1.0000
