data_image0
_chemical_formula_structural       Hg4H62C38N6Cl8O4
_chemical_formula_sum              "Hg4 H62 C38 N6 Cl8 O4"
_cell_length_a       7.165516224358629
_cell_length_b       11.142950058042631
_cell_length_c       17.53160517005816
_cell_angle_alpha    80.49345857815621
_cell_angle_beta     84.30260824991356
_cell_angle_gamma    73.11675081581933

_space_group_name_H-M_alt    "P 1"
_space_group_IT_number       1

loop_
  _space_group_symop_operation_xyz
  'x, y, z'

loop_
  _atom_site_type_symbol
  _atom_site_label
  _atom_site_symmetry_multiplicity
  _atom_site_fract_x
  _atom_site_fract_y
  _atom_site_fract_z
  _atom_site_occupancy
  Hg  Hg1       1.0  0.08123438027978837  0.38435691503742225  0.5969040741500535  1.0000
  Hg  Hg2       1.0  0.91876595126773  0.6156401275647667  0.4030960395387737  1.0000
  Hg  Hg3       1.0  0.7839178664172053  0.9052728624550642  0.5033073755476778  1.0000
  Hg  Hg4       1.0  0.2160870592138195  0.09472323370035701  0.49669093126267677  1.0000
  H   H1        1.0  0.6744307724299361  0.5686351717147744  0.5565076451824496  1.0000
  H   H2        1.0  0.325565561152125  0.4313580888925089  0.443492462480691  1.0000
  H   H3        1.0  0.33706083407032134  0.6300579162155772  0.6158542004991859  1.0000
  H   H4        1.0  0.6629427269828129  0.3699315495002509  0.3841454271501235  1.0000
  H   H5        1.0  0.8596051256482158  0.28277256328894407  0.7402790544994247  1.0000
  H   H6        1.0  0.14039881235872548  0.7172292049188017  0.259722124028734  1.0000
  H   H7        1.0  0.4585821622466213  0.22083491967497793  0.7324004381078808  1.0000
  H   H8        1.0  0.5414119674258162  0.779166855817081  0.2676022957984331  1.0000
  H   H9        1.0  0.1488974107347829  0.2174008466978279  0.8080730168011883  1.0000
  H   H10       1.0  0.8511051766167345  0.7825942870701682  0.19193062320444906  1.0000
  H   H11       1.0  0.252530247297905  0.0549927068097702  0.8471044448789372  1.0000
  H   H12       1.0  0.7474797404962531  0.9450014772873061  0.15289726975119317  1.0000
  H   H13       1.0  0.2261038628730674  0.0986550442565672  0.7458024147180211  1.0000
  H   H14       1.0  0.773899302878526  0.9013419871211495  0.2541998617508199  1.0000
  H   H15       1.0  0.7664012853681899  0.052816377622661996  0.7606093228591888  1.0000
  H   H16       1.0  0.23360118301257418  0.9471920322491417  0.23938837205000849  1.0000
  H   H17       1.0  0.5955199825031202  0.9941087247926392  0.7225507027648418  1.0000
  H   H18       1.0  0.404484100630448  0.005895896635983901  0.27744674912459993  1.0000
  H   H19       1.0  0.6358177748318001  0.9578052674941592  0.8232113244663638  1.0000
  H   H20       1.0  0.3641913286974869  0.042197453876625005  0.17678611332726749  1.0000
  H   H21       1.0  0.48112707676596506  0.052866881884732195  0.9220369963436426  1.0000
  H   H22       1.0  0.518863435690321  0.9471367920530938  0.07796569240996118  1.0000
  H   H23       1.0  0.20092135565167982  0.2307416176483699  0.9576102436694995  1.0000
  H   H24       1.0  0.7990725137188763  0.7692639586753814  0.0423886817732182  1.0000
  H   H25       1.0  0.3653036033917588  0.3003962651863006  0.9916241978916033  1.0000
  H   H26       1.0  0.6346842617544868  0.6996102611963765  0.00837602335883498  1.0000
  H   H27       1.0  0.3414099293431578  0.1502250244713323  0.038360068453535186  1.0000
  H   H28       1.0  0.658576127195012  0.8497824511342315  0.9616401302205446  1.0000
  H   H29       1.0  0.8219193685708962  0.057219444065438586  0.9202156159559323  1.0000
  H   H30       1.0  0.17807416877899856  0.9427804378170563  0.07978734084865378  1.0000
  H   H31       1.0  0.7182752464071173  0.0575731584824624  0.0166570587094057  1.0000
  H   H32       1.0  0.28171508611637114  0.9424276722349064  0.983346505086608  1.0000
  H   H33       1.0  0.7488604386272899  0.20062940876260882  0.9619528038642571  1.0000
  H   H34       1.0  0.25113590508173905  0.7993704698957486  0.03805003444329461  1.0000
  H   H35       1.0  0.912404933373644  0.7198691403897612  0.8587410218702373  1.0000
  H   H36       1.0  0.08759092137206187  0.28013170988040764  0.14125489078129053  1.0000
  H   H37       1.0  0.010280942657196528  0.5077367550230251  0.9366180667972587  1.0000
  H   H38       1.0  0.9897101273154622  0.4922688225247855  0.06338154746175918  1.0000
  H   H39       1.0  0.9198046300663167  0.4419218895525746  0.8668485448867642  1.0000
  H   H40       1.0  0.08018686621856133  0.5580827343841647  0.1331528621549225  1.0000
  H   H41       1.0  0.7556807849046696  0.5532049576328645  0.9201866760575541  1.0000
  H   H42       1.0  0.24431348989440244  0.44679967108007906  0.07981233121003578  1.0000
  H   H43       1.0  0.8072542063327436  0.7486534580512157  0.7232118133197147  1.0000
  H   H44       1.0  0.19274627034140934  0.2513464377718506  0.2767845737303887  1.0000
  H   H45       1.0  0.6340382684596834  0.7099844690945503  0.7953354085028081  1.0000
  H   H46       1.0  0.36595937401039447  0.290015437952988  0.2046588157672815  1.0000
  H   H47       1.0  0.7815759424689478  0.5926855490157834  0.7402587088669321  1.0000
  H   H48       1.0  0.21843155706427106  0.40731433674685746  0.2597379522598402  1.0000
  H   H49       1.0  0.3993951870272172  0.6464716668980656  0.7836254559085774  1.0000
  H   H50       1.0  0.6006069809733248  0.3535244184809017  0.2163769616336566  1.0000
  H   H51       1.0  0.3292089528467272  0.5960142873138353  0.9237438823003287  1.0000
  H   H52       1.0  0.670786160654302  0.40398843817713725  0.07625756989406798  1.0000
  H   H53       1.0  0.13019074982047132  0.7373603285600723  0.9221831495477844  1.0000
  H   H54       1.0  0.8698071561172187  0.26264239770693365  0.07781704351104679  1.0000
  H   H55       1.0  0.37134789743204527  0.7474161936825894  0.8993822583436852  1.0000
  H   H56       1.0  0.6286512317524142  0.252583687751887  0.10061875050903522  1.0000
  H   H57       1.0  0.1691144748111597  0.8191857121623798  0.7004979267682714  1.0000
  H   H58       1.0  0.8308954712155912  0.1808084839351949  0.2995003659462796  1.0000
  H   H59       1.0  0.2788450905797933  0.8792099527649883  0.7663403969421835  1.0000
  H   H60       1.0  0.721159017232985  0.12078804061214041  0.23365717589916102  1.0000
  H   H61       1.0  0.03357916273743207  0.8734014734684835  0.7846882165561126  1.0000
  H   H62       1.0  0.9664259219426937  0.12659747190764395  0.21530750425404926  1.0000
  C   C1        1.0  0.6359840272624382  0.5185587719058234  0.6117828882968368  1.0000
  C   C2        1.0  0.36402269305420276  0.48143637902687425  0.3882143004513594  1.0000
  C   C3        1.0  0.4488026393923619  0.5538654273774528  0.6461568773660318  1.0000
  C   C4        1.0  0.5511920794368949  0.446131621673011  0.3538434733168714  1.0000
  C   C5        1.0  0.4069133172307248  0.48925034444429366  0.7180624023751534  1.0000
  C   C6        1.0  0.5930936526310545  0.5107476297080356  0.28193961452325306  1.0000
  C   C7        1.0  0.5557293464171523  0.3892318754428318  0.753245643951132  1.0000
  C   C8        1.0  0.4442784064567179  0.6107642114881955  0.2467542553199777  1.0000
  C   C9        1.0  0.7391347318651357  0.3586058742826168  0.7149421844255315  1.0000
  C   C10       1.0  0.26087180472320176  0.6413930554808617  0.2850574693709476  1.0000
  C   C11       1.0  0.5318632903315647  0.3286473082785193  0.8358188105247564  1.0000
  C   C12       1.0  0.4681402283243942  0.6713554115402047  0.1641811455399989  1.0000
  C   C13       1.0  0.46205300243099867  0.15198418126750113  0.7852004609806187  1.0000
  C   C14       1.0  0.5379447096514198  0.8480157057792042  0.2147994664820985  1.0000
  C   C15       1.0  0.25995696493838244  0.12930700859709532  0.7979712143065925  1.0000
  C   C16       1.0  0.7400504103519128  0.8706900179444119  0.20203088441668632  1.0000
  C   C17       1.0  0.6245997899332495  0.0322053444558037  0.7726246243931669  1.0000
  C   C18       1.0  0.3754029039432255  0.9677992745847207  0.22737402738331267  1.0000
  C   C19       1.0  0.507659964967921  0.14300439436406256  0.9281011455357557  1.0000
  C   C20       1.0  0.49233235609644066  0.8569983303508836  0.07190156579419947  1.0000
  C   C21       1.0  0.343831540813838  0.21073646056279932  0.9821757308161381  1.0000
  C   C22       1.0  0.6561617501566417  0.7892672181512239  0.017824558163375984  1.0000
  C   C23       1.0  0.7118119350082708  0.11299491316924562  0.9585291891360229  1.0000
  C   C24       1.0  0.2881793952662762  0.8870068635468727  0.04147423358659099  1.0000
  C   C25       1.0  0.20188730950103212  0.5128647491707455  0.7539730956700552  1.0000
  C   C26       1.0  0.7981132159017579  0.4871351326517371  0.24602728361488596  1.0000
  C   C27       1.0  0.9296262077444906  0.6362882681769266  0.8301778566866956  1.0000
  C   C28       1.0  0.07036887095036798  0.36371446731446616  0.1698207439113872  1.0000
  C   C29       1.0  0.9030624299413221  0.5279944277675243  0.8923395685129022  1.0000
  C   C30       1.0  0.09693383339863013  0.4720120949429968  0.10765858628864321  1.0000
  C   C31       1.0  0.7799496613575062  0.6738257027524313  0.7681466810158498  1.0000
  C   C32       1.0  0.22005323016973222  0.32617513345714855  0.23185064635086414  1.0000
  C   C33       1.0  0.25281013618655385  0.690722702879178  0.8075463162546086  1.0000
  C   C34       1.0  0.7471893914651846  0.309276232944562  0.1924542041037256  1.0000
  C   C35       1.0  0.2705899457091193  0.6921787961987392  0.893448426966657  1.0000
  C   C36       1.0  0.7294083726183161  0.30782298045736667  0.10655241823631197  1.0000
  C   C37       1.0  0.17870585346594234  0.8228543840912582  0.7620754874991604  1.0000
  C   C38       1.0  0.8213000768773782  0.17714265606281998  0.23792324855706679  1.0000
  N   N1        1.0  0.7774124744512959  0.42284962373494756  0.6460587314851765  1.0000
  N   N2        1.0  0.22259028587178886  0.5771483552535912  0.3539434631587852  1.0000
  N   N3        1.0  0.5022358112201175  0.21237467554090728  0.848435530765336  1.0000
  N   N4        1.0  0.49776373035408755  0.7876242562826687  0.1515661302315294  1.0000
  N   N5        1.0  0.13244572470019012  0.6085796161908734  0.7957424894163765  1.0000
  N   N6        1.0  0.8675532106289978  0.3914174260233025  0.2042582538402371  1.0000
  Cl  Cl1       1.0  0.03254250821014183  0.6363138281445586  0.5495431510942481  1.0000
  Cl  Cl2       1.0  0.9674590326616795  0.3636803736252645  0.4504566377499444  1.0000
  Cl  Cl3       1.0  0.4126030055546579  0.26667895911456446  0.5794288066778108  1.0000
  Cl  Cl4       1.0  0.587399314533741  0.7333199774852021  0.4205704545449649  1.0000
  Cl  Cl5       1.0  0.023441012027866612  0.9284999684272252  0.40457695896293433  1.0000
  Cl  Cl6       1.0  0.9765631097073783  0.07149802094973981  0.5954217545169342  1.0000
  Cl  Cl7       1.0  0.5364547981771396  0.8935375919188502  0.599984679161544  1.0000
  Cl  Cl8       1.0  0.4635545378090953  0.10646133662056911  0.4000142858186351  1.0000
  O   O1        1.0  0.5488201005219653  0.3882638858923002  0.8877181845922025  1.0000
  O   O2        1.0  0.45118323820119627  0.6117359907059593  0.11228264651496292  1.0000
  O   O3        1.0  0.10816231340735523  0.4385083054076875  0.7430792566653749  1.0000
  O   O4        1.0  0.8918462851297021  0.5614858763012975  0.2569236578518002  1.0000
