data_image0
_chemical_formula_structural       Mg2H32C48N4O8
_chemical_formula_sum              "Mg2 H32 C48 N4 O8"
_cell_length_a       8.509543569232886
_cell_length_b       12.200749383950516
_cell_length_c       12.200753394836916
_cell_angle_alpha    77.10451914898148
_cell_angle_beta     74.59115883819287
_cell_angle_gamma    74.59122494566833

_space_group_name_H-M_alt    "P 1"
_space_group_IT_number       1

loop_
  _space_group_symop_operation_xyz
  'x, y, z'

loop_
  _atom_site_type_symbol
  _atom_site_label
  _atom_site_symmetry_multiplicity
  _atom_site_fract_x
  _atom_site_fract_y
  _atom_site_fract_z
  _atom_site_occupancy
  Mg  Mg1       1.0  0.750000213619586  0.5749745342229603  0.4250257290809858  1.0000
  Mg  Mg2       1.0  0.2500007056589411  0.4250276063852638  0.5749721886357833  1.0000
  H   H1        1.0  0.1724045555850963  0.6749501512636586  0.6738440454131763  1.0000
  H   H2        1.0  0.32759388824401736  0.32615524899139103  0.3250475084693676  1.0000
  H   H3        1.0  0.8275958073737044  0.3250536921969528  0.32615525421978486  1.0000
  H   H4        1.0  0.6724024151121809  0.6738460663237406  0.6749465267186852  1.0000
  H   H5        1.0  0.1621341011776351  0.8389119368391676  0.7700575623424657  1.0000
  H   H6        1.0  0.33786427502968064  0.22993776547851036  0.16108836245673797  1.0000
  H   H7        1.0  0.8378638333106636  0.16109188341943081  0.229943014621945  1.0000
  H   H8        1.0  0.6621361788150251  0.7700583608570217  0.8389084585563326  1.0000
  H   H9        1.0  0.9385363618082041  0.016988652499094304  0.7526917113827454  1.0000
  H   H10       1.0  0.5614623349000707  0.24730567515903357  0.9830102391284615  1.0000
  H   H11       1.0  0.06145943828710902  0.9830142620439518  0.24731191462653612  1.0000
  H   H12       1.0  0.4385396192985809  0.7526895958076382  0.01698648359654703  1.0000
  H   H13       1.0  0.7366522204427849  0.864427430648064  0.5489579149573275  1.0000
  H   H14       1.0  0.7633457568765679  0.45104342164105304  0.1355695528422204  1.0000
  H   H15       1.0  0.26334714729189573  0.13557204958000574  0.451045774340642  1.0000
  H   H16       1.0  0.2366511346346556  0.5489561286470136  0.864428025772668  1.0000
  H   H17       1.0  0.6189372576377539  0.35150657615562153  0.591655869636398  1.0000
  H   H18       1.0  0.881070538665405  0.40834152491370207  0.6484946158532452  1.0000
  H   H19       1.0  0.38107125174156664  0.6484947308202325  0.4083416295804483  1.0000
  H   H20       1.0  0.11893705320912311  0.5916588827663889  0.3515057041879929  1.0000
  H   H21       1.0  0.8461259928815467  0.17784785789389457  0.6172519711251141  1.0000
  H   H22       1.0  0.653878509141542  0.3827471944210147  0.8221484815661029  1.0000
  H   H23       1.0  0.15387786530318695  0.8221490769525063  0.3827497815276574  1.0000
  H   H24       1.0  0.34612512737911766  0.6172540972381456  0.177849109642125  1.0000
  H   H25       1.0  0.48841245067044536  0.9703415810534682  0.6570507294588597  1.0000
  H   H26       1.0  0.011584039565100587  0.342946948462192  0.029661453242241016  1.0000
  H   H27       1.0  0.5115867007060475  0.029662245624919606  0.34294961928507933  1.0000
  H   H28       1.0  0.9884130895278458  0.6570482139257764  0.970342749488687  1.0000
  H   H29       1.0  0.2738290201713626  0.15400412863676394  0.633891208724485  1.0000
  H   H30       1.0  0.22617076468412015  0.36610709710989664  0.8460002919709383  1.0000
  H   H31       1.0  0.7261722815157654  0.8460005726698301  0.36610855364609307  1.0000
  H   H32       1.0  0.7738309644135057  0.6338889216585103  0.15400533061720276  1.0000
  C   C1        1.0  0.9684409226895453  0.6639771099671636  0.5431905888655637  1.0000
  C   C2        1.0  0.5315507023946112  0.4568089952051226  0.33602339576740553  1.0000
  C   C3        1.0  0.031542208699889274  0.3360309486169869  0.45681184886199594  1.0000
  C   C4        1.0  0.4684537473820996  0.5431897836252448  0.6639688390045251  1.0000
  C   C5        1.0  0.9566968184558533  0.7611281858085946  0.6050416455932109  1.0000
  C   C6        1.0  0.5433000962042056  0.39496057169745313  0.2388705320734418  1.0000
  C   C7        1.0  0.04330442142960317  0.238873020473875  0.3949621482895014  1.0000
  C   C8        1.0  0.4566952949530717  0.6050398339594666  0.7611271448295014  1.0000
  C   C9        1.0  0.0758397530563143  0.7535864769206956  0.6679590188891569  1.0000
  C   C10       1.0  0.4241575317588514  0.33203947752763  0.24641246642777054  1.0000
  C   C11       1.0  0.9241575261694026  0.24641562370328532  0.3320412252700393  1.0000
  C   C12       1.0  0.5758430051110679  0.6679601023822387  0.7535836066351892  1.0000
  C   C13       1.0  0.06913816933256096  0.8454570456324221  0.7209037961716123  1.0000
  C   C14       1.0  0.43085916395385504  0.27909555282374043  0.1545416518363041  1.0000
  C   C15       1.0  0.9308626881442952  0.15454159995168484  0.27909815305728364  1.0000
  C   C16       1.0  0.5691383104065082  0.7209022427997099  0.8454586493149068  1.0000
  C   C17       1.0  0.9439184977088217  0.9452769942722273  0.7110405482763156  1.0000
  C   C18       1.0  0.55607909236398  0.2889581101991681  0.05472122337977229  1.0000
  C   C19       1.0  0.0560793643660347  0.054723351687144414  0.2889624184192101  1.0000
  C   C20       1.0  0.4439213667866183  0.7110380057739152  0.9452764185237967  1.0000
  C   C21       1.0  0.8211383333857397  0.9532492974595218  0.6501634725178819  1.0000
  C   C22       1.0  0.6788598466770636  0.34983749719302193  0.046748817598405906  1.0000
  C   C23       1.0  0.17885981215486882  0.046750186711207724  0.3498396241100609  1.0000
  C   C24       1.0  0.32113855579986245  0.6501611770012944  0.9532503045094175  1.0000
  C   C25       1.0  0.8288971301973972  0.8601105847082314  0.59786516279533  1.0000
  C   C26       1.0  0.6710971059394523  0.40213379185021847  0.1398884239680172  1.0000
  C   C27       1.0  0.1710967924412472  0.139890614142864  0.4021375377387103  1.0000
  C   C28       1.0  0.32890129123158834  0.5978648927065465  0.8601098772493077  1.0000
  C   C29       1.0  0.5936934300033414  0.26538279249658103  0.6095001120764678  1.0000
  C   C30       1.0  0.9063113756911748  0.3904975735903875  0.7346156421889276  1.0000
  C   C31       1.0  0.40631049528894897  0.7346176270114952  0.39049842995467543  1.0000
  C   C32       1.0  0.0936952774550193  0.6095019762437276  0.2653842151146932  1.0000
  C   C33       1.0  0.7204207758025376  0.1679452945093658  0.6234874542232235  1.0000
  C   C34       1.0  0.7795812438619194  0.3765108752624615  0.8320537375616937  1.0000
  C   C35       1.0  0.279581659747585  0.8320559596426663  0.37651282787699364  1.0000
  C   C36       1.0  0.22042201555601787  0.6234878453358876  0.1679428298832306  1.0000
  C   C37       1.0  0.6874972643630174  0.05809395663501252  0.6396432301872538  1.0000
  C   C38       1.0  0.8125017804840694  0.3603548412293875  0.941903416665582  1.0000
  C   C39       1.0  0.3124996536776268  0.9419055418408251  0.360358452880142  1.0000
  C   C40       1.0  0.1875020617830144  0.6396421247043523  0.05809587331567909  1.0000
  C   C41       1.0  0.5230327702265923  0.05302866213216361  0.643280021320905  1.0000
  C   C42       1.0  0.976963888053476  0.35671843292448113  0.9469741804313473  1.0000
  C   C43       1.0  0.4769636639077674  0.9469760134952881  0.3567206539315679  1.0000
  C   C44       1.0  0.023037814514736934  0.6432776376561622  0.05302733770427181  1.0000
  C   C45       1.0  0.40278011098279626  0.15481665318586124  0.6310515033070702  1.0000
  C   C46       1.0  0.09722131100579653  0.36894566365079834  0.8451849664502049  1.0000
  C   C47       1.0  0.5972208082957307  0.8451854874223701  0.3689464144096987  1.0000
  C   C48       1.0  0.9027825577907079  0.6310512504707123  0.15481842798357096  1.0000
  N   N1        1.0  0.4361063806298942  0.2599810082780466  0.6135474698656793  1.0000
  N   N2        1.0  0.06389641612433654  0.3864507088122481  0.7400196970114409  1.0000
  N   N3        1.0  0.563898189313221  0.7400211515895384  0.38644976318967394  1.0000
  N   N4        1.0  0.9361068645171359  0.6135479703363205  0.25998015399549973  1.0000
  O   O1        1.0  0.09456276302563531  0.5810140017367191  0.5433243283928848  1.0000
  O   O2        1.0  0.40543332118494385  0.45667761763965603  0.4189806650615824  1.0000
  O   O3        1.0  0.9054392901158719  0.4189846917169576  0.4566741090535231  1.0000
  O   O4        1.0  0.594560631420073  0.5433271384102413  0.5810130786172962  1.0000
  O   O5        1.0  0.8513928216141903  0.6742815922095177  0.49263484405880587  1.0000
  O   O6        1.0  0.6486069051651383  0.5073653192657022  0.3257173904763206  1.0000
  O   O7        1.0  0.1486099345428613  0.32571872761675996  0.5073713142073473  1.0000
  O   O8        1.0  0.3513883976610543  0.49263164317932984  0.6742802134862276  1.0000
