data_image0
_chemical_formula_structural       Mg4H24C20N8O24
_chemical_formula_sum              "Mg4 H24 C20 N8 O24"
_cell_length_a       6.033877552006904
_cell_length_b       6.27877755675721
_cell_length_c       19.76621401301843
_cell_angle_alpha    92.26225787695668
_cell_angle_beta     90.00005747141044
_cell_angle_gamma    89.99983703407857

_space_group_name_H-M_alt    "P 1"
_space_group_IT_number       1

loop_
  _space_group_symop_operation_xyz
  'x, y, z'

loop_
  _atom_site_type_symbol
  _atom_site_label
  _atom_site_symmetry_multiplicity
  _atom_site_fract_x
  _atom_site_fract_y
  _atom_site_fract_z
  _atom_site_occupancy
  Mg  Mg1       1.0  0.15803317540675008  0.5759208156903242  0.7992930539988026  1.0000
  Mg  Mg2       1.0  0.6580234942135306  0.4240813634858752  0.7007070334230651  1.0000
  Mg  Mg3       1.0  0.8419674101227558  0.42407814036825203  0.20070736896321512  1.0000
  Mg  Mg4       1.0  0.34197046207511045  0.57592078039972  0.2992934293408852  1.0000
  H   H1        1.0  0.7198892729414654  0.697503515830057  0.9981251766545614  1.0000
  H   H2        1.0  0.2198855188259259  0.3025016827773754  0.501877497051659  1.0000
  H   H3        1.0  0.28011131258492844  0.302497033871596  0.0018747602917699002  1.0000
  H   H4        1.0  0.780106780154476  0.6975004613763715  0.4981234716291711  1.0000
  H   H5        1.0  0.1453011348481681  0.8761598706819385  0.7044483219969992  1.0000
  H   H6        1.0  0.6453042393707662  0.1238407492334161  0.795551236130507  1.0000
  H   H7        1.0  0.8547027652986543  0.12383908510620502  0.29555159504837303  1.0000
  H   H8        1.0  0.35469634615708395  0.8761582062933896  0.20444817499731022  1.0000
  H   H9        1.0  0.17167858653226625  0.009817787314702299  0.775652016516361  1.0000
  H   H10       1.0  0.671670648876166  0.9901779782540318  0.7243469831929377  1.0000
  H   H11       1.0  0.8283253136137246  0.990181168207556  0.22434739461190392  1.0000
  H   H12       1.0  0.3283299366516843  0.0098209772727742  0.2756524279348725  1.0000
  H   H13       1.0  0.0641306887940232  0.2047277211311354  0.8634287316224633  1.0000
  H   H14       1.0  0.5641213742119149  0.7952747151430231  0.6365703183170058  1.0000
  H   H15       1.0  0.9358715540374973  0.795274421945429  0.13657021339130185  1.0000
  H   H16       1.0  0.43588086862271785  0.2047258342904712  0.3634291127124457  1.0000
  H   H17       1.0  0.3246844869470565  0.22908147138306842  0.8561046825454146  1.0000
  H   H18       1.0  0.8246752672447215  0.7709186561283375  0.6438944186595209  1.0000
  H   H19       1.0  0.6753210705102929  0.7709158902279611  0.14389470868166407  1.0000
  H   H20       1.0  0.17532863289670075  0.22908348721183808  0.3561050322715716  1.0000
  H   H21       1.0  0.05779399831801159  0.8507583212154515  0.9506588868313205  1.0000
  H   H22       1.0  0.5577929087734576  0.1492377557333384  0.5493380581044108  1.0000
  H   H23       1.0  0.9422065872067265  0.1492422279544243  0.049340038280810516  1.0000
  H   H24       1.0  0.442197732904738  0.8507596066958033  0.45066285087194324  1.0000
  C   C1        1.0  0.5147954948096042  0.6755968074327541  0.9032543425826919  1.0000
  C   C2        1.0  0.014790329971091897  0.3244041713460036  0.5967466976490885  1.0000
  C   C3        1.0  0.4852067480273162  0.32440214809177803  0.09674506854535284  1.0000
  C   C4        1.0  0.985203626319837  0.6755963786306298  0.4032537452134407  1.0000
  C   C5        1.0  0.563386192823792  0.7163650322951726  0.972163428347159  1.0000
  C   C6        1.0  0.06338423588141501  0.28363421952299456  0.5278381111726632  1.0000
  C   C7        1.0  0.43661439270653796  0.2836339240292887  0.02783750053197311  1.0000
  C   C8        1.0  0.9366047484922858  0.7163599550905033  0.4721627580006357  1.0000
  C   C9        1.0  0.362705923238174  0.7833947893232603  0.0010463512084016011  1.0000
  C   C10       1.0  0.862707765764263  0.21660726210035355  0.4989539866457166  1.0000
  C   C11       1.0  0.6372930049814302  0.2166041664717042  0.9989535658362886  1.0000
  C   C12       1.0  0.1372928197667065  0.783390099783375  0.5010459104977869  1.0000
  C   C13       1.0  0.646999046377168  0.60363097037375  0.8434649092832277  1.0000
  C   C14       1.0  0.14697895180697168  0.39636964677625025  0.6565381907246037  1.0000
  C   C15       1.0  0.3530048537812931  0.3963616105762212  0.15653644590779695  1.0000
  C   C16       1.0  0.8530232910201646  0.6036372788248485  0.3434623317447248  1.0000
  C   C17       1.0  0.2878303832324249  0.8436347290269808  0.07087140555910311  1.0000
  C   C18       1.0  0.7878354873582722  0.1563627452956595  0.42912733438862477  1.0000
  C   C19       1.0  0.7121668876741721  0.1563658201474425  0.9291275195525731  1.0000
  C   C20       1.0  0.21215846894035198  0.8436330232199793  0.570873554686763  1.0000
  N   N1        1.0  0.2985281860911471  0.7143304689727399  0.8911943082772783  1.0000
  N   N2        1.0  0.7985169499675705  0.2856713252761836  0.6088068293529647  1.0000
  N   N3        1.0  0.7014757140525559  0.28567008045847325  0.1088051227524076  1.0000
  N   N4        1.0  0.20147866362907513  0.7143356021952127  0.3911972345351914  1.0000
  N   N5        1.0  0.21100901140977163  0.7785908562296909  0.950064417104905  1.0000
  N   N6        1.0  0.7110027417338003  0.2214111770659031  0.5499346729528797  1.0000
  N   N7        1.0  0.7889899168021443  0.2214128810262679  0.04993505372693361  1.0000
  N   N8        1.0  0.2889912145587914  0.7785893734425003  0.4500667817438641  1.0000
  O   O1        1.0  0.5314978530936258  0.550575846065513  0.7904282309752875  1.0000
  O   O2        1.0  0.0314777775429178  0.4494234932661527  0.7095732998321795  1.0000
  O   O3        1.0  0.46850604705713284  0.44942151634544547  0.2095726780028784  1.0000
  O   O4        1.0  0.968519493361576  0.5505802445238501  0.2904271828336392  1.0000
  O   O5        1.0  0.8548720181671354  0.601045674984718  0.8470555100588728  1.0000
  O   O6        1.0  0.3548601908677398  0.39895596627577123  0.6529486784634957  1.0000
  O   O7        1.0  0.14512856739396088  0.3989341554957805  0.15294720367167974  1.0000
  O   O8        1.0  0.64513210809168  0.6010573336453716  0.34704939402461593  1.0000
  O   O9        1.0  0.1633824739925203  0.8653315547391641  0.7542200004267416  1.0000
  O   O10       1.0  0.663377097614095  0.1346658277620634  0.7457795228354558  1.0000
  O   O11       1.0  0.8366181115369855  0.1346674013194189  0.24578042253527607  1.0000
  O   O12       1.0  0.33662183060239664  0.8653347216759714  0.2542199081935479  1.0000
  O   O13       1.0  0.18211273481974635  0.2588432708147863  0.8324721726716221  1.0000
  O   O14       1.0  0.6821036790958032  0.7411556536804509  0.6675263637732061  1.0000
  O   O15       1.0  0.8178928226384344  0.7411540910621212  0.16752772447256356  1.0000
  O   O16       1.0  0.31789856373425357  0.2588480835709532  0.33247310705908023  1.0000
  O   O17       1.0  0.4237977700408351  0.8341700253674275  0.1194955145260579  1.0000
  O   O18       1.0  0.923812631388671  0.1658254819936573  0.3805032426593017  1.0000
  O   O19       1.0  0.5762061301057956  0.1658273357141056  0.8805028648665857  1.0000
  O   O20       1.0  0.07619292606678127  0.8341766629395622  0.619499243774648  1.0000
  O   O21       1.0  0.0850933520421577  0.8977985733095366  0.07638014817199233  1.0000
  O   O22       1.0  0.5851068824049506  0.1022010503408168  0.42361703855201704  1.0000
  O   O23       1.0  0.9149105480961451  0.10220516367371597  0.9236188167434141  1.0000
  O   O24       1.0  0.4148986750490947  0.8977963102066653  0.5763803290066463  1.0000
