data_image0
_chemical_formula_structural       Zn6H64C38N4O34
_chemical_formula_sum              "Zn6 H64 C38 N4 O34"
_cell_length_a       9.058611770753735
_cell_length_b       12.041915522086388
_cell_length_c       13.80711168736717
_cell_angle_alpha    90.56422550699567
_cell_angle_beta     100.97148255505692
_cell_angle_gamma    102.91122927034705

_space_group_name_H-M_alt    "P 1"
_space_group_IT_number       1

loop_
  _space_group_symop_operation_xyz
  'x, y, z'

loop_
  _atom_site_type_symbol
  _atom_site_label
  _atom_site_symmetry_multiplicity
  _atom_site_fract_x
  _atom_site_fract_y
  _atom_site_fract_z
  _atom_site_occupancy
  Zn  Zn1       1.0  0.6201602253785339  0.20210256089678313  0.3690967828360599  1.0000
  Zn  Zn2       1.0  0.3798539711963045  0.7978888746410747  0.6309085670652836  1.0000
  Zn  Zn3       1.0  0.7402520769101882  0.2377264962340035  0.6372353752871264  1.0000
  Zn  Zn4       1.0  0.25974982681084674  0.7622594545714421  0.36276830467581794  1.0000
  Zn  Zn5       1.0  0.49998787396184247  7.77865651708905e-06  0.9999986436637017  1.0000
  Zn  Zn6       1.0  0.9999966210446446  0.49999397013815633  3.901298498475497e-06  1.0000
  H   H1        1.0  0.9068481427376441  0.6390817836131361  0.3880226954409452  1.0000
  H   H2        1.0  0.09314960192335771  0.3609167869162846  0.6119722019341722  1.0000
  H   H3        1.0  0.6632117939460543  0.6379625991185164  0.6268718041196878  1.0000
  H   H4        1.0  0.33678980086096294  0.3620311948582112  0.37313137230892585  1.0000
  H   H5        1.0  0.7586396487307567  0.8164333040249545  0.5551756635568311  1.0000
  H   H6        1.0  0.2413660437806584  0.1835596843008176  0.44482001272199784  1.0000
  H   H7        1.0  0.8393295678457022  0.8176420268839307  0.4462431696942276  1.0000
  H   H8        1.0  0.16067390606513504  0.18235085700532497  0.5537587552957888  1.0000
  H   H9        1.0  0.9550584707850831  0.8129887777299202  0.5625795863352252  1.0000
  H   H10       1.0  0.044942259647164924  0.1870088533196751  0.4374134681525703  1.0000
  H   H11       1.0  0.9472181306108071  0.4725094279093724  0.32494117499327774  1.0000
  H   H12       1.0  0.05278283609611382  0.5274918242822012  0.6750469556063623  1.0000
  H   H13       1.0  0.9467630868712718  0.35859911857158283  0.40551630813238404  1.0000
  H   H14       1.0  0.053233340916889915  0.6414045779995874  0.5944829458987472  1.0000
  H   H15       1.0  0.692587282194495  0.41586041085171394  0.1602417114898103  1.0000
  H   H16       1.0  0.3074384816705305  0.584154662475207  0.8397687167917668  1.0000
  H   H17       1.0  0.6423356200467865  0.4651167217854991  0.26802094951214184  1.0000
  H   H18       1.0  0.35768019058165385  0.5348988259284297  0.7319882886189504  1.0000
  H   H19       1.0  0.9152124512662071  0.2315203449636059  0.28147566261414886  1.0000
  H   H20       1.0  0.08478282448624  0.7684661552730108  0.7185199870383843  1.0000
  H   H21       1.0  0.8837258174341684  0.318690741066014  0.1792005416609044  1.0000
  H   H22       1.0  0.11628331233490735  0.6813078971790247  0.8208037072092011  1.0000
  H   H23       1.0  0.4941426492166486  0.46381782836127183  0.6549182310959979  1.0000
  H   H24       1.0  0.5058523281532459  0.5361768414890662  0.3450667833947493  1.0000
  H   H25       1.0  0.4697339628148499  0.3433333800762384  0.5742468245431028  1.0000
  H   H26       1.0  0.5302606958618129  0.656668829820262  0.42574709435309194  1.0000
  H   H27       1.0  0.40274571671317727  0.3028836614797116  0.7509602324838411  1.0000
  H   H28       1.0  0.5972373834408559  0.6971030921208199  0.2490440941677791  1.0000
  H   H29       1.0  0.5429884584386073  0.23232791121705523  0.8145906706797135  1.0000
  H   H30       1.0  0.4569937966396864  0.7676711873918621  0.18540888853928555  1.0000
  H   H31       1.0  0.704098452013291  0.39520371706917967  0.857333760573951  1.0000
  H   H32       1.0  0.29588439437423386  0.6048084085546392  0.14266485043088303  1.0000
  H   H33       1.0  0.7269825415483523  0.5064234150739466  0.7750246321175924  1.0000
  H   H34       1.0  0.27303006158626897  0.493581992321559  0.2249534523353702  1.0000
  H   H35       1.0  0.9032234335755832  0.922803257999881  0.7884203593566285  1.0000
  H   H36       1.0  0.09676702492683381  0.07720238748288472  0.21158040938613  1.0000
  H   H37       1.0  0.07379281326826263  0.0220035316377718  0.7686784630164284  1.0000
  H   H38       1.0  0.9262071329510277  0.977986705344591  0.23130266007626696  1.0000
  H   H39       1.0  0.9524634577921491  0.9345909596048968  0.6681397645120699  1.0000
  H   H40       1.0  0.047530245513755204  0.06538853759596461  0.33185981117642893  1.0000
  H   H41       1.0  0.757482642611265  0.024266929058455795  0.38587359823056033  1.0000
  H   H42       1.0  0.24252003429841543  0.9757181643691836  0.6141286980548487  1.0000
  H   H43       1.0  0.8173359776987824  0.09329243360323151  0.4925780921244681  1.0000
  H   H44       1.0  0.18267658432163358  0.9067037896545642  0.5074156247628921  1.0000
  H   H45       1.0  0.45612475467860497  0.09836962025529766  0.4876259398972423  1.0000
  H   H46       1.0  0.5438970963704222  0.9016324675991284  0.512388658320056  1.0000
  H   H47       1.0  0.4575653576507791  0.0092971741881058  0.4013650503109076  1.0000
  H   H48       1.0  0.5424490824618076  0.9907060173501917  0.5986523092132928  1.0000
  H   H49       1.0  0.37784413787171195  0.19604491466203913  0.03426915892188019  1.0000
  H   H50       1.0  0.6221548382345787  0.803959597744516  0.96572825706523  1.0000
  H   H51       1.0  0.2593206976312388  0.10668438350064242  0.9558626219246735  1.0000
  H   H52       1.0  0.7406635986817065  0.8933288438414023  0.0441267819204469  1.0000
  H   H53       1.0  0.48898897756186  0.004896205973096794  0.17370502853345476  1.0000
  H   H54       1.0  0.510991535226438  0.9951101470698377  0.8262873131820642  1.0000
  H   H55       1.0  0.31534257154240214  0.9311352976074191  0.13877974824107753  1.0000
  H   H56       1.0  0.6846325890359424  0.06885729468724118  0.8612158389424069  1.0000
  H   H57       1.0  0.2730871681493171  0.3871498212322139  0.05592624433560901  1.0000
  H   H58       1.0  0.726897187262523  0.6128515220848669  0.9440816133101607  1.0000
  H   H59       1.0  0.19020544506263798  0.39815487735060623  0.9443366610688815  1.0000
  H   H60       1.0  0.8097859046360584  0.6018556721679859  0.055672347246144234  1.0000
  H   H61       1.0  0.21052899678370102  0.7413551918941366  0.9732605373268229  1.0000
  H   H62       1.0  0.7894585866920352  0.2586490196236327  0.026734764042060995  1.0000
  H   H63       1.0  0.2736443103281516  0.6305076148390966  0.9860486969657245  1.0000
  H   H64       1.0  0.726358109053777  0.36950273402526074  0.013951502111268575  1.0000
  C   C1        1.0  0.8098027866423365  0.4735322750047787  0.4342409871851488  1.0000
  C   C2        1.0  0.1901950574795137  0.5264635723200684  0.5657574552438973  1.0000
  C   C3        1.0  0.8411143426435858  0.5929078116420003  0.43960204809745573  1.0000
  C   C4        1.0  0.15889468540790122  0.4070934798556607  0.560400826781745  1.0000
  C   C5        1.0  0.7945194499565389  0.6539039233602039  0.510675227896421  1.0000
  C   C6        1.0  0.20548536087842  0.346092365740148  0.489326971258116  1.0000
  C   C7        1.0  0.7071972343422886  0.591970779100123  0.5741405731248649  1.0000
  C   C8        1.0  0.29281554740335036  0.4080285523186901  0.4258641410032028  1.0000
  C   C9        1.0  0.6688744471682357  0.47278484495679873  0.5683856054961183  1.0000
  C   C10       1.0  0.33113556051606713  0.5272103759270763  0.4316157389366567  1.0000
  C   C11       1.0  0.7253556229070102  0.41273549645829627  0.5006120483422336  1.0000
  C   C12       1.0  0.27466345708967316  0.5872625741304631  0.49939628542906433  1.0000
  C   C13       1.0  0.8375994154924059  0.7818358101203132  0.5188191327051401  1.0000
  C   C14       1.0  0.16240339296535916  0.21815546443266237  0.4811797604519158  1.0000
  C   C15       1.0  0.8742446728282118  0.4108477886720436  0.36398310017838753  1.0000
  C   C16       1.0  0.12575551617658218  0.5891541809934323  0.6360107562248416  1.0000
  C   C17       1.0  0.648096876943754  0.38789648077187894  0.22685038238970634  1.0000
  C   C18       1.0  0.3519194781211255  0.6121148215954263  0.7731551590752376  1.0000
  C   C19       1.0  0.4815960152277157  0.3152851176374655  0.20068828405270273  1.0000
  C   C20       1.0  0.5184188989387053  0.684725362819421  0.7993177803198466  1.0000
  C   C21       1.0  0.8270186929155514  0.2644960703823855  0.23135410184527672  1.0000
  C   C22       1.0  0.1729856834752752  0.7355020673024413  0.7686452074018819  1.0000
  C   C23       1.0  0.707455618039539  0.1609106816610293  0.1785738876830933  1.0000
  C   C24       1.0  0.292536848858049  0.8391001649076487  0.8214243975557451  1.0000
  C   C25       1.0  0.5561725812327154  0.40650902565602104  0.6252249780806238  1.0000
  C   C26       1.0  0.44382968955883234  0.5934867040994263  0.3747710985534952  1.0000
  C   C27       1.0  0.49750368273800666  0.2622241496686684  0.7423855796829175  1.0000
  C   C28       1.0  0.5024931825032724  0.7377777915872838  0.2576136695048916  1.0000
  C   C29       1.0  0.4289908484981879  0.153941626538824  0.6753368706905933  1.0000
  C   C30       1.0  0.5710255822150289  0.8460583047844848  0.32467120344612976  1.0000
  C   C31       1.0  0.7321906584545703  0.4166963039986484  0.7853039647515845  1.0000
  C   C32       1.0  0.267792266590277  0.5833045438504456  0.21469428417432826  1.0000
  C   C33       1.0  0.8992390888162803  0.4101089636079962  0.7892911603218311  1.0000
  C   C34       1.0  0.1007400451814391  0.5898847767688267  0.21071726335122784  1.0000
  C   C35       1.0  0.8654172849199994  0.07360184342310559  0.7157398713806062  1.0000
  C   C36       1.0  0.13460691127136917  0.926398465086677  0.2842459704231075  1.0000
  C   C37       1.0  0.9527425491673682  0.9812425683975621  0.7364661913907256  1.0000
  C   C38       1.0  0.04725872194008221  0.0187507007188259  0.2635267848693061  1.0000
  N   N1        1.0  0.753800736427799  0.33012906781345214  0.29148189732676144  1.0000
  N   N2        1.0  0.24620906706907425  0.6698714362583474  0.7085174228118805  1.0000
  N   N3        1.0  0.6226271037339046  0.3412110157450599  0.7067971418258312  1.0000
  N   N4        1.0  0.3773621225709789  0.6587886645432519  0.29320183199260447  1.0000
  O   O1        1.0  0.6976449258014626  0.2975649191291936  0.5002759361212982  1.0000
  O   O2        1.0  0.30236806163610913  0.7024291757363202  0.4997293549255489  1.0000
  O   O3        1.0  0.4300921310052246  0.2599929459299659  0.2689761126888399  1.0000
  O   O4        1.0  0.5699126442839528  0.7400317767200592  0.7310328154349649  1.0000
  O   O5        1.0  0.4066979518037144  0.3189228105422899  0.1125938119828618  1.0000
  O   O6        1.0  0.5933132056595625  0.6810895367241798  0.887413307891528  1.0000
  O   O7        1.0  0.6143217365713411  0.1080104541337334  0.22983719204203376  1.0000
  O   O8        1.0  0.3856753566698927  0.8919948517737168  0.7701650938220583  1.0000
  O   O9        1.0  0.7057924433094982  0.13288382938652177  0.0889259115024998  1.0000
  O   O10       1.0  0.2941920757376622  0.8671325993858046  0.9110715948326276  1.0000
  O   O11       1.0  0.5141360199911489  0.12604272433837588  0.6174017594335482  1.0000
  O   O12       1.0  0.4858702011595142  0.8739455289771244  0.3826054176203186  1.0000
  O   O13       1.0  0.2985944704750949  0.09719117590171318  0.682017770195799  1.0000
  O   O14       1.0  0.701422716125073  0.9028073617455092  0.31800556507992894  1.0000
  O   O15       1.0  0.9327122981083988  0.353011456595631  0.7233943952644637  1.0000
  O   O16       1.0  0.0672739088335064  0.6469802122079713  0.2766148169989365  1.0000
  O   O17       1.0  0.0030296485363124613  0.4683391324777162  0.8591530269188967  1.0000
  O   O18       1.0  0.996953707943675  0.5316597735176317  0.14085100666510192  1.0000
  O   O19       1.0  0.7866293705614497  0.1021073058335062  0.42108102439278383  1.0000
  O   O20       1.0  0.2133756534879083  0.8978839798867142  0.5789145148037776  1.0000
  O   O21       1.0  0.4457188794648631  0.0878435124229  0.4150787990895353  1.0000
  O   O22       1.0  0.5542886986611961  0.9121566773565347  0.5849332829493791  1.0000
  O   O23       1.0  0.8537850447825407  0.11433980375237948  0.6284592845556888  1.0000
  O   O24       1.0  0.14625010432952484  0.8856624910094412  0.37153084777259693  1.0000
  O   O25       1.0  0.8090583619759855  0.11309736964573602  0.781714166528559  1.0000
  O   O26       1.0  0.1909106008238126  0.8868858819064228  0.21825645199019317  1.0000
  O   O27       1.0  0.3690353389529832  0.1364828573213472  0.9812445978762484  1.0000
  O   O28       1.0  0.6309458117146252  0.8635163406318613  0.018753381728458904  1.0000
  O   O29       1.0  0.4200455540973708  0.9461832539256605  0.122067154931699  1.0000
  O   O30       1.0  0.579934723168506  0.05381950129261529  0.8779293869842918  1.0000
  O   O31       1.0  0.20752669017259257  0.4306491379848866  0.011649519686365302  1.0000
  O   O32       1.0  0.7924679757671456  0.5693612067700684  0.9883613327208424  1.0000
  O   O33       1.0  0.19075360414522183  0.6639611473479476  0.9998853761259742  1.0000
  O   O34       1.0  0.8092380717691867  0.3360420952976426  0.00010749090684210929  1.0000
