data_image0
_chemical_formula_structural       ZnH24C22N4O4
_chemical_formula_sum              "Zn1 H24 C22 N4 O4"
_cell_length_a       5.963390648957875
_cell_length_b       8.956343730976833
_cell_length_c       10.66661821869659
_cell_angle_alpha    88.54161322909802
_cell_angle_beta     72.63243017637419
_cell_angle_gamma    90.65227770994586

_space_group_name_H-M_alt    "P 1"
_space_group_IT_number       1

loop_
  _space_group_symop_operation_xyz
  'x, y, z'

loop_
  _atom_site_type_symbol
  _atom_site_label
  _atom_site_symmetry_multiplicity
  _atom_site_fract_x
  _atom_site_fract_y
  _atom_site_fract_z
  _atom_site_occupancy
  Zn  Zn1       1.0  0.5000165543286244  0.5000025850132912  0.499997896993186  1.0000
  H   H1        1.0  0.7072138733214217  0.1891192990577437  0.71125259118147  1.0000
  H   H2        1.0  0.29279702047485767  0.8109041607682597  0.2887217553046995  1.0000
  H   H3        1.0  0.9997274443911055  0.34427486456942086  0.5441319709138455  1.0000
  H   H4        1.0  0.00032648018313348123  0.655729587150027  0.45584807213744233  1.0000
  H   H5        1.0  0.40868842336609396  0.40910476191179157  0.7917143969287821  1.0000
  H   H6        1.0  0.5913183146267187  0.5908705506142057  0.20828740009257973  1.0000
  H   H7        1.0  0.1313488378162404  0.2545428376077438  0.9723051189828665  1.0000
  H   H8        1.0  0.8686270951654366  0.7454502250240579  0.02768893354615189  1.0000
  H   H9        1.0  0.7829006982702469  0.10044274435833239  0.05366140789067232  1.0000
  H   H10       1.0  0.21705558642074146  0.8995760538166307  0.9463300911101626  1.0000
  H   H11       1.0  0.2593582520727225  0.9955282554432469  0.5118099600060617  1.0000
  H   H12       1.0  0.7406220822362999  0.0044723789821930005  0.4882064160660419  1.0000
  H   H13       1.0  0.2631154754134144  0.030202963890296496  0.6752309812189168  1.0000
  H   H14       1.0  0.736851593989279  0.9697811038655924  0.3247894278997165  1.0000
  H   H15       1.0  0.0338916255420187  0.9187779450423859  0.6458285295837456  1.0000
  H   H16       1.0  0.966096132908888  0.08120119510133607  0.3541829218315585  1.0000
  H   H17       1.0  0.5158305390507749  0.8909711866535229  0.7495982527749447  1.0000
  H   H18       1.0  0.48417478331037966  0.109036869002658  0.2504106369137986  1.0000
  H   H19       1.0  0.706883953933584  0.5840426795654704  0.8781506080700368  1.0000
  H   H20       1.0  0.29309179859056667  0.41594408739489097  0.12185410074750536  1.0000
  H   H21       1.0  0.7546679216148533  0.7820202717067913  0.8553174230351743  1.0000
  H   H22       1.0  0.24531165085052462  0.21796603332023778  0.1447044723887672  1.0000
  H   H23       1.0  0.9623215401678422  0.6545253274573782  0.7587022811880644  1.0000
  H   H24       1.0  0.0376688920308439  0.3454654311628857  0.24132033808573536  1.0000
  C   C1        1.0  0.8951911956256566  0.20774715142460556  0.8568828302814921  1.0000
  C   C2        1.0  0.10480688229655752  0.7922655428035127  0.1431008177175741  1.0000
  C   C3        1.0  0.8594984888881427  0.23521939420599128  0.7342273047231558  1.0000
  C   C4        1.0  0.1405082902287944  0.7647930525381382  0.2657511019687959  1.0000
  C   C5        1.0  0.023837748608251306  0.3224116963286576  0.6399628981904685  1.0000
  C   C6        1.0  0.9761967741861852  0.6775918251200463  0.3600195992599993  1.0000
  C   C7        1.0  0.2498823114917599  0.35843648477458595  0.7793805180330295  1.0000
  C   C8        1.0  0.7501357368846443  0.6415520656769969  0.2206177451923566  1.0000
  C   C9        1.0  0.09527627452809642  0.27267458114641124  0.8789485892560266  1.0000
  C   C10       1.0  0.904735651181035  0.7273316189259373  0.12104236650171167  1.0000
  C   C11       1.0  0.7406803352591995  0.11276775632315149  0.9603756278115511  1.0000
  C   C12       1.0  0.259287864005266  0.8872442387849941  0.0396150849680552  1.0000
  C   C13       1.0  0.22298438738945242  0.9464370828383006  0.6115456768994889  1.0000
  C   C14       1.0  0.7770060983979834  0.05355576214836328  0.3884730793175494  1.0000
  C   C15       1.0  0.36166486193507563  0.8057534972521481  0.6078062409970428  1.0000
  C   C16       1.0  0.6383312046396128  0.19424781534423363  0.3922008215337556  1.0000
  C   C17       1.0  0.5099566932393174  0.7953849428818883  0.689321490827524  1.0000
  C   C18       1.0  0.49004625784628086  0.20461304949215278  0.31068735981907747  1.0000
  C   C19       1.0  0.6457738113049488  0.6719035355709976  0.7029378586666297  1.0000
  C   C20       1.0  0.35423618343978097  0.3280944124192117  0.2970707170376983  1.0000
  C   C21       1.0  0.7750740333407152  0.6755301617073567  0.8051958605871334  1.0000
  C   C22       1.0  0.22491451213017655  0.3244613677572871  0.19481766606016038  1.0000
  N   N1        1.0  0.21681138270550807  0.3825188111350569  0.6611777381160238  1.0000
  N   N2        1.0  0.783219011203393  0.6174716840098354  0.3388145483605313  1.0000
  N   N3        1.0  0.5596989175002562  0.0430812865846448  0.9446903407553008  1.0000
  N   N4        1.0  0.44027392348635175  0.9569245175847385  0.055285801754003175  1.0000
  O   O1        1.0  0.6692982618639294  0.5523069810027293  0.6374684461721429  1.0000
  O   O2        1.0  0.3307228731460157  0.4477048823739834  0.3625253353901527  1.0000
  O   O3        1.0  0.32987520671051135  0.7052291662762612  0.5316560733315328  1.0000
  O   O4        1.0  0.6701330714248002  0.29476887509742494  0.4683546700923458  1.0000
