data_image0
_chemical_formula_structural       Ag4H12C28S4N8O8
_chemical_formula_sum              "Ag4 H12 C28 S4 N8 O8"
_cell_length_a       5.104237365464232
_cell_length_b       10.452376286958742
_cell_length_c       14.697676961419928
_cell_angle_alpha    89.99926129807983
_cell_angle_beta     90.00221612655876
_cell_angle_gamma    100.08611507058332

_space_group_name_H-M_alt    "P 1"
_space_group_IT_number       1

loop_
  _space_group_symop_operation_xyz
  'x, y, z'

loop_
  _atom_site_type_symbol
  _atom_site_label
  _atom_site_symmetry_multiplicity
  _atom_site_fract_x
  _atom_site_fract_y
  _atom_site_fract_z
  _atom_site_occupancy
  Ag  Ag1       1.0  0.7693985927901396  0.43732214196423785  0.4404287690022031  1.0000
  Ag  Ag2       1.0  0.23067184102124833  0.0626694075490946  0.9404276691518376  1.0000
  Ag  Ag3       1.0  0.23066246254543193  0.5627082781171993  0.5595736527105332  1.0000
  Ag  Ag4       1.0  0.7692563711592157  0.9373048163735473  0.05956794327159539  1.0000
  H   H1        1.0  0.80613809631123  0.9560295444770615  0.2701380479014119  1.0000
  H   H2        1.0  0.19388562102786014  0.5439557276367637  0.7701163634472152  1.0000
  H   H3        1.0  0.1938997340182596  0.04396247407213851  0.7298555285739  1.0000
  H   H4        1.0  0.8060977781911588  0.45602933073717383  0.2298799319259359  1.0000
  H   H5        1.0  0.43646586283320954  0.15971860179501363  0.47887388950868365  1.0000
  H   H6        1.0  0.5636390765449377  0.34029069646253157  0.9788661289222915  1.0000
  H   H7        1.0  0.5636865233742442  0.8403365772440452  0.5211020014944125  1.0000
  H   H8        1.0  0.4362475264451647  0.6596616975427807  0.0211233584613097  1.0000
  H   H9        1.0  0.7464905356698707  0.0102277527835426  0.4343378315209492  1.0000
  H   H10       1.0  0.2535915486091652  0.48979389190822076  0.9343296054077894  1.0000
  H   H11       1.0  0.25359430636704156  0.9898237914239303  0.5656530244668261  1.0000
  H   H12       1.0  0.7463225954679871  0.5101586314112083  0.0656666871762894  1.0000
  C   C1        1.0  0.13388416627248736  0.2858624067055828  0.3627609872607138  1.0000
  C   C2        1.0  0.8661112605428586  0.21413086940661694  0.8627586533622136  1.0000
  C   C3        1.0  0.8661494325712128  0.7141582768065787  0.6372468763105203  1.0000
  C   C4        1.0  0.13384176450090735  0.7858597142397203  0.13725260868374528  1.0000
  C   C5        1.0  0.6739543798311091  0.022036672761480212  0.29133982680311027  1.0000
  C   C6        1.0  0.3261142061302921  0.47797204748059846  0.7913286701903388  1.0000
  C   C7        1.0  0.3260983631582021  0.9779713134023992  0.708655791205274  1.0000
  C   C8        1.0  0.6738447527764607  0.5219985883202725  0.2086710261644384  1.0000
  C   C9        1.0  0.32275791618565824  0.1951134578911962  0.3427661641027058  1.0000
  C   C10       1.0  0.6772493332790502  0.3048864907019748  0.8427566798577146  1.0000
  C   C11       1.0  0.67728135106033  0.804916099568203  0.6572308134796359  1.0000
  C   C12       1.0  0.32272000919036975  0.6950970501677602  0.15724369711000463  1.0000
  C   C13       1.0  0.3614008789765535  0.16577325132370646  0.251218291503001  1.0000
  C   C14       1.0  0.638640291647519  0.3342285288270261  0.751211673355904  1.0000
  C   C15       1.0  0.638626575535298  0.8342260452640459  0.7487895722468707  1.0000
  C   C16       1.0  0.3613864077853464  0.6657668934827186  0.2487900670279188  1.0000
  C   C17       1.0  0.5333099814453419  0.08026709150239239  0.2254256463679312  1.0000
  C   C18       1.0  0.46675370630131846  0.41974739937243294  0.725416574805891  1.0000
  C   C19       1.0  0.46670964195669046  0.9197222841325899  0.774569289997295  1.0000
  C   C20       1.0  0.5332614854383877  0.5802494895571115  0.274587886474734  1.0000
  C   C21       1.0  0.4628954752861675  0.13700327591815412  0.4074916926542542  1.0000
  C   C22       1.0  0.5371397810557994  0.36301485174070797  0.9074897066316083  1.0000
  C   C23       1.0  0.5371724740502231  0.8630322222528477  0.5924944001825593  1.0000
  C   C24       1.0  0.46274673309361  0.6369471495296678  0.09250114128546018  1.0000
  C   C25       1.0  0.6366920798133363  0.05209370509094669  0.3818304434845885  1.0000
  C   C26       1.0  0.363387403623527  0.4479379960960799  0.8818190359475792  1.0000
  C   C27       1.0  0.3633921846136873  0.9479347503088886  0.6181522484498316  1.0000
  C   C28       1.0  0.6364762743068723  0.5520077238803155  0.1181697700388185  1.0000
  S   S1        1.0  0.2215016668661747  0.2194926717252912  0.15671878312686258  1.0000
  S   S2        1.0  0.7784705630644951  0.28049814073119705  0.6566962733431793  1.0000
  S   S3        1.0  0.7784736119043885  0.7804911044187577  0.8433020055277254  1.0000
  S   S4        1.0  0.22159473213872624  0.7195237974932241  0.3433047880222587  1.0000
  N   N1        1.0  0.5416958281395806  0.06446906930270299  0.1322981156158605  1.0000
  N   N2        1.0  0.45829070380672476  0.43553704790606657  0.6322833734445084  1.0000
  N   N3        1.0  0.4582712572624601  0.9355230318394304  0.8676974983819505  1.0000
  N   N4        1.0  0.5417668568723926  0.5644855452079369  0.3677183678903048  1.0000
  N   N5        1.0  0.3901409520687907  0.13044179987996782  0.0880043034124967  1.0000
  N   N6        1.0  0.6097953851546122  0.3695381057472602  0.5879856320374587  1.0000
  N   N7        1.0  0.6097804669420696  0.8695379217855789  0.9120076376484433  1.0000
  N   N8        1.0  0.3902761421597631  0.6304956121389792  0.4120174705139945  1.0000
  O   O1        1.0  0.03389309056441193  0.3322250029858581  0.2938820216291234  1.0000
  O   O2        1.0  0.9660935209034632  0.16775458966364454  0.7938859171971941  1.0000
  O   O3        1.0  0.9661102252797491  0.6677915985281971  0.7061319639056052  1.0000
  O   O4        1.0  0.03387252368963091  0.8322422759149504  0.20612942764707748  1.0000
  O   O5        1.0  0.0856719888713471  0.3095012349471702  0.4459554815022813  1.0000
  O   O6        1.0  0.9143174654380816  0.1904959029211142  0.9459496372479705  1.0000
  O   O7        1.0  0.9143553860307777  0.6905278520096019  0.5540639480111834  1.0000
  O   O8        1.0  0.08561281052916314  0.8094687921701366  0.0540636653708262  1.0000
