data_image0
_chemical_formula_structural       Cd6H44C60N24O16
_chemical_formula_sum              "Cd6 H44 C60 N24 O16"
_cell_length_a       8.162642605686072
_cell_length_b       9.30520512802778
_cell_length_c       21.27470414380146
_cell_angle_alpha    89.99978801096393
_cell_angle_beta     91.14976110095353
_cell_angle_gamma    89.9998216528619

_space_group_name_H-M_alt    "P 1"
_space_group_IT_number       1

loop_
  _space_group_symop_operation_xyz
  'x, y, z'

loop_
  _atom_site_type_symbol
  _atom_site_label
  _atom_site_symmetry_multiplicity
  _atom_site_fract_x
  _atom_site_fract_y
  _atom_site_fract_z
  _atom_site_occupancy
  Cd  Cd1       1.0  0.08417009107856187  0.3183178332640679  0.1575238009497184  1.0000
  Cd  Cd2       1.0  0.9158357054468881  0.8183167162091606  0.3424763566041236  1.0000
  Cd  Cd3       1.0  0.9158321976871946  0.6816824718310031  0.8424761667326237  1.0000
  Cd  Cd4       1.0  0.08416413887937318  0.18168143955666238  0.6575231174640876  1.0000
  Cd  Cd5       1.0  1.5348137977999996e-06  0.4999997244528559  8.189744699999994e-08  1.0000
  Cd  Cd6       1.0  5.448245161984643e-07  0.9999994842151952  0.49999940323959896  1.0000
  H   H1        1.0  0.2725910479565812  0.073346704094341  0.2646915350991392  1.0000
  H   H2        1.0  0.7274058559235428  0.5733448578647895  0.23530752141643768  1.0000
  H   H3        1.0  0.7274051265940003  0.9266557503479689  0.7353074335356666  1.0000
  H   H4        1.0  0.2725952075158133  0.4266565218993393  0.7646924344510637  1.0000
  H   H5        1.0  0.4369791538743469  0.8439850727484809  0.2599659391720834  1.0000
  H   H6        1.0  0.563016734251427  0.3439852606782594  0.2400350215742577  1.0000
  H   H7        1.0  0.5630170020617484  0.15601630702055758  0.7400344394275677  1.0000
  H   H8        1.0  0.4369831038634828  0.656016119087589  0.7599649224792843  1.0000
  H   H9        1.0  0.3883869641270081  0.844025726768905  0.0648266643933368  1.0000
  H   H10       1.0  0.6116138251538173  0.3440230573664352  0.43517434354424017  1.0000
  H   H11       1.0  0.6116165437518432  0.15597780232447178  0.9351737850882954  1.0000
  H   H12       1.0  0.3883847876386  0.6559772477338015  0.5648255886962303  1.0000
  H   H13       1.0  0.28893528936824  0.9807899494323494  0.8811341900600665  1.0000
  H   H14       1.0  0.7110636224506237  0.4807896835194043  0.6188655769613121  1.0000
  H   H15       1.0  0.7110645549560601  0.019209281000812  0.1188652840072564  1.0000
  H   H16       1.0  0.28893499034375486  0.5192095469134941  0.3811343552800395  1.0000
  H   H17       1.0  0.26237970287208157  0.993779985949708  0.7637709009963841  1.0000
  H   H18       1.0  0.7376179363578075  0.4937797298365394  0.736228832818064  1.0000
  H   H19       1.0  0.7376201414522255  0.0062192444834466  0.23622857307093884  1.0000
  H   H20       1.0  0.2623806764365638  0.5062195005963588  0.2637710994232875  1.0000
  H   H21       1.0  0.9131660786227515  0.3159981897236435  0.7736183639014768  1.0000
  H   H22       1.0  0.08683099455593891  0.8159981661522336  0.7263807109072005  1.0000
  H   H23       1.0  0.08683254037906349  0.683999966043899  0.22638109835276773  1.0000
  H   H24       1.0  0.9131676120309962  0.18400213894602047  0.2736196913212581  1.0000
  H   H25       1.0  0.9308567732543978  0.32216518922643894  0.8900331589284249  1.0000
  H   H26       1.0  0.0691415090174985  0.8221640489905013  0.60996544755087  1.0000
  H   H27       1.0  0.0691418519509455  0.6778340412104171  0.1099658333369504  1.0000
  H   H28       1.0  0.9308570975713976  0.1778351814404218  0.3900349546784696  1.0000
  H   H29       1.0  0.5721747053509602  0.5866520268378537  0.1344742351170325  1.0000
  H   H30       1.0  0.4278307025681301  0.08664937299262482  0.3655267621366676  1.0000
  H   H31       1.0  0.42783002164684797  0.4133515022518282  0.8655266961665545  1.0000
  H   H32       1.0  0.5721679164356389  0.9133477081075796  0.634472700118465  1.0000
  H   H33       1.0  0.5651188127556566  0.5880569795961818  0.05100139005296  1.0000
  H   H34       1.0  0.4348829078661609  0.08805789932150529  0.44900003943012484  1.0000
  H   H35       1.0  0.43488100674475305  0.41194332549639506  0.9489999639654272  1.0000
  H   H36       1.0  0.5651181555790571  0.9119402564406229  0.5509999164400341  1.0000
  H   H37       1.0  0.5132552826017331  0.3035923160980829  0.1197217589720978  1.0000
  H   H38       1.0  0.48674687911501024  0.8035931243849674  0.3802793273653364  1.0000
  H   H39       1.0  0.4867469937511045  0.6964090636603616  0.8802791486853394  1.0000
  H   H40       1.0  0.5132541843321689  0.19640395670982264  0.6197206285057034  1.0000
  H   H41       1.0  0.5891183595121348  0.3343108286089561  0.042888697199195705  1.0000
  H   H42       1.0  0.4108898108600343  0.8343068954230971  0.4571128676103839  1.0000
  H   H43       1.0  0.4108875803972011  0.6656937751423798  0.9571131858734389  1.0000
  H   H44       1.0  0.5891112525871379  0.16569018567169283  0.542887088260656  1.0000
  C   C1        1.0  0.2994136655157078  0.021943368818021707  0.2199219560256367  1.0000
  C   C2        1.0  0.7005834129821835  0.5219433665001532  0.28007812511925323  1.0000
  C   C3        1.0  0.7005837219522631  0.9780569362839343  0.7800779644008742  1.0000
  C   C4        1.0  0.29941642513468036  0.47805693859835685  0.7199218189351768  1.0000
  C   C5        1.0  0.39037893034326027  0.8950352400295928  0.2170863258956999  1.0000
  C   C6        1.0  0.6096204542171008  0.39503386359161397  0.2829141162325897  1.0000
  C   C7        1.0  0.6096196762417279  0.10496613973599982  0.7829140763318706  1.0000
  C   C8        1.0  0.3903806092242093  0.6049664415051766  0.7170858396358  1.0000
  C   C9        1.0  0.36412677962246687  0.8946445498108061  0.1099711354069157  1.0000
  C   C10       1.0  0.6358726063592428  0.39464327065757493  0.3900293073647134  1.0000
  C   C11       1.0  0.6358730584885279  0.10535897928971141  0.8900288086448569  1.0000
  C   C12       1.0  0.36412723175566697  0.6053581091082735  0.6099706366888284  1.0000
  C   C13       1.0  0.2726529406851056  0.022451104717639205  0.11197128690586308  1.0000
  C   C14       1.0  0.7273453612935724  0.5224490418960811  0.3880288052184966  1.0000
  C   C15       1.0  0.7273456783108471  0.9775502750519107  0.888028175345731  1.0000
  C   C16       1.0  0.2726544768232912  0.4775512632024359  0.6119711388359264  1.0000
  C   C17       1.0  0.2087314246271603  0.0940543648185042  0.05575015370692431  1.0000
  C   C18       1.0  0.791267848348795  0.5940538015733597  0.4442493623205763  1.0000
  C   C19       1.0  0.7912684196951929  0.9059459402819883  0.9442493203595178  1.0000
  C   C20       1.0  0.2087319897680686  0.4059465035251506  0.5557505817338466  1.0000
  C   C21       1.0  0.1401190496334195  0.15474998047449873  0.9635772574415712  1.0000
  C   C22       1.0  0.8598786164565764  0.6547494547295755  0.5364216129351361  1.0000
  C   C23       1.0  0.8598783440419949  0.8452492499621018  0.0364221929978399  1.0000
  C   C24       1.0  0.14012122166028715  0.34525085036894154  0.46357833111928676  1.0000
  C   C25       1.0  0.1178815852907675  0.1548384215971339  0.8954432956774808  1.0000
  C   C26       1.0  0.8821173058030355  0.6548372590482217  0.6045555863680576  1.0000
  C   C27       1.0  0.8821170399145757  0.8451608088397221  0.1045556965878944  1.0000
  C   C28       1.0  0.117881306991336  0.3451619713846767  0.39544434587329386  1.0000
  C   C29       1.0  0.207334494932816  0.058624562358026815  0.8588731050076461  1.0000
  C   C30       1.0  0.7926622893808712  0.5586244092178917  0.6411263818493039  1.0000
  C   C31       1.0  0.7926628987445526  0.9413735934112353  0.1411263454326459  1.0000
  C   C32       1.0  0.20733632341154618  0.4413758958823449  0.3588735503911664  1.0000
  C   C33       1.0  0.1912822733582544  0.06401324108198739  0.7938757069657569  1.0000
  C   C34       1.0  0.8087157104667001  0.5640135691967458  0.7061242528182703  1.0000
  C   C35       1.0  0.808716339438071  0.9359849146835727  0.2061242252764828  1.0000
  C   C36       1.0  0.19128290232572448  0.4359867359034909  0.2938756794222002  1.0000
  C   C37       1.0  0.997841534615489  0.2457953221042004  0.7992707349238303  1.0000
  C   C38       1.0  0.0021558002043989004  0.7457946717390983  0.7007279855127067  1.0000
  C   C39       1.0  0.002157090591808199  0.7542028336653245  0.2007282573424334  1.0000
  C   C40       1.0  0.9978415872655332  0.25420455869551967  0.2992719349146853  1.0000
  C   C41       1.0  0.008290316604323798  0.24849703544182947  0.864354771512751  1.0000
  C   C42       1.0  0.9917070145927622  0.7484953110983951  0.6356434744872956  1.0000
  C   C43       1.0  0.9917070832765731  0.7515021949967463  0.1356442089386647  1.0000
  C   C44       1.0  0.008294055055991104  0.2515039193330395  0.364356011393987  1.0000
  C   C45       1.0  0.3397186721372023  0.5250106603783421  0.096580404359969  1.0000
  C   C46       1.0  0.6602845032008986  0.025013500077640995  0.403421140764884  1.0000
  C   C47       1.0  0.660282360280604  0.474987495373888  0.9034219014501161  1.0000
  C   C48       1.0  0.3397153597418168  0.9749846556941149  0.5965769233393701  1.0000
  C   C49       1.0  0.5254336638287144  0.529575610293314  0.09271488537475389  1.0000
  C   C50       1.0  0.4745707140236775  0.029575699838339593  0.4072871340364088  1.0000
  C   C51       1.0  0.4745673747867514  0.47042684413023755  0.9072869504438116  1.0000
  C   C52       1.0  0.5254291240951402  0.970423530592839  0.5927128100189023  1.0000
  C   C53       1.0  0.5904974013836934  0.37419582433294357  0.0915824632373727  1.0000
  C   C54       1.0  0.40950694788223524  0.8741976800114346  0.408419000439963  1.0000
  C   C55       1.0  0.40950487496913723  0.6258055554255008  0.9084184444200574  1.0000
  C   C56       1.0  0.5904916711195796  0.1258004757561082  0.5915804618142815  1.0000
  C   C57       1.0  0.7640058510358543  0.3628760103215214  0.1167347116279061  1.0000
  C   C58       1.0  0.23599974611442315  0.8628839252647965  0.3832681924646835  1.0000
  C   C59       1.0  0.23599888216939743  0.6371264441028047  0.8832657496685741  1.0000
  C   C60       1.0  0.7640013235343303  0.13711530516664538  0.616731293416599  1.0000
  N   N1        1.0  0.2412683041220447  0.08570153237106129  0.16775051621272039  1.0000
  N   N2        1.0  0.758732224572327  0.5856998556232896  0.3322490253857211  1.0000
  N   N3        1.0  0.758731533992865  0.9142998473947868  0.8322494278408215  1.0000
  N   N4        1.0  0.24126883886898298  0.414300449473508  0.6677509304826614  1.0000
  N   N5        1.0  0.4230543060783986  0.8317085058019345  0.1621190926415323  1.0000
  N   N6        1.0  0.5769453026927777  0.3317067536735721  0.337881923766254  1.0000
  N   N7        1.0  0.5769455320345571  0.16829394863124486  0.8378808514111284  1.0000
  N   N8        1.0  0.42305453542409305  0.668293551424938  0.662118020288176  1.0000
  N   N9        1.0  0.21879189571080804  0.048810105913609896  0.9957472820442206  1.0000
  N   N10       1.0  0.781206149635267  0.5488111414472385  0.5042522327888932  1.0000
  N   N11       1.0  0.781205491759124  0.9511891245210151  0.004252638383178501  1.0000
  N   N12       1.0  0.21879369468708626  0.4511891636532538  0.4957472412775488  1.0000
  N   N13       1.0  0.1300684480847849  0.22076202907678782  0.0606054040136499  1.0000
  N   N14       1.0  0.8699303638630553  0.72076129233605  0.43939390334234213  1.0000
  N   N15       1.0  0.8699313962375612  0.7792382760237048  0.9393940700527921  1.0000
  N   N16       1.0  0.1300694742538084  0.27923901276246  0.5606060407120879  1.0000
  N   N17       1.0  0.08567238039994153  0.2607904717117364  0.0019854075800225003  1.0000
  N   N18       1.0  0.9143275174326889  0.7607901928503934  0.498013375679733  1.0000
  N   N19       1.0  0.9143274701298407  0.7392087587234003  0.9980135964993195  1.0000
  N   N20       1.0  0.0856723144786926  0.2392101122461412  0.5019870383626781  1.0000
  N   N21       1.0  0.0898054507882691  0.157172117443487  0.7642313775474107  1.0000
  N   N22       1.0  0.9101922002826585  0.6571719181064992  0.7357679588280632  1.0000
  N   N23       1.0  0.9101943935379921  0.8428260383223359  0.23576809652080039  1.0000
  N   N24       1.0  0.0898051809817915  0.3428273123261434  0.2642324315873168  1.0000
  O   O1        1.0  0.2836571912351147  0.48389481572405657  0.1494472240377362  1.0000
  O   O2        1.0  0.7163492033308785  0.9838973984691324  0.3505545525944171  1.0000
  O   O3        1.0  0.7163463042425419  0.5161033400286853  0.850554165424299  1.0000
  O   O4        1.0  0.2836506534102626  0.0160986079659722  0.6494439814995872  1.0000
  O   O5        1.0  0.25447700582326854  0.5578452926872828  0.04810366301987299  1.0000
  O   O6        1.0  0.7455260438410248  0.05784748996237001  0.4518982980189675  1.0000
  O   O7        1.0  0.7455240390035414  0.44215393773623646  0.951897702813362  1.0000
  O   O8        1.0  0.2544750444261298  0.9421506658076665  0.5480997778992389  1.0000
  O   O9        1.0  0.7980049613802008  0.26829539155272647  0.1580972944532775  1.0000
  O   O10       1.0  0.20199977320456947  0.7682983756658855  0.3419043436278884  1.0000
  O   O11       1.0  0.2019973087651934  0.7317070628710811  0.8419040831912595  1.0000
  O   O12       1.0  0.7980012964441769  0.23170085476554905  0.6580951422533943  1.0000
  O   O13       1.0  0.8737000681767668  0.4508503602791053  0.09730616291916049  1.0000
  O   O14       1.0  0.12630644661611257  0.9508562607923138  0.4026956681303417  1.0000
  O   O15       1.0  0.1263034148840561  0.5491510194716865  0.9026961665161936  1.0000
  O   O16       1.0  0.8736946230345878  0.0491418949717897  0.5973038177518291  1.0000
