data_image0
_chemical_formula_structural       Er4H28C36S6O32
_chemical_formula_sum              "Er4 H28 C36 S6 O32"
_cell_length_a       5.728503264534489
_cell_length_b       12.84056897077578
_cell_length_c       15.938265547122192
_cell_angle_alpha    80.58854448263077
_cell_angle_beta     79.71667868329432
_cell_angle_gamma    77.11997363446119

_space_group_name_H-M_alt    "P 1"
_space_group_IT_number       1

loop_
  _space_group_symop_operation_xyz
  'x, y, z'

loop_
  _atom_site_type_symbol
  _atom_site_label
  _atom_site_symmetry_multiplicity
  _atom_site_fract_x
  _atom_site_fract_y
  _atom_site_fract_z
  _atom_site_occupancy
  Er  Er1       1.0  0.9761701696396082  0.8475622690344977  0.8871856275915704  1.0000
  Er  Er2       1.0  0.7104418126254685  0.6524725633433377  0.61293693751351  1.0000
  Er  Er3       1.0  0.023831699013406607  0.152440543683376  0.11281436735183799  1.0000
  Er  Er4       1.0  0.2895634783255261  0.3475254156954223  0.3870623008197355  1.0000
  H   H1        1.0  0.055581955895938506  0.6804692327444428  0.0867753659200972  1.0000
  H   H2        1.0  0.8218900516070351  0.8198000330701946  0.4129716294196726  1.0000
  H   H3        1.0  0.9444200522438634  0.3195327743602476  0.913226708733454  1.0000
  H   H4        1.0  0.17811141173964254  0.18020277964767936  0.5870269959144495  1.0000
  H   H5        1.0  0.1304825734760867  0.4934727171086308  0.18859864287994552  1.0000
  H   H6        1.0  0.8123383278604306  0.006700284858681  0.3111427247618863  1.0000
  H   H7        1.0  0.8695145513460077  0.506527678769686  0.8114038789070505  1.0000
  H   H8        1.0  0.1876622349499329  0.9933049446987425  0.6888590180958829  1.0000
  H   H9        1.0  0.24256332939270933  0.1521698576532557  0.7950283175756709  1.0000
  H   H10       1.0  0.19002770093067056  0.3484454259525621  0.704703516341496  1.0000
  H   H11       1.0  0.7574315470521142  0.847830538225061  0.20496935292609922  1.0000
  H   H12       1.0  0.8099727814965761  0.6515549699257548  0.2952938729247236  1.0000
  H   H13       1.0  0.4387283235641985  0.9106997855602544  0.816735927602636  1.0000
  H   H14       1.0  0.16585678028133086  0.5892859044133019  0.6835106259026773  1.0000
  H   H15       1.0  0.5612727036561652  0.0892998047048792  0.18326491098301287  1.0000
  H   H16       1.0  0.8341433408135543  0.4107152970781982  0.3164866804145987  1.0000
  H   H17       1.0  0.4193118530725356  0.815789690635839  0.7654777707953571  1.0000
  H   H18       1.0  0.0005068952662909742  0.6840453496721466  0.7348512774477385  1.0000
  H   H19       1.0  0.5806815472228878  0.184210705242478  0.23452315077144453  1.0000
  H   H20       1.0  0.9994944932864342  0.3159534349798037  0.2651496440868542  1.0000
  H   H21       1.0  0.9455858673756976  0.9163503564390325  0.060162517818774595  1.0000
  H   H22       1.0  0.9211549216734841  0.583752147446333  0.4400136423704737  1.0000
  H   H23       1.0  0.054414746973485015  0.08365245627884121  0.9398387314284662  1.0000
  H   H24       1.0  0.07884484565388293  0.4162466372056173  0.5599818007269876  1.0000
  H   H25       1.0  0.6742084214975533  0.9532176326188946  0.04807707738542887  1.0000
  H   H26       1.0  0.6751480455873846  0.546482870287214  0.4518290954226741  1.0000
  H   H27       1.0  0.32578936129642955  0.0467859857121624  0.9519212343888341  1.0000
  H   H28       1.0  0.32485209622635136  0.45351269191199617  0.5481713001448796  1.0000
  C   C1        1.0  0.4711887872561958  0.7477806311810866  0.980802000500212  1.0000
  C   C2        1.0  0.19889050174688788  0.7522348664803148  0.5193466697859961  1.0000
  C   C3        1.0  0.5288131844744584  0.2522173478576804  0.019197007222132398  1.0000
  C   C4        1.0  0.8011112481381986  0.24776311255845232  0.48065433469754737  1.0000
  C   C5        1.0  0.4440027218099375  0.651336648752654  0.0429451577967512  1.0000
  C   C6        1.0  0.137680290022125  0.8485910370715928  0.4570534169817435  1.0000
  C   C7        1.0  0.5559979440780722  0.3486637471256628  0.9570555978399469  1.0000
  C   C8        1.0  0.8623197926879486  0.15141016441990732  0.5429492524672098  1.0000
  C   C9        1.0  0.23118219322497416  0.6275968394204767  0.0913857296708258  1.0000
  C   C10       1.0  0.9496065827648433  0.8724903578143712  0.40844426122225025  1.0000
  C   C11       1.0  0.7688217918833684  0.3724035564578402  0.9086152565767875  1.0000
  C   C12       1.0  0.05039829531497026  0.1275108436771291  0.5915553877725871  1.0000
  C   C13       1.0  0.26982335150537307  0.5290461785135747  0.14538553289423822  1.0000
  C   C14       1.0  0.94397360471396  0.9710531029190506  0.354473217691357  1.0000
  C   C15       1.0  0.7301826545454944  0.4709534117515588  0.854615651607773  1.0000
  C   C16       1.0  0.05603557350562505  0.028950515412006404  0.6455278979822836  1.0000
  C   C17       1.0  0.5121498670521021  0.4783102713559231  0.1366398662323576  1.0000
  C   C18       1.0  0.1271377884965545  0.021608962458152803  0.3633191467676582  1.0000
  C   C19       1.0  0.4878570319702435  0.5216901245223937  0.8633599810168775  1.0000
  C   C20       1.0  0.872863806772067  0.978396267099278  0.6366833385474776  1.0000
  C   C21       1.0  0.6213470636592717  0.3714851574270739  0.177945785622093  1.0000
  C   C22       1.0  0.17114717173335955  0.1283623768135556  0.32200898237080366  1.0000
  C   C23       1.0  0.37864818727191346  0.6285120159985098  0.822056837349777  1.0000
  C   C24       1.0  0.8288562534521796  0.871645269583432  0.6779921150991228  1.0000
  C   C25       1.0  0.7225192049533005  0.05804684681047691  0.8399537941387366  1.0000
  C   C26       1.0  0.6212649344216314  0.4419900065285988  0.6600533096132396  1.0000
  C   C27       1.0  0.277472181964434  0.9419511322282903  0.16004514890279609  1.0000
  C   C28       1.0  0.37873608720957425  0.5580087781233516  0.3399408791803893  1.0000
  C   C29       1.0  0.6192690558701417  0.1606481308109764  0.7926624566594284  1.0000
  C   C30       1.0  0.5730815465789685  0.3394024179522361  0.7071750879299187  1.0000
  C   C31       1.0  0.38072466178365977  0.8393506538409669  0.20733726119598117  1.0000
  C   C32       1.0  0.4269217234295014  0.6605963666997141  0.2928239521489289  1.0000
  C   C33       1.0  0.38428587159951644  0.1987955263416268  0.774026639319345  1.0000
  C   C34       1.0  0.35725191062785944  0.3015917687328695  0.7257319170037915  1.0000
  C   C35       1.0  0.6157096759712036  0.8012056751498804  0.2259716906908551  1.0000
  C   C36       1.0  0.6427460192177463  0.698407821532264  0.2742666942097429  1.0000
  S   S1        1.0  0.6900830908647535  0.5510192781312924  0.061745217377833186  1.0000
  S   S2        1.0  0.30258170622806113  0.9487658141592235  0.4383674206019564  1.0000
  S   S3        1.0  0.3099179878944301  0.4489778952942842  0.9382551275972801  1.0000
  S   S4        1.0  0.697413751419021  0.0512378041718335  0.5616367661504569  1.0000
  S   S5        1.0  0.8028914269480226  0.2498826808478825  0.7499506845146229  1.0000
  S   S6        1.0  0.19710722556229834  0.7501152981908845  0.25004809259681343  1.0000
  O   O1        1.0  0.3279690257763405  0.8809170717282628  0.7907233437048617  1.0000
  O   O2        1.0  0.9994424444005008  0.618959054852148  0.7095259810569914  1.0000
  O   O3        1.0  0.6720255024901364  0.1190817129236876  0.20927911336911356  1.0000
  O   O4        1.0  0.0005558907514427206  0.3810405354129855  0.2904739997658297  1.0000
  O   O5        1.0  0.683365295854095  0.7544349960882286  0.9422112267935816  1.0000
  O   O6        1.0  0.3792123098677678  0.7455611668567315  0.5580167523019527  1.0000
  O   O7        1.0  0.3166381727448169  0.2455573436582412  0.0577876191140092  1.0000
  O   O8        1.0  0.6207920441377797  0.2544352009556619  0.4419825366237333  1.0000
  O   O9        1.0  0.8284598018525742  0.9101608303395708  0.023776381677045284  1.0000
  O   O10       1.0  0.761512339539095  0.589715296240847  0.4762555642990023  1.0000
  O   O11       1.0  0.17153947024482352  0.0898403711519364  0.9762235485533495  1.0000
  O   O12       1.0  0.23848985403713405  0.41028268279792  0.5237414466621358  1.0000
  O   O13       1.0  0.2796766983400545  0.8184151840053815  0.9692605694152548  1.0000
  O   O14       1.0  0.0662327312845647  0.6817042377568683  0.5309099298953157  1.0000
  O   O15       1.0  0.720325642287804  0.18157876696746203  0.03073674098516219  1.0000
  O   O16       1.0  0.9337627339273594  0.3182961581214485  0.4690924765862263  1.0000
  O   O17       1.0  0.8157710146400065  0.3219230286797981  0.1374609709778625  1.0000
  O   O18       1.0  0.275453481594525  0.1779430346640751  0.3625958610409299  1.0000
  O   O19       1.0  0.1842260717972689  0.6780773671985189  0.8625469139408111  1.0000
  O   O20       1.0  0.7245594726905583  0.8220581668274249  0.6374063612423766  1.0000
  O   O21       1.0  0.5184976271981938  0.3328866185128875  0.2510013312041934  1.0000
  O   O22       1.0  0.10301560313563138  0.1668626309191765  0.2488228812080422  1.0000
  O   O23       1.0  0.48149783801373053  0.6671137773654294  0.7490010752773485  1.0000
  O   O24       1.0  0.8969844952647323  0.8331482379305443  0.7511797659218473  1.0000
  O   O25       1.0  0.595089216518744  0.9855871703875536  0.8684427478755765  1.0000
  O   O26       1.0  0.4497473587402398  0.5146659831633897  0.6317347749981863  1.0000
  O   O27       1.0  0.404899078613397  0.014411614264396602  0.131560617585869  1.0000
  O   O28       1.0  0.550255286091989  0.4853287734226371  0.36825646216968977  1.0000
  O   O29       1.0  0.9457548758598123  0.0391068808338417  0.8508131945912395  1.0000
  O   O30       1.0  0.8364734941030036  0.4607543488309247  0.649106922456042  1.0000
  O   O31       1.0  0.05424118765973409  0.9608862645258115  0.14918373753629768  1.0000
  O   O32       1.0  0.1635315694132515  0.5392428245946519  0.3508876628463824  1.0000
