data_image0
_chemical_formula_structural       CuSiH12C24N4F10
_chemical_formula_sum              "Cu1 Si1 H12 C24 N4 F10"
_cell_length_a       7.97423519833274
_cell_length_b       13.772423535044087
_cell_length_c       13.772391854782319
_cell_angle_alpha    90.00703086179551
_cell_angle_beta     89.98460332377287
_cell_angle_gamma    89.98542053029985

_space_group_name_H-M_alt    "P 1"
_space_group_IT_number       1

loop_
  _space_group_symop_operation_xyz
  'x, y, z'

loop_
  _atom_site_type_symbol
  _atom_site_label
  _atom_site_symmetry_multiplicity
  _atom_site_fract_x
  _atom_site_fract_y
  _atom_site_fract_z
  _atom_site_occupancy
  Cu  Cu1       1.0  0.5000107329667358  0.4999916533732289  0.5000031366318893  1.0000
  Si  Si1       1.0  9.169965508700017e-06  0.5000022410990965  0.4999932268101477  1.0000
  H   H1        1.0  0.24081155613889393  0.6559774160272906  0.5001387726027176  1.0000
  H   H2        1.0  0.2290687980155042  0.8364265140258736  0.5001006212974844  1.0000
  H   H3        1.0  0.7655398654770239  0.6579835920075966  0.4998521696344938  1.0000
  H   H4        1.0  0.23446907292552768  0.3420033425904734  0.5000974697427908  1.0000
  H   H5        1.0  0.7591923260110036  0.3440167895717394  0.4999698813732324  1.0000
  H   H6        1.0  0.7709501294596209  0.16356914340180848  0.5000196490903976  1.0000
  H   H7        1.0  0.24082713129295288  0.5001894149806886  0.6559765071481609  1.0000
  H   H8        1.0  0.2290795926677447  0.5001076518499161  0.8364289696554226  1.0000
  H   H9        1.0  0.7655554151378754  0.49988749591622644  0.6579827557091066  1.0000
  H   H10       1.0  0.23448233847831548  0.5001727743629871  0.342011903618186  1.0000
  H   H11       1.0  0.7592106605309398  0.4997002246904216  0.3440217721570208  1.0000
  H   H12       1.0  0.7709594538602503  0.49977908337814364  0.16356930937796224  1.0000
  C   C1        1.0  0.35552626757498035  0.6987148821753308  0.5000689449010098  1.0000
  C   C2        1.0  0.3496857405457945  0.7993192296179287  0.5000603061232454  1.0000
  C   C3        1.0  0.49951717570422727  0.8535155291871844  0.5000219630728893  1.0000
  C   C4        1.0  0.64903609120487  0.799386687117874  0.49996247414757294  1.0000
  C   C5        1.0  0.6481963838555631  0.6986760744559248  0.4999469174830511  1.0000
  C   C6        1.0  0.50046563200695  0.9557792369105869  0.5000238112179646  1.0000
  C   C7        1.0  0.4995595824091624  0.04420842931125429  0.5000347405353196  1.0000
  C   C8        1.0  0.5005042758934337  0.14647213747837642  0.5000394933222126  1.0000
  C   C9        1.0  0.35098035633773617  0.2006002507822586  0.5000496084356458  1.0000
  C   C10       1.0  0.3518137957652386  0.3013101372631297  0.5000564524394308  1.0000
  C   C11       1.0  0.6444813838684595  0.30127786924278144  0.5000113911829731  1.0000
  C   C12       1.0  0.6503281810550307  0.2006706171815011  0.5000229336761209  1.0000
  C   C13       1.0  0.35553628668060366  0.5001091579510017  0.698718692908429  1.0000
  C   C14       1.0  0.3496970026182922  0.5000714520893793  0.7993225673806565  1.0000
  C   C15       1.0  0.4995277567851204  0.5000112028617494  0.8535205663363502  1.0000
  C   C16       1.0  0.649048606230565  0.4999697409643673  0.7993895474283408  1.0000
  C   C17       1.0  0.6482139289751887  0.49997523716945835  0.6986794333867011  1.0000
  C   C18       1.0  0.5004699137209841  0.4999789286998677  0.9557772430563392  1.0000
  C   C19       1.0  0.49956410702352383  0.4999513721115108  0.044219586844633306  1.0000
  C   C20       1.0  0.5005162932761921  0.4999321668373612  0.1464762636187019  1.0000
  C   C21       1.0  0.35099417747507294  0.5000266333386847  0.2006080119640715  1.0000
  C   C22       1.0  0.351825088455989  0.5000392896150886  0.30131812740049224  1.0000
  C   C23       1.0  0.6444977346374047  0.49981097806507085  0.3012853972717195  1.0000
  C   C24       1.0  0.650349561813286  0.49984214793214227  0.20067643883097475  1.0000
  N   N1        1.0  0.502099577755061  0.649498236761815  0.4999976335330701  1.0000
  N   N2        1.0  0.4979118468153558  0.3504908813626457  0.5000405888092629  1.0000
  N   N3        1.0  0.5021114710053141  0.5000413402547109  0.6495035233657378  1.0000
  N   N4        1.0  0.49792253916925233  0.49992744370040026  0.35050056980052363  1.0000
  F   F1        1.0  0.2177304779398384  0.4997603268305895  0.4997606014555701  1.0000
  F   F2        1.0  0.7822872264392801  0.5002396791058458  0.5002275208559938  1.0000
  F   F3        1.0  1.5293792380099974e-05  0.5877185297212576  0.4122818183400982  1.0000
  F   F4        1.0  5.385691323999849e-07  0.412284500432051  0.5877039092877825  1.0000
  F   F5        1.0  0.9999371396369128  0.58772627720834  0.5877265141851852  1.0000
  F   F6        1.0  8.056355960660004e-05  0.41227735926044307  0.4122630605298454  1.0000
  F   F7        1.0  0.7979650256501145  0.8463504803553618  0.4999048762265944  1.0000
  F   F8        1.0  0.2020577083345216  0.15363064460486703  0.5000454878557363  1.0000
  F   F9        1.0  0.7979756923530487  0.49991056379847976  0.8463543022804175  1.0000
  F   F10       1.0  0.2020708401450904  0.5001424452423748  0.1536447124884361  1.0000
