data_image0
_chemical_formula_structural       Tl4H12C20S4O12
_chemical_formula_sum              "Tl4 H12 C20 S4 O12"
_cell_length_a       6.182646268250495
_cell_length_b       9.913132157920352
_cell_length_c       10.993085419329793
_cell_angle_alpha    95.92804630265267
_cell_angle_beta     89.99905429571753
_cell_angle_gamma    90.00049909335334

_space_group_name_H-M_alt    "P 1"
_space_group_IT_number       1

loop_
  _space_group_symop_operation_xyz
  'x, y, z'

loop_
  _atom_site_type_symbol
  _atom_site_label
  _atom_site_symmetry_multiplicity
  _atom_site_fract_x
  _atom_site_fract_y
  _atom_site_fract_z
  _atom_site_occupancy
  Tl  Tl1       1.0  0.9707889712343772  0.3347527720098142  0.09122152267274691  1.0000
  Tl  Tl2       1.0  0.4707858940086069  0.16525055230068378  0.9087784152380395  1.0000
  Tl  Tl3       1.0  0.029212800314923  0.66525099624063  0.9087815789715493  1.0000
  Tl  Tl4       1.0  0.5292094078242756  0.8347542300952714  0.09122477449562184  1.0000
  H   H1        1.0  0.8829567978817324  0.3534721048422399  0.697923535666682  1.0000
  H   H2        1.0  0.38295380440550997  0.1465297464097902  0.3020734340638001  1.0000
  H   H3        1.0  0.11704012137566622  0.6465235287297874  0.302076130596312  1.0000
  H   H4        1.0  0.6170414974524974  0.8534719721264211  0.6979267605742407  1.0000
  H   H5        1.0  0.981820258999619  0.29324236658122527  0.47918830732265866  1.0000
  H   H6        1.0  0.4818195918038555  0.20676197607565433  0.5208052509219385  1.0000
  H   H7        1.0  0.018181512559301904  0.7067552953254009  0.520811535041986  1.0000
  H   H8        1.0  0.5181757100438134  0.7932377141378383  0.4791947675934196  1.0000
  H   H9        1.0  0.7518601545586064  0.36650017094747517  0.3153392586875157  1.0000
  H   H10       1.0  0.2518471888301477  0.1335051016491988  0.6846601096342297  1.0000
  H   H11       1.0  0.248149704167794  0.6335005334630425  0.684660847826116  1.0000
  H   H12       1.0  0.7481448781348163  0.8664956169681731  0.3153418175642244  1.0000
  C   C1        1.0  0.6039287800016667  0.46831231456330596  0.655366802709402  1.0000
  C   C2        1.0  0.10392466507266825  0.031685126904960705  0.3446323207184676  1.0000
  C   C3        1.0  0.39607460901473956  0.5316853330968386  0.3446312190405081  1.0000
  C   C4        1.0  0.8960722541628031  0.9683115350788687  0.6553692542136034  1.0000
  C   C5        1.0  0.7853817708043282  0.39031882323679673  0.6256941667602831  1.0000
  C   C6        1.0  0.28538100190754534  0.10968357829399623  0.37430555715179287  1.0000
  C   C7        1.0  0.21461838327643076  0.6096747962708805  0.374307143973752  1.0000
  C   C8        1.0  0.7146159173143901  0.8903130908150488  0.6256969280841461  1.0000
  C   C9        1.0  0.8399360921820148  0.3558144511981426  0.50180341568133  1.0000
  C   C10       1.0  0.3399304479074488  0.14419023884602925  0.4981951013381689  1.0000
  C   C11       1.0  0.16007053164813104  0.6441872887414705  0.4981995098192585  1.0000
  C   C12       1.0  0.6600697061991524  0.8558084514684342  0.5018066497025586  1.0000
  C   C13       1.0  0.7136131850538946  0.3988939788592419  0.4102851557154708  1.0000
  C   C14       1.0  0.21361072725931513  0.10111107784396721  0.5897109027688003  1.0000
  C   C15       1.0  0.2863885864914764  0.6011036901726071  0.5897155969530417  1.0000
  C   C16       1.0  0.7863894268962995  0.8988865698082552  0.4102871189951216  1.0000
  C   C17       1.0  0.5288914438545902  0.481834033144942  0.4369559924538465  1.0000
  C   C18       1.0  0.028883869671219004  0.018165061813356  0.5630430470329059  1.0000
  C   C19       1.0  0.47111194512955734  0.5181626146042931  0.5630437618424579  1.0000
  C   C20       1.0  0.9711146670384921  0.981829543350834  0.43695471055400503  1.0000
  S   S1        1.0  0.5310322438380766  0.4967973765432348  0.8137960562247456  1.0000
  S   S2        1.0  0.031032495145360908  0.0032057713196068007  0.18620149631493632  1.0000
  S   S3        1.0  0.46897114519900646  0.5032043277623471  0.1862023177705225  1.0000
  S   S4        1.0  0.9689595719195837  0.9967959115825737  0.8137941468177843  1.0000
  O   O1        1.0  0.5202331385450663  0.6451794758723752  0.8453480225511499  1.0000
  O   O2        1.0  0.020233974881087104  0.8548236140219103  0.15465003985216444  1.0000
  O   O3        1.0  0.4797751028289952  0.35482322123078813  0.1546477085728313  1.0000
  O   O4        1.0  0.979754857306304  0.14518011144550516  0.8453476000249935  1.0000
  O   O5        1.0  0.319538086856916  0.4293216814847369  0.823478140999555  1.0000
  O   O6        1.0  0.8195384759603074  0.07068093729868961  0.1765276590580029  1.0000
  O   O7        1.0  0.6804636847330131  0.5706820653900451  0.1765222297331377  1.0000
  O   O8        1.0  0.1804616781721364  0.929322823822567  0.8234745322894313  1.0000
  O   O9        1.0  0.7040538421953644  0.4329180918585395  0.8802755763491136  1.0000
  O   O10       1.0  0.2040488079133098  0.06708491817369831  0.11972403007420242  1.0000
  O   O11       1.0  0.2959495468197987  0.5670846408588447  0.11972470631523181  1.0000
  O   O12       1.0  0.7959448765246364  0.9329188286812671  0.880276340693527  1.0000
