data_image0
_chemical_formula_structural       Al4H60C84N8O28F20
_chemical_formula_sum              "Al4 H60 C84 N8 O28 F20"
_cell_length_a       6.6525176420212295
_cell_length_b       23.643023295891805
_cell_length_c       25.56731157049173
_cell_angle_alpha    100.99461017603092
_cell_angle_beta     90.5136446820776
_cell_angle_gamma    89.8473814814782

_space_group_name_H-M_alt    "P 1"
_space_group_IT_number       1

loop_
  _space_group_symop_operation_xyz
  'x, y, z'

loop_
  _atom_site_type_symbol
  _atom_site_label
  _atom_site_symmetry_multiplicity
  _atom_site_fract_x
  _atom_site_fract_y
  _atom_site_fract_z
  _atom_site_occupancy
  Al  Al1       1.0  0.7760713379856767  0.7487000472072084  0.7499186541983676  1.0000
  Al  Al2       1.0  0.22471883067567694  0.25011352393821806  0.2506855824394307  1.0000
  Al  Al3       1.0  0.2761149273764616  0.7499019144173642  0.750706649852681  1.0000
  Al  Al4       1.0  0.724811362274856  0.24897156803575632  0.24960748865920826  1.0000
  H   H1        1.0  0.20034908533462206  0.5748311415843619  0.3930824338007924  1.0000
  H   H2        1.0  0.4035946857354347  0.5354937397640214  0.41562844741256555  1.0000
  H   H3        1.0  0.38339753978360847  0.6672913960165019  0.4325902700042548  1.0000
  H   H4        1.0  0.5879692791090106  0.6257938445297809  0.4487958980564386  1.0000
  H   H5        1.0  0.6234712608085076  0.580929250206765  0.349993326217259  1.0000
  H   H6        1.0  0.6550195352746898  0.656810832598147  0.3622542173813699  1.0000
  H   H7        1.0  0.4249598013740936  0.625933337406302  0.3351312382268646  1.0000
  H   H8        1.0  0.5929885366105409  0.46482347125312634  0.5837806451481455  1.0000
  H   H9        1.0  0.7981765352448774  0.42638298561963234  0.6065594343589923  1.0000
  H   H10       1.0  0.4121588072560698  0.37357368846546996  0.5513729248723678  1.0000
  H   H11       1.0  0.6182623774439335  0.3331819531670491  0.568469532133051  1.0000
  H   H12       1.0  0.5740067595081725  0.37657910256171334  0.6657392362813113  1.0000
  H   H13       1.0  0.3466797205556772  0.34373239652853027  0.6385723621223464  1.0000
  H   H14       1.0  0.37231405147447555  0.41974429301907185  0.6494310606786726  1.0000
  H   H15       1.0  0.7044343089979817  0.9257743371993  0.10691562619745551  1.0000
  H   H16       1.0  0.9086168519640339  0.9643815028254468  0.08493848929421689  1.0000
  H   H17       1.0  0.8842385039003345  0.8327148393957416  0.06928015311812889  1.0000
  H   H18       1.0  0.08896931799800709  0.8730660583884317  0.05240856618816989  1.0000
  H   H19       1.0  0.13381398766131977  0.9191990204691439  0.15038659485308872  1.0000
  H   H20       1.0  0.15888041964407046  0.843137425820558  0.1397295132209919  1.0000
  H   H21       1.0  0.932976140208943  0.8763527130185624  0.16663267532194934  1.0000
  H   H22       1.0  0.090799902572769  0.03547346116054233  0.9148881193805211  1.0000
  H   H23       1.0  0.2951630305184665  0.07401941259317366  0.8929078986837952  1.0000
  H   H24       1.0  0.9109387276408681  0.12684159866424244  0.9475041015245297  1.0000
  H   H25       1.0  0.11583837294897138  0.16713785259265987  0.930646936120084  1.0000
  H   H26       1.0  0.06661544108646208  0.12366241648224721  0.8332595614532535  1.0000
  H   H27       1.0  0.8410585889373434  0.15697731006750357  0.8602862791681717  1.0000
  H   H28       1.0  0.8655095895896706  0.08090328529034711  0.8495013194983514  1.0000
  H   H29       1.0  0.5690131472774808  0.5409461863802251  0.0986078357772584  1.0000
  H   H30       1.0  0.798196612845558  0.5332168762433014  0.13386794704914706  1.0000
  H   H31       1.0  0.37653281208114453  0.5024293048154149  0.16717816434979227  1.0000
  H   H32       1.0  0.599147195498901  0.49745868111496355  0.2043413208530254  1.0000
  H   H33       1.0  0.6474629935940897  0.6055334434327477  0.21632922010557112  1.0000
  H   H34       1.0  0.4116214080714684  0.5887340734793796  0.24112389828557923  1.0000
  H   H35       1.0  0.4248653514657761  0.6104956165772109  0.17846893862462576  1.0000
  H   H36       1.0  0.3476679288448493  0.4984502064827083  0.822022963252529  1.0000
  H   H37       1.0  0.20272475669575127  0.46313946682391116  0.8650154332729798  1.0000
  H   H38       1.0  0.6618278844660638  0.4774291618906544  0.8688337248508873  1.0000
  H   H39       1.0  0.5228374406572768  0.4449976517522103  0.9130574043406483  1.0000
  H   H40       1.0  0.40372180922805256  0.3673270498438441  0.8366510298961245  1.0000
  H   H41       1.0  0.6697439283148298  0.3698800899254665  0.840967857772398  1.0000
  H   H42       1.0  0.5427848769677084  0.3998870904462279  0.7912486113503264  1.0000
  H   H43       1.0  0.3062129224663294  0.9609695586354694  0.3611460840218186  1.0000
  H   H44       1.0  0.15972907772442102  0.9968555456003757  0.31817849663277536  1.0000
  H   H45       1.0  0.9887535992939361  0.9442917130421761  0.40939544787549653  1.0000
  H   H46       1.0  0.847926254325415  0.9772978075762921  0.3652829670233615  1.0000
  H   H47       1.0  0.9568469290230084  0.8988848909858831  0.2877204336405299  1.0000
  H   H48       1.0  0.8325738101378021  0.8699147073296845  0.33787817378472346  1.0000
  H   H49       1.0  0.09799835697064198  0.8657128252738037  0.3330148873222924  1.0000
  H   H50       1.0  0.8405476357177689  0.0033569285339182697  0.6824494374977162  1.0000
  H   H51       1.0  0.6937051389677363  0.03884293682786219  0.6392440809450193  1.0000
  H   H52       1.0  0.15211155183493466  0.0228445560509982  0.6351571777238335  1.0000
  H   H53       1.0  0.010826231530387502  0.055538537888026  0.5909100854860797  1.0000
  H   H54       1.0  0.9012606061053176  0.13434768498439098  0.6670410715283452  1.0000
  H   H55       1.0  0.1667037985600999  0.13027493145494157  0.6621564365547528  1.0000
  H   H56       1.0  0.04284492217653479  0.10149744374938757  0.7124999739948237  1.0000
  H   H57       1.0  0.5244618273264621  0.676270256947781  0.7555048171557034  1.0000
  H   H58       1.0  0.47532374002723526  0.3212596201361749  0.2414016278196911  1.0000
  H   H59       1.0  0.022859780918238894  0.8228483785462117  0.7466097585402025  1.0000
  H   H60       1.0  0.9779765694242426  0.1768880117079021  0.2566690885114369  1.0000
  C   C1        1.0  0.5248898758557202  0.8109532337443212  0.6850161623657627  1.0000
  C   C2        1.0  0.4800664316790773  0.18852625559016195  0.31597090576513415  1.0000
  C   C3        1.0  0.028410065855666695  0.6882964335971522  0.8162511017954728  1.0000
  C   C4        1.0  0.9689088245059451  0.3107057316199686  0.18455363748942938  1.0000
  C   C5        1.0  0.5286605349493526  0.825257475935132  0.8283714898199648  1.0000
  C   C6        1.0  0.4681365466979841  0.17355574932278023  0.1721990498509882  1.0000
  C   C7        1.0  0.0271182608485603  0.6738481560850929  0.6719807760578504  1.0000
  C   C8        1.0  0.9773982444193478  0.32550535020720167  0.3280407920492793  1.0000
  C   C9        1.0  0.9183364002652468  0.5173440661408365  0.4563264953144213  1.0000
  C   C10       1.0  0.07902044610192151  0.4828206308660086  0.5431029748579731  1.0000
  C   C11       1.0  0.42035527525255384  0.9821059642496478  0.0427911877318721  1.0000
  C   C12       1.0  0.5792246810622855  0.01759651699374128  0.9570487162726309  1.0000
  C   C13       1.0  0.12155189837080371  0.5420710138647067  0.48498363386364207  1.0000
  C   C14       1.0  0.875814466672878  0.4581055847532697  0.5144780958280819  1.0000
  C   C15       1.0  0.6238121250023738  0.9579218308324043  0.014874336613715398  1.0000
  C   C16       1.0  0.37575735121852455  0.04181242259780047  0.984975770424775  1.0000
  C   C17       1.0  0.026490978338443893  0.6307324531464147  0.6238304993741366  1.0000
  C   C18       1.0  0.9743571248081224  0.36904850507389864  0.37590717577643323  1.0000
  C   C19       1.0  0.5307787273977594  0.8690410064516528  0.8760491812928636  1.0000
  C   C20       1.0  0.46847140141519356  0.13013608360198964  0.12424519989016153  1.0000
  C   C21       1.0  0.8109691269581775  0.5223700477113127  0.5112472310395545  1.0000
  C   C22       1.0  0.18639273175443088  0.4778186348516584  0.4882176253192654  1.0000
  C   C23       1.0  0.31241560373281635  0.9773749382195762  0.9874815111610785  1.0000
  C   C24       1.0  0.6871086802497784  0.0223464820063342  0.012359831962022802  1.0000
  C   C25       1.0  0.011516153797984395  0.5464924722622868  0.5407135172305999  1.0000
  C   C26       1.0  0.9858301145769841  0.45369825322017476  0.45871900462431375  1.0000
  C   C27       1.0  0.5134205394894522  0.9537161833445966  0.9587089405825822  1.0000
  C   C28       1.0  0.48610963543193003  0.046011660257669  0.0411267941057503  1.0000
  C   C29       1.0  0.0230971745082797  0.5926551928718666  0.5844689956921769  1.0000
  C   C30       1.0  0.9753817438776764  0.40738917754693205  0.4150596679557594  1.0000
  C   C31       1.0  0.5262533787304021  0.9075356321028707  0.9150545574886807  1.0000
  C   C32       1.0  0.47322670356810886  0.0919904375465066  0.0849687645123609  1.0000
  C   C33       1.0  0.1385347810794855  0.35052726835318293  0.11121500346843052  1.0000
  C   C34       1.0  0.8767048961856431  0.6557330345569597  0.8960111025749312  1.0000
  C   C35       1.0  0.6374864573599126  0.15316347058725915  0.3944459188919042  1.0000
  C   C36       1.0  0.36456322236809763  0.846374009966084  0.6070309048432705  1.0000
  C   C37       1.0  0.146155084762114  0.38895410087857135  0.0761993822882587  1.0000
  C   C38       1.0  0.877936588552899  0.6209077742863871  0.9342651367473779  1.0000
  C   C39       1.0  0.6394233211523854  0.11685419802145697  0.4314655909093474  1.0000
  C   C40       1.0  0.3615171886602439  0.8825520379042475  0.5699025123464878  1.0000
  C   C41       1.0  0.987775900282763  0.42680272289685917  0.07255546951637372  1.0000
  C   C42       1.0  0.031700465378918394  0.5812022829597155  0.9361933782168707  1.0000
  C   C43       1.0  0.4854624349268376  0.0772643265799786  0.4324918795568635  1.0000
  C   C44       1.0  0.5151626470663045  0.9222060249188433  0.5686410266334575  1.0000
  C   C45       1.0  0.8149078298691492  0.42518594331529164  0.10367009881852601  1.0000
  C   C46       1.0  0.1893711646586738  0.5766128220053304  0.8994199676390124  1.0000
  C   C47       1.0  0.32465715712232407  0.07429425393583948  0.3960693686395018  1.0000
  C   C48       1.0  0.6767652181058992  0.9253446075601062  0.6048741781023352  1.0000
  C   C49       1.0  0.8117586401813381  0.3867612331765216  0.13916227878741697  1.0000
  C   C50       1.0  0.18520949800005576  0.6118817691262423  0.8611719732303699  1.0000
  C   C51       1.0  0.3260482359040252  0.1108142224488304  0.35891488595608223  1.0000
  C   C52       1.0  0.6766617631181332  0.8887806440142471  0.6419812949165404  1.0000
  C   C53       1.0  0.9717151962133315  0.34920636859944665  0.1443012466510254  1.0000
  C   C54       1.0  0.030634018608083097  0.6517370319422611  0.8581590027660227  1.0000
  C   C55       1.0  0.48060904775226726  0.15069144137797963  0.35681777644526863  1.0000
  C   C56       1.0  0.5225204832945706  0.8489222067694302  0.6442678480155024  1.0000
  C   C57       1.0  0.022609535222016988  0.5409058942969837  0.9739086511360426  1.0000
  C   C58       1.0  0.0009054540414225991  0.46818649371994786  0.0360681808386829  1.0000
  C   C59       1.0  0.506813712816971  0.9629515208793008  0.5313195456775689  1.0000
  C   C60       1.0  0.4929693427138773  0.03633726954561211  0.46966730154220937  1.0000
  C   C61       1.0  0.32280351373797334  0.5770064715648644  0.4227968743493093  1.0000
  C   C62       1.0  0.46454382201637395  0.6263825180115035  0.4200201067932667  1.0000
  C   C63       1.0  0.5465297148407087  0.6222276702111529  0.3637346393741225  1.0000
  C   C64       1.0  0.6751851856093082  0.423547820485993  0.5769337470847803  1.0000
  C   C65       1.0  0.5354486923508901  0.37391502868143794  0.5803578065348561  1.0000
  C   C66       1.0  0.4526229229620427  0.37881654152560174  0.6366721712786186  1.0000
  C   C67       1.0  0.826723822834232  0.9230956136706894  0.07766480788102831  1.0000
  C   C68       1.0  0.9671444782409182  0.8734221432781767  0.0812626241677634  1.0000
  C   C69       1.0  0.052874170419656294  0.8783485584589386  0.137660037249276  1.0000
  C   C70       1.0  0.17289302597293948  0.07672846790488559  0.9221641753083247  1.0000
  C   C71       1.0  0.032695606014662794  0.1264751400106263  0.918628877229466  1.0000
  C   C72       1.0  0.946818559265459  0.12168648438064618  0.8622625308912006  1.0000
  C   C73       1.0  0.6435016344359852  0.5168276841574554  0.1260861513445164  1.0000
  C   C74       1.0  0.5247952470881785  0.5222345949931367  0.1773613066719619  1.0000
  C   C75       1.0  0.5009797233163054  0.5852306007407577  0.20475059188709818  1.0000
  C   C76       1.0  0.3435769526980366  0.48686290768780793  0.8617740714329757  1.0000
  C   C77       1.0  0.5260340355476386  0.45188289317254526  0.8717244388336026  1.0000
  C   C78       1.0  0.5356989214429645  0.39417875866161733  0.8329223583768554  1.0000
  C   C79       1.0  0.16578631893267468  0.9851932734482178  0.3579156923277651  1.0000
  C   C80       1.0  0.9828091051406674  0.9510519043324097  0.3680266761819624  1.0000
  C   C81       1.0  0.9671726277423147  0.8933303280081616  0.3294325583319448  1.0000
  C   C82       1.0  0.8343994644119233  0.014776809413582706  0.6426100182390684  1.0000
  C   C83       1.0  0.017023491805481697  0.04898320190458351  0.6323419636644161  1.0000
  C   C84       1.0  0.0323101201180691  0.1068484937798573  0.6707291737043661  1.0000
  N   N1        1.0  0.8706137613072115  0.46150067570921044  0.9946224747182484  1.0000
  N   N2        1.0  0.15362709379823505  0.5475051432419847  0.015125274795174401  1.0000
  N   N3        1.0  0.3613445352801818  0.04353985985316198  0.5101595621444374  1.0000
  N   N4        1.0  0.6378398329713519  0.9556032398407978  0.4906793361807403  1.0000
  N   N5        1.0  0.8820121092016605  0.49926738848478175  0.9626576156816569  1.0000
  N   N6        1.0  0.1417809592284058  0.5098736086465935  0.0473980673705228  1.0000
  N   N7        1.0  0.3690946145415737  0.0054269788333059085  0.5419865527008056  1.0000
  N   N8        1.0  0.6301152816442224  0.9937193276186778  0.4588515615859237  1.0000
  O   O1        1.0  0.35573660573690086  0.8080795821054849  0.8105228599320853  1.0000
  O   O2        1.0  0.6398115683839832  0.187807255009055  0.19288834892027754  1.0000
  O   O3        1.0  0.8557144393525533  0.6891290853754058  0.691537625846763  1.0000
  O   O4        1.0  0.150029858597847  0.30719974419481133  0.3117084338210745  1.0000
  O   O5        1.0  0.6953804852066198  0.7943282435885097  0.6985705544982752  1.0000
  O   O6        1.0  0.3100462990738889  0.2018752466472122  0.2991445351525428  1.0000
  O   O7        1.0  0.19745746464475636  0.7025987045788539  0.8004429912224539  1.0000
  O   O8        1.0  0.7995416962492569  0.2925095552051573  0.1963492225720316  1.0000
  O   O9        1.0  0.6983681735804339  0.8089883692329138  0.8082557332796513  1.0000
  O   O10       1.0  0.2974513028524726  0.19243343093015852  0.1896466307174904  1.0000
  O   O11       1.0  0.1983216566540165  0.6914936728918307  0.6907760028450767  1.0000
  O   O12       1.0  0.8079523250012456  0.31056484964828  0.3062912926007542  1.0000
  O   O13       1.0  0.8571103228103708  0.7011548510998724  0.7997046459026365  1.0000
  O   O14       1.0  0.1378890634680445  0.30060371049151513  0.2043294086703469  1.0000
  O   O15       1.0  0.35573891457605805  0.7994215622640295  0.7029205433418184  1.0000
  O   O16       1.0  0.6501198717047955  0.20332742049627225  0.3011027964596735  1.0000
  O   O17       1.0  0.5256450801958507  0.7148872807326399  0.7479199924407778  1.0000
  O   O18       1.0  0.4752028675951792  0.2840852645233483  0.2521426978978454  1.0000
  O   O19       1.0  0.025055426091391598  0.7836824620778132  0.7528055710818721  1.0000
  O   O20       1.0  0.9756897444279742  0.21501537277399763  0.2479531335616727  1.0000
  O   O21       1.0  0.23519000196232304  0.5866388579471647  0.47574950039020086  1.0000
  O   O22       1.0  0.7620644092396986  0.41362803997812153  0.5238688062783369  1.0000
  O   O23       1.0  0.7387522443256457  0.9134232402020572  0.024343345388331297  1.0000
  O   O24       1.0  0.2609157877939978  0.0863286691836578  0.9754724877576137  1.0000
  O   O25       1.0  0.6504772349348469  0.457599094456832  0.097076935238448  1.0000
  O   O26       1.0  0.34341990231641967  0.5391510631911987  0.9025355270258046  1.0000
  O   O27       1.0  0.16931431764476912  0.03742123298438568  0.3986977471780051  1.0000
  O   O28       1.0  0.83150415548085  0.9623644333189745  0.6020389839613713  1.0000
  F   F1        1.0  0.8360401162395589  0.5321075219439353  0.4118061998721174  1.0000
  F   F2        1.0  0.16150121834859021  0.4681061583590278  0.587611277686804  1.0000
  F   F3        1.0  0.3389876957433983  0.9668010293417453  0.0867796920488004  1.0000
  F   F4        1.0  0.6606223740038216  0.032938201781128405  0.9130720326886961  1.0000
  F   F5        1.0  0.3680627508316121  0.4526468346342796  0.47601033461082665  1.0000
  F   F6        1.0  0.6291794860374083  0.5474775535662673  0.5234762358287527  1.0000
  F   F7        1.0  0.8687053364854974  0.04748131379756159  0.0253762840761738  1.0000
  F   F8        1.0  0.1308574431006662  0.9522252404062215  0.9744268863796037  1.0000
  F   F9        1.0  0.2935327872247981  0.3138132410941382  0.11101996408504529  1.0000
  F   F10       1.0  0.7260242726969963  0.694104961532169  0.8975028542798072  1.0000
  F   F11       1.0  0.7882516056253479  0.19147658492740052  0.39700384055301907  1.0000
  F   F12       1.0  0.21436238929140214  0.8079520874105484  0.605013004518689  1.0000
  F   F13       1.0  0.30586513050968017  0.3873569808174863  0.04365865052205461  1.0000
  F   F14       1.0  0.7280091866321642  0.6264597641437675  0.9703164380200278  1.0000
  F   F15       1.0  0.7918494733501616  0.1211453014074237  0.46739821095582096  1.0000
  F   F16       1.0  0.2085068120753206  0.8781046455636242  0.5341394942992892  1.0000
  F   F17       1.0  0.6480658090263418  0.38810429641870314  0.1703571581374987  1.0000
  F   F18       1.0  0.33607399071729555  0.6049059806463788  0.8252519360729594  1.0000
  F   F19       1.0  0.1719530734884671  0.10506170455683872  0.3233081520372139  1.0000
  F   F20       1.0  0.8311048244224464  0.8944149033251563  0.6775096342832967  1.0000
