data_image0
_chemical_formula_structural       Zn4H10C86N4O16F40
_chemical_formula_sum              "Zn4 H10 C86 N4 O16 F40"
_cell_length_a       16.689638026458226
_cell_length_b       17.884213509132774
_cell_length_c       30.975443245849192
_cell_angle_alpha    90.31273510064226
_cell_angle_beta     89.26244179710898
_cell_angle_gamma    89.9597274756096

_space_group_name_H-M_alt    "P 1"
_space_group_IT_number       1

loop_
  _space_group_symop_operation_xyz
  'x, y, z'

loop_
  _atom_site_type_symbol
  _atom_site_label
  _atom_site_symmetry_multiplicity
  _atom_site_fract_x
  _atom_site_fract_y
  _atom_site_fract_z
  _atom_site_occupancy
  Zn  Zn1       1.0  0.5712512094833572  0.49883083401756056  0.5056059657994467  1.0000
  Zn  Zn2       1.0  0.40537181780026543  0.4968311364855324  0.5018931946585923  1.0000
  Zn  Zn3       1.0  0.4290227994264626  0.5009887404988616  0.9243496188848042  1.0000
  Zn  Zn4       1.0  0.5949568425841747  0.4997799034262013  0.9279938845441791  1.0000
  H   H1        1.0  0.3983142828094657  0.4957000217025678  0.7874475458439176  1.0000
  H   H2        1.0  0.6539687777986742  0.5014626394092542  0.795325200841738  1.0000
  H   H3        1.0  0.601625832686743  0.49507347169252797  0.6424937332701574  1.0000
  H   H4        1.0  0.345969086507921  0.5008300216480418  0.6345598296367356  1.0000
  H   H5        1.0  0.2983223727849095  0.45052396795173155  0.7404731332264517  1.0000
  H   H6        1.0  0.29985332742835175  0.5494579415237479  0.7407732639100855  1.0000
  H   H7        1.0  0.2619505902403461  0.5005127564191624  0.6952787443671297  1.0000
  H   H8        1.0  0.7018134835321916  0.45002246938059187  0.6894245950734685  1.0000
  H   H9        1.0  0.6998513774417249  0.5489518816975616  0.6890907374407431  1.0000
  H   H10       1.0  0.7379417176912638  0.5009982034424211  0.7346078604655659  1.0000
  C   C1        1.0  0.4892453651443135  0.6420283351964781  0.5006776563552435  1.0000
  C   C2        1.0  0.4814449896893294  0.49687075072547743  0.5864576470557594  1.0000
  C   C3        1.0  0.4881332260145115  0.3537747994303755  0.5027161411436792  1.0000
  C   C4        1.0  0.4957072425612381  0.5014347280222394  0.4208845979934495  1.0000
  C   C5        1.0  0.5105674849967486  0.6445914099740332  0.9285571114346067  1.0000
  C   C6        1.0  0.5186393556753616  0.4979878894297584  0.8434278419157835  1.0000
  C   C7        1.0  0.5129307400788149  0.356437159247001  0.9261164410606851  1.0000
  C   C8        1.0  0.5043978993925435  0.5052437505616821  0.0090278473310832  1.0000
  C   C9        1.0  0.23581835325900613  0.5497870675973925  0.5220656915996997  1.0000
  C   C10       1.0  0.1525165717125745  0.552921405175546  0.5224115739359405  1.0000
  C   C11       1.0  0.10895281163031  0.5016263779382582  0.49732176084714996  1.0000
  C   C12       1.0  0.1537802646204156  0.44958437657462696  0.47274965752051656  1.0000
  C   C13       1.0  0.23710191133999098  0.45059487822890515  0.47463921554068367  1.0000
  C   C14       1.0  0.024746086235857903  0.5019792563977744  0.4974731715314319  1.0000
  C   C15       1.0  0.9518729461575222  0.5020736229213225  0.49859224617087955  1.0000
  C   C16       1.0  0.8677069752408287  0.5010589427911325  0.500316460831904  1.0000
  C   C17       1.0  0.8241990714387342  0.5425007791402336  0.5315088752438086  1.0000
  C   C18       1.0  0.7409537445956289  0.5386031221007384  0.5323280446880074  1.0000
  C   C19       1.0  0.73958688436462  0.457416901945997  0.47465425084160257  1.0000
  C   C20       1.0  0.822859101475899  0.45766312579475227  0.4713147781286224  1.0000
  C   C21       1.0  0.4938042170154589  0.725819439439746  0.4964531163841882  1.0000
  C   C22       1.0  0.5656079899824036  0.761301699058613  0.4842472543100697  1.0000
  C   C23       1.0  0.5715246472831268  0.8387643808233916  0.4821013415742782  1.0000
  C   C24       1.0  0.5056642512514742  0.8851219570834342  0.4922120357071832  1.0000
  C   C25       1.0  0.4333267682842817  0.8494045742874899  0.5036852900078657  1.0000
  C   C26       1.0  0.42769373162497715  0.7719406015105859  0.5056883117946285  1.0000
  C   C27       1.0  0.510611705466225  0.9636130015251747  0.49203516083430526  1.0000
  C   C28       1.0  0.5106308819872895  0.03165772676150169  0.4938963768964229  1.0000
  C   C29       1.0  0.5060131095325318  0.11006878926914246  0.4963885940861417  1.0000
  C   C30       1.0  0.5729617140766265  0.15501937478045844  0.505384562954518  1.0000
  C   C31       1.0  0.5667958066841196  0.23245509442586604  0.5081793646413856  1.0000
  C   C32       1.0  0.4936176940306609  0.2697174754407  0.5017982962808958  1.0000
  C   C33       1.0  0.426624111445193  0.22468624993818753  0.4931793664774985  1.0000
  C   C34       1.0  0.43257374056261  0.14722223017123062  0.4905671306534884  1.0000
  C   C35       1.0  0.4561456186390984  0.49679538222364505  0.7708175620415716  1.0000
  C   C36       1.0  0.6012326421035398  0.499685688490011  0.7749322995367293  1.0000
  C   C37       1.0  0.6094756972860081  0.4988255138300628  0.7305562542937523  1.0000
  C   C38       1.0  0.5388788770070861  0.49753583785106037  0.7046829620772428  1.0000
  C   C39       1.0  0.5437803794582622  0.49633046215323146  0.6590970320164331  1.0000
  C   C40       1.0  0.39870774502408324  0.4992318956727501  0.6549582312375078  1.0000
  C   C41       1.0  0.3904387191674772  0.49874673867571306  0.6993377621957109  1.0000
  C   C42       1.0  0.4610216262331975  0.4976365246246174  0.7252280373456299  1.0000
  C   C43       1.0  0.5248386521568449  0.4978794204265352  0.7953166364931545  1.0000
  C   C44       1.0  0.4751304031564771  0.49724762367112846  0.6345729724315845  1.0000
  C   C45       1.0  0.5027303449426058  0.5089413073065141  0.057587267177574085  1.0000
  C   C46       1.0  0.43230489614092  0.49503938866903463  0.08154309376646299  1.0000
  C   C47       1.0  0.43125729014204234  0.49673032507325815  0.1264292112022574  1.0000
  C   C48       1.0  0.5008159052843766  0.5126354303149723  0.14998270943718234  1.0000
  C   C49       1.0  0.5712099637513787  0.5273139788418958  0.1259900967181551  1.0000
  C   C50       1.0  0.5720269549728131  0.5255218408483697  0.0811043197476522  1.0000
  C   C51       1.0  0.5001909729863457  0.5131292128944265  0.19536515689783573  1.0000
  C   C52       1.0  0.49971870096636206  0.5125390098509185  0.23467101889374928  1.0000
  C   C53       1.0  0.4990572796931829  0.5108112356820839  0.28003681400971187  1.0000
  C   C54       1.0  0.4284560580648389  0.5242373451466873  0.3042084535349332  1.0000
  C   C55       1.0  0.427671600701963  0.5215192675884167  0.3490606313476334  1.0000
  C   C56       1.0  0.4972063504835376  0.5052249137891774  0.3723607935205209  1.0000
  C   C57       1.0  0.5677695587541649  0.49233676968622564  0.34823535029325103  1.0000
  C   C58       1.0  0.5687979800454316  0.4949815869282474  0.3033793890400672  1.0000
  C   C59       1.0  0.7645774717300782  0.5520643675364595  0.9073210682134984  1.0000
  C   C60       1.0  0.8478944348415639  0.5547450169047464  0.9067461796786203  1.0000
  C   C61       1.0  0.8914358630095406  0.5038112234056198  0.9318069326962899  1.0000
  C   C62       1.0  0.8466058130718749  0.4525521797526151  0.9565596801763547  1.0000
  C   C63       1.0  0.7632770426528381  0.453988824829885  0.9549006522255821  1.0000
  C   C64       1.0  0.9756260959636336  0.5037400314924267  0.931543374672273  1.0000
  C   C65       1.0  0.0484802827818527  0.5034388400463995  0.9304790110075769  1.0000
  C   C66       1.0  0.13264235916626893  0.5022555586940596  0.9288342825701006  1.0000
  C   C67       1.0  0.17615661953801262  0.5434615424178302  0.897830526524153  1.0000
  C   C68       1.0  0.2594195991426815  0.5397441725777908  0.8971484033808322  1.0000
  C   C69       1.0  0.2607353872378866  0.45913471044649135  0.9546012928618877  1.0000
  C   C70       1.0  0.1774462035326891  0.45914660497997045  0.9577565614201331  1.0000
  C   C71       1.0  0.5058024422276972  0.7285760154855934  0.9313965899027676  1.0000
  C   C72       1.0  0.43372279986371615  0.7647545133572747  0.9426913190216125  1.0000
  C   C73       1.0  0.4274124221873024  0.8422871445921415  0.9432232191033094  1.0000
  C   C74       1.0  0.49320119715977023  0.8880166863384387  0.9324520796259889  1.0000
  C   C75       1.0  0.5658064139759632  0.8516606598890842  0.9218962749445152  1.0000
  C   C76       1.0  0.5718070559905541  0.7741152422854395  0.9214217808294123  1.0000
  C   C77       1.0  0.48814369154352727  0.9664736865490509  0.9316319375022599  1.0000
  C   C78       1.0  0.48807284009133417  0.0344607827010179  0.929600223285078  1.0000
  C   C79       1.0  0.49327074016191824  0.11284535685074096  0.9277826429117795  1.0000
  C   C80       1.0  0.4270186359466521  0.15857684314678974  0.9187290448596809  1.0000
  C   C81       1.0  0.43385438394882675  0.23603085525515152  0.9173244653625685  1.0000
  C   C82       1.0  0.5069884321577548  0.27243549642030723  0.9252141777792529  1.0000
  C   C83       1.0  0.5733576840168056  0.22665077735012318  0.9336905553599024  1.0000
  C   C84       1.0  0.5667784275531106  0.14918983255088133  0.9349084329016506  1.0000
  C   C85       1.0  0.30840174928554387  0.499854180329734  0.7200244323949503  1.0000
  C   C86       1.0  0.6914992334771313  0.4997394209494244  0.7098600593312979  1.0000
  N   N1        1.0  0.2769409770283531  0.4995416006904633  0.4988238037505112  1.0000
  N   N2        1.0  0.6997933269370051  0.4972377010777363  0.5044487770679567  1.0000
  N   N3        1.0  0.7234277872352947  0.5025946945054044  0.9307594349330157  1.0000
  N   N4        1.0  0.30054646524096285  0.49879747914697226  0.9250198753121524  1.0000
  O   O1        1.0  0.551419867444409  0.6108584901663575  0.51545473632018  1.0000
  O   O2        1.0  0.4248032932308092  0.6104567689833897  0.4893439715713441  1.0000
  O   O3        1.0  0.41792211739067403  0.5130422489412324  0.565837636675866  1.0000
  O   O4        1.0  0.5492901879853989  0.48071410069205445  0.5693195868882057  1.0000
  O   O5        1.0  0.4211988146962113  0.3828069710631609  0.5129195218863742  1.0000
  O   O6        1.0  0.5520704579646037  0.3882955204515779  0.4924555357557523  1.0000
  O   O7        1.0  0.5586658737850883  0.5214807528430538  0.4402528257789838  1.0000
  O   O8        1.0  0.4308472094515707  0.47834401117650294  0.4380848858982276  1.0000
  O   O9        1.0  0.4483602176362567  0.6125640191469017  0.9142816275108883  1.0000
  O   O10       1.0  0.5750752746279559  0.613701428273252  0.9402519752962631  1.0000
  O   O11       1.0  0.5820687614727335  0.5148313669354392  0.8640430696636656  1.0000
  O   O12       1.0  0.4510124439349354  0.4815556498337157  0.8605794242776666  1.0000
  O   O13       1.0  0.5799780846785794  0.3855274288193866  0.9164918462060354  1.0000
  O   O14       1.0  0.4491555549102557  0.3907861491585149  0.937160029999454  1.0000
  O   O15       1.0  0.4412807848390515  0.5247104544796669  0.989717170977478  1.0000
  O   O16       1.0  0.5695486385147319  0.48255518017881355  0.9917637848585911  1.0000
  F   F1        1.0  0.2767502442816152  0.5981327961364471  0.5458793359784195  1.0000
  F   F2        1.0  0.2793517548673918  0.40099682162600886  0.45182162681582116  1.0000
  F   F3        1.0  0.1166332217425534  0.39898745457546164  0.4480358504829454  1.0000
  F   F4        1.0  0.1140993216030921  0.6042242323636057  0.5466690497749268  1.0000
  F   F5        1.0  0.862669175398068  0.5848516377775679  0.5604672502532466  1.0000
  F   F6        1.0  0.8598682874387721  0.4165940253423697  0.4407543375615575  1.0000
  F   F7        1.0  0.697681039879882  0.41592704240144224  0.4474604967658918  1.0000
  F   F8        1.0  0.6997962423503453  0.5770210325300834  0.5621284649844682  1.0000
  F   F9        1.0  0.6314346406110617  0.7211157901164498  0.47336959679262947  1.0000
  F   F10       1.0  0.35681521317142995  0.7425206637693973  0.5183284730624675  1.0000
  F   F11       1.0  0.3684945291968588  0.891329094567588  0.5137801560944979  1.0000
  F   F12       1.0  0.6418964913154924  0.8700963979530337  0.47020462173953337  1.0000
  F   F13       1.0  0.6446436255702183  0.12223151528805684  0.5118470883920095  1.0000
  F   F14       1.0  0.3664759824305719  0.10678440835730639  0.4818926797633764  1.0000
  F   F15       1.0  0.3540268315185173  0.2549363715906877  0.48597748528369067  1.0000
  F   F16       1.0  0.6341122318635115  0.27023113772001744  0.5181706004712012  1.0000
  F   F17       1.0  0.36322283363914204  0.4773276172932056  0.061839627296258484  1.0000
  F   F18       1.0  0.641886707107389  0.5420315941914919  0.060925255164569585  1.0000
  F   F19       1.0  0.639311274589808  0.5437429047281268  0.147003467926659  1.0000
  F   F20       1.0  0.3622676329412117  0.4818306552224739  0.1478207943089558  1.0000
  F   F21       1.0  0.3601550444904689  0.5405049395504518  0.2834168101802205  1.0000
  F   F22       1.0  0.6379804336905011  0.48125655581433335  0.2817867369270175  1.0000
  F   F23       1.0  0.6370609100668645  0.4748839034565008  0.3677260387226653  1.0000
  F   F24       1.0  0.35760219950862643  0.5370003407225991  0.3694307787145874  1.0000
  F   F25       1.0  0.7236677070288026  0.6000561507592151  0.8835272838483375  1.0000
  F   F26       1.0  0.7209901231464784  0.40516675836532545  0.977918667414549  1.0000
  F   F27       1.0  0.8837408402072456  0.40232432838022436  0.9812440735212817  1.0000
  F   F28       1.0  0.8863292183567496  0.605270965268417  0.8823048928026863  1.0000
  F   F29       1.0  0.13766846780899303  0.5855063290899024  0.8689692171347898  1.0000
  F   F30       1.0  0.1404005247501487  0.41824610554591846  0.9880935399122279  1.0000
  F   F31       1.0  0.3026796553727423  0.4181206709967283  0.9817948199494207  1.0000
  F   F32       1.0  0.300552174362423  0.5779720611011212  0.8675279078235292  1.0000
  F   F33       1.0  0.3679882272399837  0.7252783759727205  0.9542311159673387  1.0000
  F   F34       1.0  0.6429201530622562  0.7439509623511638  0.9095413537446716  1.0000
  F   F35       1.0  0.6306169946352966  0.89299042638801  0.9113164768610175  1.0000
  F   F36       1.0  0.35679395132889624  0.8743001998065619  0.9543183614613538  1.0000
  F   F37       1.0  0.3553496316339205  0.12660645948431432  0.9109808810053436  1.0000
  F   F38       1.0  0.6322035294876827  0.10793236671675997  0.9436255757075358  1.0000
  F   F39       1.0  0.6458094267431634  0.2561762864656386  0.9422206802959181  1.0000
  F   F40       1.0  0.3672726045259865  0.2747750212702157  0.9072378674774553  1.0000
