data_image0
_chemical_formula_structural       Al4H40C60O20
_chemical_formula_sum              "Al4 H40 C60 O20"
_cell_length_a       6.684200508628594
_cell_length_b       17.13795839037201
_cell_length_c       19.45201126410836
_cell_angle_alpha    108.75435250821225
_cell_angle_beta     89.99818411075769
_cell_angle_gamma    89.99760136088103

_space_group_name_H-M_alt    "P 1"
_space_group_IT_number       1

loop_
  _space_group_symop_operation_xyz
  'x, y, z'

loop_
  _atom_site_type_symbol
  _atom_site_label
  _atom_site_symmetry_multiplicity
  _atom_site_fract_x
  _atom_site_fract_y
  _atom_site_fract_z
  _atom_site_occupancy
  Al  Al1       1.0  0.8982370602050977  0.4992262650789953  0.5000391607163267  1.0000
  Al  Al2       1.0  0.39822954812593286  0.5007719741143359  0.49995966687794174  1.0000
  Al  Al3       1.0  0.37465358935829574  0.0003890252712536999  0.0007139245170080001  1.0000
  Al  Al4       1.0  0.8746540506045902  0.9996084647714765  0.9992864723808524  1.0000
  H   H1        1.0  0.42554327046986623  0.6504558995401695  0.7249753831212759  1.0000
  H   H2        1.0  0.9255237362803612  0.3495242782809952  0.275002196618928  1.0000
  H   H3        1.0  0.4121828993143026  0.7662424692464852  0.8409157110461934  1.0000
  H   H4        1.0  0.9121359572419506  0.2337396124629477  0.1590551097110335  1.0000
  H   H5        1.0  0.6494946760895104  0.8036850853525974  0.7932385225096966  1.0000
  H   H6        1.0  0.1494509455295798  0.19636641943614558  0.206817749224129  1.0000
  H   H7        1.0  0.7752310479061605  0.772046442409504  0.6346715823423067  1.0000
  H   H8        1.0  0.2752704660034624  0.22795501307499677  0.36535745128222175  1.0000
  H   H9        1.0  0.41821626951597324  0.6848945002852813  0.4029646907413991  1.0000
  H   H10       1.0  0.918186305441111  0.31508626243324755  0.5970222572440989  1.0000
  H   H11       1.0  0.8396388879050534  0.8111146601731816  0.09332029481523563  1.0000
  H   H12       1.0  0.3395870723892074  0.1888825706513231  0.9066743239546042  1.0000
  H   H13       1.0  0.6873595981336463  0.7009695828027771  0.1347000680601553  1.0000
  H   H14       1.0  0.18726897751430016  0.29900900815707837  0.8652851540289177  1.0000
  H   H15       1.0  0.6962730227147205  0.6136328058371063  0.21207154057045594  1.0000
  H   H16       1.0  0.1961482581320908  0.3863284004832507  0.7878982382161013  1.0000
  H   H17       1.0  0.5767245263107625  0.8738579118368219  0.2751842895545168  1.0000
  H   H18       1.0  0.076707811230122  0.12613642110883916  0.7248065538215656  1.0000
  H   H19       1.0  0.4141533394629278  0.9118548587408524  0.17527141032501703  1.0000
  H   H20       1.0  0.9141540250551046  0.08814783698967694  0.8247276505702317  1.0000
  H   H21       1.0  0.813668361990821  0.9239112620228978  0.7191613106613134  1.0000
  H   H22       1.0  0.5591470077947847  0.9125229137475015  0.7418248531202212  1.0000
  H   H23       1.0  0.739602670940549  0.9500810849289464  0.8117986529736855  1.0000
  H   H24       1.0  0.31365161405305736  0.07609970239283109  0.2808409580787199  1.0000
  H   H25       1.0  0.0591218080942113  0.0875239241158923  0.2582202624323244  1.0000
  H   H26       1.0  0.23951259397022537  0.04994135873513979  0.1882090016072908  1.0000
  H   H27       1.0  0.65979679070157  0.6993547929563347  0.6705729848323898  1.0000
  H   H28       1.0  0.15984390252476996  0.30067520220647737  0.3294775489402683  1.0000
  H   H29       1.0  0.8788887550636983  0.4976273679697342  0.32310028355680503  1.0000
  H   H30       1.0  0.6908907203047718  0.572470701804171  0.3366258699272678  1.0000
  H   H31       1.0  0.7777428860471289  0.5202053982005311  0.2473619853926011  1.0000
  H   H32       1.0  0.37888362114966156  0.5023834587807271  0.6769065934503474  1.0000
  H   H33       1.0  0.19088006984438977  0.4275241649501991  0.6633642342715406  1.0000
  H   H34       1.0  0.2776881640589012  0.4797877986248123  0.7526425689552809  1.0000
  H   H35       1.0  0.5789337110470925  0.7903542801068182  0.358031343755755  1.0000
  H   H36       1.0  0.0789120195258519  0.20963161474094244  0.6419539935304996  1.0000
  H   H37       1.0  0.6513977954873267  0.6073768317713827  0.5398529508361564  1.0000
  H   H38       1.0  0.15139271809781008  0.39262744429919383  0.46014343732059615  1.0000
  H   H39       1.0  0.6242852068417618  0.9003634957520318  0.005170788345665801  1.0000
  H   H40       1.0  0.1242774316742157  0.09962549905478817  0.9948027839916805  1.0000
  C   C1        1.0  0.6469753092755113  0.4184998464971769  0.5815587122766886  1.0000
  C   C2        1.0  0.1469929078566139  0.5815000626582146  0.418436662370148  1.0000
  C   C3        1.0  0.6471212063384755  0.38960960575497683  0.3849036309819169  1.0000
  C   C4        1.0  0.1470953577310894  0.6103871832162255  0.6150928099662566  1.0000
  C   C5        1.0  0.9754893322876724  0.729723237616909  0.7057768465891173  1.0000
  C   C6        1.0  0.4754953811591988  0.2702768930078463  0.2942361048534607  1.0000
  C   C7        1.0  0.139609419211169  0.6771399397280361  0.6860358634634098  1.0000
  C   C8        1.0  0.6396285393960355  0.3228584114424108  0.3139677858499681  1.0000
  C   C9        1.0  0.29674466525015214  0.6916329730292218  0.7370584020065183  1.0000
  C   C10       1.0  0.7967103794871591  0.3083604999677547  0.26292841659094535  1.0000
  C   C11       1.0  0.28936373395057297  0.756650002546891  0.8022650770863252  1.0000
  C   C12       1.0  0.7893116828755709  0.2433393717527679  0.19771157769766756  1.0000
  C   C13       1.0  0.12532595282763026  0.8113075453909955  0.8207604076044818  1.0000
  C   C14       1.0  0.6252548761341288  0.18870247332525028  0.17922950409496258  1.0000
  C   C15       1.0  0.9673783216229664  0.7944729180680737  0.7713258442182253  1.0000
  C   C16       1.0  0.4673306978722919  0.20553580069515928  0.22868298170637055  1.0000
  C   C17       1.0  0.7566673349053942  0.8195440583829451  0.7570636319332281  1.0000
  C   C18       1.0  0.2566330197653954  0.1804849617187543  0.242959958788262  1.0000
  C   C19       1.0  0.7716623901345727  0.7487115152915108  0.6811505340795707  1.0000
  C   C20       1.0  0.2716849394485621  0.2512937378209513  0.3188840116721039  1.0000
  C   C21       1.0  0.983134129011219  0.6119734529385994  0.3115806623266338  1.0000
  C   C22       1.0  0.48309997826584805  0.3880192630301663  0.6884169202722958  1.0000
  C   C23       1.0  0.14147240848368633  0.6241217715115112  0.3622618956676646  1.0000
  C   C24       1.0  0.6414219344056489  0.37586951108782063  0.6377270486420556  1.0000
  C   C25       1.0  0.29726252173593076  0.679290438371197  0.36401080643057787  1.0000
  C   C26       1.0  0.7972263046009687  0.3206919152615412  0.6359759478166184  1.0000
  C   C27       1.0  0.2988821185196997  0.7275406037821311  0.31808724241695074  1.0000
  C   C28       1.0  0.7988292323654348  0.2724415127895766  0.6818989353096329  1.0000
  C   C29       1.0  0.136851427516433  0.71901377208205  0.2682218975475408  1.0000
  C   C30       1.0  0.6367747915928562  0.28097275848837455  0.7317633262032217  1.0000
  C   C31       1.0  0.979912449985008  0.6609510790408916  0.2649371367753162  1.0000
  C   C32       1.0  0.4798407029940818  0.33903840707141336  0.7350561617433868  1.0000
  C   C33       1.0  0.4559692053047613  0.7851313323798762  0.3198879270868815  1.0000
  C   C34       1.0  0.9559427744213379  0.21484591367180172  0.6800976790174078  1.0000
  C   C35       1.0  0.4546221884782041  0.8313010167009194  0.2743483662504573  1.0000
  C   C36       1.0  0.954589392998848  0.16868522817046025  0.7256394791088852  1.0000
  C   C37       1.0  0.2943298747729983  0.824427614809778  0.22372084895217634  1.0000
  C   C38       1.0  0.7942868955628057  0.17555286739781206  0.7762670410818162  1.0000
  C   C39       1.0  0.1335414494283711  0.7684932131447295  0.2217992043048866  1.0000
  C   C40       1.0  0.633493106636912  0.23148794601540595  0.7781822681473047  1.0000
  C   C41       1.0  0.969694298542329  0.7625669006458577  0.1730649607698496  1.0000
  C   C42       1.0  0.46964654085270036  0.23741895031032814  0.8269193185021848  1.0000
  C   C43       1.0  0.8137906165881928  0.7047002069182253  0.17114099114703413  1.0000
  C   C44       1.0  0.313722353756603  0.2952815222374382  0.8288465015866961  1.0000
  C   C45       1.0  0.8197068236815496  0.6558269828560199  0.2143841753101796  1.0000
  C   C46       1.0  0.3196325425392317  0.34415848435866536  0.7855929155306215  1.0000
  C   C47       1.0  0.2904770293303756  0.8706017341709822  0.175879619186361  1.0000
  C   C48       1.0  0.7904454767461286  0.12939151485874592  0.8241127479093893  1.0000
  C   C49       1.0  0.1267150670949917  0.8661447265882741  0.12981519680417364  1.0000
  C   C50       1.0  0.6266828529169645  0.133855516642484  0.87018168405298  1.0000
  C   C51       1.0  0.9663691993201552  0.8135232504243672  0.1292453932603053  1.0000
  C   C52       1.0  0.466320133636664  0.1864650289699554  0.870747096137066  1.0000
  C   C53       1.0  0.624632256774312  0.11769131767321278  0.11065876160391502  1.0000
  C   C54       1.0  0.1246829011523829  0.8823105372094416  0.8893376273978362  1.0000
  C   C55       1.0  0.6248568393001648  0.08247040105009525  0.919132709240941  1.0000
  C   C56       1.0  0.1248532801263238  0.9175271612088807  0.08086148710977882  1.0000
  C   C57       1.0  0.715355401873353  0.9066217455843171  0.7572287894206938  1.0000
  C   C58       1.0  0.2153127813530418  0.0934122480871693  0.24279676602775171  1.0000
  C   C59       1.0  0.8247893849013437  0.5472390630370894  0.3040971983285772  1.0000
  C   C60       1.0  0.32477259400187103  0.45274901119343264  0.695906897231602  1.0000
  O   O1        1.0  0.4789178553913942  0.4153725048477596  0.41417802382287056  1.0000
  O   O2        1.0  0.9789352943009817  0.5846133119802416  0.5858326195110523  1.0000
  O   O3        1.0  0.8183107535175579  0.4334916251584388  0.5596423525181394  1.0000
  O   O4        1.0  0.3183671119429618  0.5664991433622361  0.4403477985978911  1.0000
  O   O5        1.0  0.8183706570474527  0.4152839917327427  0.4117921503130618  1.0000
  O   O6        1.0  0.318401459815476  0.5847246991359184  0.5881942925287688  1.0000
  O   O7        1.0  0.9794005047803509  0.5659653052344565  0.4421756236587626  1.0000
  O   O8        1.0  0.4793293382718459  0.4340434886073864  0.5578291598160448  1.0000
  O   O9        1.0  0.6486278227285281  0.5499518837408175  0.5100178942994377  1.0000
  O   O10       1.0  0.14861976926784587  0.4500520736046524  0.48997583998022526  1.0000
  O   O11       1.0  0.7944676777175489  0.06029711725882692  0.9364892996354898  1.0000
  O   O12       1.0  0.29449917191880803  0.9396866701951511  0.0634931830817251  1.0000
  O   O13       1.0  0.4537105008576745  0.08926594721310009  0.08582184883946553  1.0000
  O   O14       1.0  0.9538030454958742  0.9107234493708061  0.9141925855087225  1.0000
  O   O15       1.0  0.45541707599967646  0.06450362205984561  0.940273784435668  1.0000
  O   O16       1.0  0.9554326934247894  0.9355256802835398  0.05975598275326631  1.0000
  O   O17       1.0  0.29415944162035146  0.908646001064838  0.917422755864067  1.0000
  O   O18       1.0  0.7940608702023155  0.0913650735124349  0.08255932424255263  1.0000
  O   O19       1.0  0.6244829976320005  0.951141242340341  0.9934118396469316  1.0000
  O   O20       1.0  0.12446712049045768  0.04886022637635529  0.006581841463017201  1.0000
