data_image0
_chemical_formula_structural       Al2H26C32N4O10
_chemical_formula_sum              "Al2 H26 C32 N4 O10"
_cell_length_a       6.656737177217544
_cell_length_b       17.00317617840492
_cell_length_c       17.003651693593877
_cell_angle_alpha    87.25055036544583
_cell_angle_beta     81.9183535229402
_cell_angle_gamma    81.923189918289

_space_group_name_H-M_alt    "P 1"
_space_group_IT_number       1

loop_
  _space_group_symop_operation_xyz
  'x, y, z'

loop_
  _atom_site_type_symbol
  _atom_site_label
  _atom_site_symmetry_multiplicity
  _atom_site_fract_x
  _atom_site_fract_y
  _atom_site_fract_z
  _atom_site_occupancy
  Al  Al1       1.0  0.5001485192884089  0.49997753634887954  0.4998777566852297  1.0000
  Al  Al2       1.0  0.9999369710332355  0.5000974023698319  0.4999982947410402  1.0000
  H   H1        1.0  0.7499654937025467  0.42448229824366723  0.5756918556874738  1.0000
  H   H2        1.0  0.2499214758900619  0.5759398299163652  0.4243660265792926  1.0000
  H   H3        1.0  0.3920047073495209  0.7394093207013129  0.458247035392418  1.0000
  H   H4        1.0  0.32485271599325205  0.888436031191695  0.45660378653350614  1.0000
  H   H5        1.0  0.8504769440969606  0.8917930669473508  0.5759488020222108  1.0000
  H   H6        1.0  0.14712798834356983  0.10932427547709982  0.4232426693119535  1.0000
  H   H7        1.0  0.6712042477615794  0.110922444469189  0.5439635841016965  1.0000
  H   H8        1.0  0.6060142051926433  0.25994391376632825  0.543031748535377  1.0000
  H   H9        1.0  0.8940822858960185  0.45685867515805273  0.7400580669058243  1.0000
  H   H10       1.0  0.8287445202237149  0.4560003565949415  0.8890645879423859  1.0000
  H   H11       1.0  0.35275391830172226  0.5767643702332209  0.8906470885093682  1.0000
  H   H12       1.0  0.6494686140762479  0.42406438442701244  0.10823929441208695  1.0000
  H   H13       1.0  0.17516305155869097  0.5434003411571311  0.11152846443481221  1.0000
  H   H14       1.0  0.1080560595370982  0.5417788412086111  0.26055460247015116  1.0000
  H   H15       1.0  0.09049863854585968  0.7008251011933739  0.5494797457697516  1.0000
  H   H16       1.0  0.9199767704762818  0.6905948795320641  0.6367840358759338  1.0000
  H   H17       1.0  0.03920631500550076  0.7785204211779019  0.6192482827919576  1.0000
  H   H18       1.0  0.9712325039709524  0.2244014793292664  0.3748825559992923  1.0000
  H   H19       1.0  0.07155494228471315  0.3167759447489475  0.3704501120116532  1.0000
  H   H20       1.0  0.8991746529201519  0.2929818010959551  0.4530467358037741  1.0000
  H   H21       1.0  0.5287395199017195  0.6250725479658855  0.7755964428064814  1.0000
  H   H22       1.0  0.4284671813752321  0.6294974385143918  0.6832150478928654  1.0000
  H   H23       1.0  0.6008742595206511  0.5469171060195138  0.7070179520735422  1.0000
  H   H24       1.0  0.4093175580726437  0.4506329471803667  0.29907207163950034  1.0000
  H   H25       1.0  0.5798401192144735  0.3633799704265925  0.3095554055720271  1.0000
  H   H26       1.0  0.4609353765670219  0.3806963555516063  0.22153045898265591  1.0000
  C   C1        1.0  0.19523600603432795  0.50778931315687  0.6438870110131134  1.0000
  C   C2        1.0  0.3048171565441535  0.35610604098437904  0.49210397608938905  1.0000
  C   C3        1.0  0.8051303053890349  0.4918202520996929  0.3559397402365505  1.0000
  C   C4        1.0  0.6949607029759545  0.6440476674825176  0.5082184335896044  1.0000
  C   C5        1.0  0.662227037488449  0.7322060096676212  0.51514039966262  1.0000
  C   C6        1.0  0.4926694216358312  0.7739350211036398  0.48307740347520683  1.0000
  C   C7        1.0  0.4544985651052893  0.8560395221744203  0.4820736019672012  1.0000
  C   C8        1.0  0.5883005781572235  0.8981643758002705  0.514976981931035  1.0000
  C   C9        1.0  0.7532288543096824  0.8568386496873688  0.5494150136591855  1.0000
  C   C10       1.0  0.7950010943714145  0.7738552455650307  0.5503240515587821  1.0000
  C   C11       1.0  0.24439772157558778  0.1438284311851419  0.4503141235577885  1.0000
  C   C12       1.0  0.40850577048190917  0.1020796360405996  0.484867624686899  1.0000
  C   C13       1.0  0.5422664110706561  0.14373726240511087  0.5183933734854022  1.0000
  C   C14       1.0  0.5052524654348644  0.22583976994466332  0.5177166583058295  1.0000
  C   C15       1.0  0.33658359935684234  0.2679804090101854  0.4854273715209628  1.0000
  C   C16       1.0  0.20353902130866416  0.22683899907775645  0.4498886970385811  1.0000
  C   C17       1.0  0.16348016962482595  0.5144633037713077  0.7320140702704095  1.0000
  C   C18       1.0  0.9947955384022859  0.48219083620784176  0.7741597534752742  1.0000
  C   C19       1.0  0.9577046269659562  0.4815522488599557  0.85625504881137  1.0000
  C   C20       1.0  0.09140311555815818  0.5151120764041297  0.8979150052921199  1.0000
  C   C21       1.0  0.2555428516747042  0.5496611166530415  0.8561541515868427  1.0000
  C   C22       1.0  0.29647912821724276  0.5500295340213626  0.7731529410969956  1.0000
  C   C23       1.0  0.7467395946312362  0.45061796644468183  0.1431727542198757  1.0000
  C   C24       1.0  0.9116678064926373  0.48504895419875277  0.10183209210697439  1.0000
  C   C25       1.0  0.04549742932278629  0.5179455953932572  0.1439342446629794  1.0000
  C   C26       1.0  0.007375846816465445  0.5169552073035959  0.2260368103880595  1.0000
  C   C27       1.0  0.8378143051643787  0.48490236473110565  0.267776777086965  1.0000
  C   C28       1.0  0.7049867040784928  0.4497141889686844  0.22615237256885481  1.0000
  C   C29       1.0  0.9709380738712099  0.7340123417448225  0.5909373845478427  1.0000
  C   C30       1.0  0.027168024680818754  0.2672765289486705  0.4098946031982749  1.0000
  C   C31       1.0  0.47283581262084334  0.5900524902594171  0.7327160336609211  1.0000
  C   C32       1.0  0.5290070188399979  0.409124348187767  0.2660189593303953  1.0000
  N   N1        1.0  0.5692934147494241  0.9817967181365574  0.5175469914248295  1.0000
  N   N2        1.0  0.42701369594469446  0.0184402674606261  0.4820560490250544  1.0000
  N   N3        1.0  0.07284795241573501  0.5179703358626783  0.9815370817515189  1.0000
  N   N4        1.0  0.930674032206944  0.4824382218410792  0.018204973113825025  1.0000
  O   O1        1.0  0.3786333233347247  0.5021280300350384  0.6088163128847128  1.0000
  O   O2        1.0  0.12144874866052642  0.3911838546049681  0.4977761231559725  1.0000
  O   O3        1.0  0.9630965604152589  0.4942461905168687  0.3899877910363401  1.0000
  O   O4        1.0  0.5369660660296913  0.6099993363382624  0.5057858963978532  1.0000
  O   O5        1.0  0.6216400674294175  0.4974808900400591  0.39089490887627687  1.0000
  O   O6        1.0  0.8784301775393499  0.6090932604544436  0.5025725411783882  1.0000
  O   O7        1.0  0.03685512007405826  0.5057680744706657  0.609997837746711  1.0000
  O   O8        1.0  0.463239838882181  0.3899919336082576  0.4941288085309239  1.0000
  O   O9        1.0  0.7500669304198834  0.4655821525509722  0.5343874172118603  1.0000
  O   O10       1.0  0.24999923645119534  0.5345825180256155  0.46542261267744317  1.0000
