data_image0
_chemical_formula_structural       Zn2H20C24N8O8
_chemical_formula_sum              "Zn2 H20 C24 N8 O8"
_cell_length_a       7.375642095490696
_cell_length_b       8.874489465345828
_cell_length_c       12.629695739257757
_cell_angle_alpha    108.31531795601282
_cell_angle_beta     104.3035507812584
_cell_angle_gamma    97.36266106199558

_space_group_name_H-M_alt    "P 1"
_space_group_IT_number       1

loop_
  _space_group_symop_operation_xyz
  'x, y, z'

loop_
  _atom_site_type_symbol
  _atom_site_label
  _atom_site_symmetry_multiplicity
  _atom_site_fract_x
  _atom_site_fract_y
  _atom_site_fract_z
  _atom_site_occupancy
  Zn  Zn1       1.0  0.505214373404712  0.4423433829555988  0.7510738119390297  1.0000
  Zn  Zn2       1.0  0.2545278966214539  0.6914676303446042  0.24907098416866089  1.0000
  H   H1        1.0  0.890069959146743  0.5170564595307995  0.2855758875110794  1.0000
  H   H2        1.0  0.1038744589482548  0.23113667495453427  0.7142761359109784  1.0000
  H   H3        1.0  0.9024812519733204  0.8891833217798747  0.13266782362170912  1.0000
  H   H4        1.0  0.2699873219553198  0.7566484928728132  0.8675597166644164  1.0000
  H   H5        1.0  0.5800416242124058  0.5322198548557325  0.151644228485047  1.0000
  H   H6        1.0  0.9277395424854119  0.37992094523792014  0.8482657695012675  1.0000
  H   H7        1.0  0.5435916313626592  0.7121772036387098  0.49580419440270856  1.0000
  H   H8        1.0  0.547516317424396  0.2168129349594707  0.5040496265070544  1.0000
  H   H9        1.0  0.901299976194636  0.6611335010223555  0.6143584569638065  1.0000
  H   H10       1.0  0.7865208117090604  0.0471649317293696  0.3853872963367877  1.0000
  H   H11       1.0  0.11128926858017257  0.4994754832920379  0.44078701562980876  1.0000
  H   H12       1.0  0.16978327380531513  0.0586712556446756  0.5591034729833168  1.0000
  H   H13       1.0  0.7492424325468932  0.5934531906163515  0.026066317038235823  1.0000
  H   H14       1.0  0.22408758454282918  0.5674685262944194  0.9742110425450077  1.0000
  H   H15       1.0  0.6405619639270625  0.8129510066335186  0.7726331024373322  1.0000
  H   H16       1.0  0.3676884148165768  0.04065681637543149  0.22754429616072966  1.0000
  H   H17       1.0  0.855547200528896  0.1318079885782097  0.9160180031146509  1.0000
  H   H18       1.0  0.4391766199107395  0.2160950733772609  0.08408824918814159  1.0000
  H   H19       1.0  0.956716538788605  0.18208472080897303  0.17871451449343576  1.0000
  H   H20       1.0  0.2768621062621861  0.0033793469489254023  0.8213709878623233  1.0000
  C   C1        1.0  0.6165249761586011  0.5711655797557142  0.24646257633220603  1.0000
  C   C2        1.0  0.8693900044730968  0.3241822839202086  0.7534279410077999  1.0000
  C   C3        1.0  0.6028054704928111  0.6611491827386614  0.42538007237543946  1.0000
  C   C4        1.0  0.6769880203930612  0.23582473050677782  0.5744732947054132  1.0000
  C   C5        1.0  0.7746177207622297  0.6113280854441073  0.4304365414899038  1.0000
  C   C6        1.0  0.8436983424056164  0.18090199618009004  0.5693746946061536  1.0000
  C   C7        1.0  0.9223534019650046  0.6118956302426782  0.5284882560197488  1.0000
  C   C8        1.0  0.8933402096436537  0.08353106852129599  0.47126691002355153  1.0000
  C   C9        1.0  0.08128690153483122  0.5534201622114097  0.5232296371371915  1.0000
  C   C10       1.0  0.057530264717136986  0.0303055784760318  0.47658662171322413  1.0000
  C   C11       1.0  0.2189707640642952  0.5516528973411355  0.6293354539951537  1.0000
  C   C12       1.0  0.0892921863886827  0.92238129312544  0.37054050273549416  1.0000
  C   C13       1.0  0.7474401647646334  0.6851465040696211  0.986409039611729  1.0000
  C   C14       1.0  0.2615279392191212  0.6988668389854311  0.013843610836900649  1.0000
  C   C15       1.0  0.6954956460747399  0.8017238398100163  0.8571085306709207  1.0000
  C   C16       1.0  0.3382822216851055  0.944881187545846  0.1430915697732758  1.0000
  C   C17       1.0  0.8002115430957701  0.9229076252457061  0.9638430745471567  1.0000
  C   C18       1.0  0.33599900088268003  0.9593054921307385  0.03635341098407003  1.0000
  C   C19       1.0  0.8673898484459315  0.093334377288663  0.991107773345135  1.0000
  C   C20       1.0  0.37565067948496983  0.1024350512403132  0.009008694313813214  1.0000
  C   C21       1.0  0.9448369079506023  0.2091092839395259  0.09900912214897056  1.0000
  C   C22       1.0  0.3448820022624517  0.11017851314742438  0.9010716070708256  1.0000
  C   C23       1.0  0.021901579054045314  0.37831360726536895  0.11236591915304217  1.0000
  C   C24       1.0  0.4089035325251942  0.26589532876600697  0.8876088230205923  1.0000
  N   N1        1.0  0.5068280658790272  0.6354664448761369  0.3109419680395575  1.0000
  N   N2        1.0  0.6953367301606903  0.3242574835009506  0.6889767431316757  1.0000
  N   N3        1.0  0.7775658497497063  0.5543094361725451  0.3153197314204164  1.0000
  N   N4        1.0  0.9616478065773109  0.2386754522915382  0.6845108325249569  1.0000
  N   N5        1.0  0.6621643580772414  0.6554458212511777  0.8728244910679094  1.0000
  N   N6        1.0  0.2897421361614292  0.7828511243327866  0.12740888313309987  1.0000
  N   N7        1.0  0.8297968235347072  0.8437384380795477  0.04334040699334449  1.0000
  N   N8        1.0  0.28646473176776516  0.8005177885973821  0.9568611951060574  1.0000
  O   O1        1.0  0.2040595357936894  0.6206429713643401  0.7298071720537889  1.0000
  O   O2        1.0  0.9738828385364471  0.8907271400739203  0.27005822055999545  1.0000
  O   O3        1.0  0.3503581822301812  0.4713858603395309  0.6103635078385992  1.0000
  O   O4        1.0  0.23970395654121296  0.8612086961580941  0.38961391115748245  1.0000
  O   O5        1.0  0.06886053744215564  0.48650516531209576  0.21941288644311632  1.0000
  O   O6        1.0  0.34886996616950927  0.26695726360897254  0.7805678433878  1.0000
  O   O7        1.0  0.04496908762328644  0.41390923670448393  0.027699431255200586  1.0000
  O   O8        1.0  0.5168685295875406  0.3862033270852266  0.9722092615606712  1.0000
