data_image0
_chemical_formula_structural       Cd2H32C32N4O20
_chemical_formula_sum              "Cd2 H32 C32 N4 O20"
_cell_length_a       7.417488233534595
_cell_length_b       7.434454324632213
_cell_length_c       17.559521107027365
_cell_angle_alpha    90.00019027915414
_cell_angle_beta     89.99997542933446
_cell_angle_gamma    118.1781433593586

_space_group_name_H-M_alt    "P 1"
_space_group_IT_number       1

loop_
  _space_group_symop_operation_xyz
  'x, y, z'

loop_
  _atom_site_type_symbol
  _atom_site_label
  _atom_site_symmetry_multiplicity
  _atom_site_fract_x
  _atom_site_fract_y
  _atom_site_fract_z
  _atom_site_occupancy
  Cd  Cd1       1.0  0.9999977564166327  0.49999795404142594  0.4999996626888716  1.0000
  Cd  Cd2       1.0  0.4999996381445299  0.49999997348046327  3.0917701110000005e-07  1.0000
  H   H1        1.0  0.9146122327439768  0.41594525396209286  0.1668322104066107  1.0000
  H   H2        1.0  0.5853892388940309  0.5840588231026942  0.6668317585790078  1.0000
  H   H3        1.0  0.08538876059672162  0.5840593889316495  0.8331666364330202  1.0000
  H   H4        1.0  0.4146130196004734  0.4159427777094891  0.33316708825835656  1.0000
  H   H5        1.0  0.8372681756672976  0.8466578552036597  0.1008426822813746  1.0000
  H   H6        1.0  0.6627317188842737  0.15334559720915314  0.6008427443576991  1.0000
  H   H7        1.0  0.16273201446390567  0.15334221480141252  0.8991584425215393  1.0000
  H   H8        1.0  0.3372629840394694  0.8466514062690892  0.3991578109519267  1.0000
  H   H9        1.0  0.8999203791411362  0.7646695967331427  0.2343753033871963  1.0000
  H   H10       1.0  0.6000820423444679  0.2353366406234088  0.7343760626618803  1.0000
  H   H11       1.0  0.10008331514660539  0.23533505594566145  0.765625251927041  1.0000
  H   H12       1.0  0.39991401105133645  0.764660367743353  0.2656244926476319  1.0000
  H   H13       1.0  0.9569816322953952  0.020226930095177  0.33800402001058666  1.0000
  H   H14       1.0  0.5430209744229939  0.9797741865815652  0.8380029982718041  1.0000
  H   H15       1.0  0.04301999362415645  0.9797761917631365  0.6619959658111371  1.0000
  H   H16       1.0  0.45697841249187116  0.0202213105161064  0.161996418053107  1.0000
  H   H17       1.0  0.7468721288237675  0.26567946699417894  0.060595167134643205  1.0000
  H   H18       1.0  0.7531241233553558  0.7343190247407421  0.5605948979599519  1.0000
  H   H19       1.0  0.25312662551713305  0.7343175511522942  0.9394059576662386  1.0000
  H   H20       1.0  0.2468760667738934  0.2656810452589795  0.4394050878597398  1.0000
  H   H21       1.0  0.699535640517922  0.017042099308682203  0.0330703264378585  1.0000
  H   H22       1.0  0.8004646538709393  0.9829591955480695  0.5330692623891196  1.0000
  H   H23       1.0  0.3004631991412196  0.9829579658078629  0.9669307983651835  1.0000
  H   H24       1.0  0.19953418578527501  0.017040869560460702  0.46693015393907433  1.0000
  H   H25       1.0  0.22416121540131673  0.3001957859033126  0.5680937037045054  1.0000
  H   H26       1.0  0.2758423554532427  0.6998039009884423  0.0680957224431751  1.0000
  H   H27       1.0  0.7758410430951415  0.699805814914221  0.4319062821160813  1.0000
  H   H28       1.0  0.7241584672558401  0.30019464797852174  0.9319059718502203  1.0000
  H   H29       1.0  0.07527613891495828  0.3418168008849634  0.6234699722390502  1.0000
  H   H30       1.0  0.42472690421050857  0.6581818801591338  0.1234707658685608  1.0000
  H   H31       1.0  0.9247261195824734  0.6581847999352493  0.3765305830731549  1.0000
  H   H32       1.0  0.5752746363927556  0.34181819473445063  0.8765303589342395  1.0000
  C   C1        1.0  0.9795243047792893  0.3969641314001962  0.3205026689278228  1.0000
  C   C2        1.0  0.5204756262117483  0.6030398580991445  0.8205016863425953  1.0000
  C   C3        1.0  0.02047525277305333  0.6030374596402978  0.6794973168930056  1.0000
  C   C4        1.0  0.4795238460223458  0.39695868597127776  0.1794982994760801  1.0000
  C   C5        1.0  0.9478186144725099  0.24007550805418995  0.26023952752632346  1.0000
  C   C6        1.0  0.5521803916764654  0.7599263895405599  0.7602404702101709  1.0000
  C   C7        1.0  0.05218372934219652  0.7599291397334154  0.7397604582964236  1.0000
  C   C8        1.0  0.4478176447673192  0.2400691026712636  0.23975951560647252  1.0000
  C   C9        1.0  0.9140401792792118  0.2758212263466433  0.1853320461190648  1.0000
  C   C10       1.0  0.5859572191551691  0.7241799628317337  0.6853317929661813  1.0000
  C   C11       1.0  0.08595595943484115  0.7241788289901977  0.8146685091926003  1.0000
  C   C12       1.0  0.4140450393412891  0.2758216379857997  0.31466819285441255  1.0000
  C   C13       1.0  0.8699643298697238  0.9521878642126468  0.1480541783756522  1.0000
  C   C14       1.0  0.6300398635435087  0.0478190932345797  0.6480529577128847  1.0000
  C   C15       1.0  0.13003864652286268  0.047815262536858  0.851946376937569  1.0000
  C   C16       1.0  0.3699542068004006  0.9521794312764199  0.3519458891230443  1.0000
  C   C17       1.0  0.9041675824329402  0.9100091297817275  0.221813560089366  1.0000
  C   C18       1.0  0.5958326422264902  0.0899924118022071  0.7218129749710585  1.0000
  C   C19       1.0  0.09582990675414747  0.08999093044630509  0.7781875647137895  1.0000
  C   C20       1.0  0.40416547953652326  0.9100061273823672  0.278187580339349  1.0000
  C   C21       1.0  0.9392705486293165  0.053212721996089805  0.27881450370521316  1.0000
  C   C22       1.0  0.5607333759362233  0.946793937613471  0.7788145709381311  1.0000
  C   C23       1.0  0.06073242776228935  0.9467904047507363  0.7211854821163968  1.0000
  C   C24       1.0  0.4392687972419863  0.053204616233990996  0.2211854148803027  1.0000
  C   C25       1.0  0.8162152929510211  0.1651103379113792  0.054653014003378096  1.0000
  C   C26       1.0  0.6837837250837494  0.8348911547607044  0.5546523306198949  1.0000
  C   C27       1.0  0.1837828288110118  0.8348882012705234  0.9453469718154182  1.0000
  C   C28       1.0  0.31621439667632956  0.1651073844158475  0.4453465162156789  1.0000
  C   C29       1.0  0.995253355728181  0.2579791988356419  0.998446456305814  1.0000
  C   C30       1.0  0.5047436821851932  0.7420218792182993  0.4984463062786872  1.0000
  C   C31       1.0  0.004745483929987339  0.7420208662782314  0.0015540990056095  1.0000
  C   C32       1.0  0.49525443957195137  0.2579766599502307  0.5015508320820388  1.0000
  N   N1        1.0  0.8713346917397969  0.130844868069893  0.1316249016170445  1.0000
  N   N2        1.0  0.6286605392078  0.8691573328451412  0.6316237073778908  1.0000
  N   N3        1.0  0.12866009650414867  0.8691551823837714  0.8683767926779637  1.0000
  N   N4        1.0  0.37133830044841426  0.13084273226338183  0.36837570895030325  1.0000
  O   O1        1.0  0.0442472095707558  0.3714311573777779  0.38460869828733724  1.0000
  O   O2        1.0  0.4557560977526477  0.6285714972800563  0.8846071032554121  1.0000
  O   O3        1.0  0.955755681502609  0.6285689223989763  0.6153912875321197  1.0000
  O   O4        1.0  0.5442433744814466  0.371427046790366  0.1153928825632633  1.0000
  O   O5        1.0  0.9363167642186949  0.5370987744721276  0.3023644643788614  1.0000
  O   O6        1.0  0.5636831044834096  0.4629050446743649  0.8023632751387453  1.0000
  O   O7        1.0  0.06368351122977597  0.46290434250034446  0.6976360909345942  1.0000
  O   O8        1.0  0.43632248753308994  0.5370950448767502  0.19763614118885897  1.0000
  O   O9        1.0  0.16014728294351233  0.25711628486783406  0.0173844687886415  1.0000
  O   O10       1.0  0.3398521476681322  0.7428859580625158  0.5173841959892086  1.0000
  O   O11       1.0  0.8398529925059391  0.7428868321073097  0.9826166560164324  1.0000
  O   O12       1.0  0.6601438204045349  0.2571080033207949  0.48261351186008034  1.0000
  O   O13       1.0  0.9581146873727845  0.32148008609308937  0.9367631596381046  1.0000
  O   O14       1.0  0.5418841217621945  0.678518896485876  0.4367629127713855  1.0000
  O   O15       1.0  0.04188478486130978  0.678518457977333  0.06323682618057092  1.0000
  O   O16       1.0  0.45812083767251  0.3214827140926459  0.5632336560992854  1.0000
  O   O17       1.0  0.08001408826324047  0.27988595027099455  0.5726388149724926  1.0000
  O   O18       1.0  0.419992284462097  0.720116836055034  0.0726408363049842  1.0000
  O   O19       1.0  0.9199902386004267  0.7201171813643584  0.42736117084898945  1.0000
  O   O20       1.0  0.5800092561421406  0.27988323884122224  0.9273608579894271  1.0000
