data_image0
_chemical_formula_structural       MnH28C26N6O6
_chemical_formula_sum              "Mn1 H28 C26 N6 O6"
_cell_length_a       8.830394146906706
_cell_length_b       9.93932045346813
_cell_length_c       11.706432389885098
_cell_angle_alpha    62.49420404070163
_cell_angle_beta     87.46659440417247
_cell_angle_gamma    73.28025220451899

_space_group_name_H-M_alt    "P 1"
_space_group_IT_number       1

loop_
  _space_group_symop_operation_xyz
  'x, y, z'

loop_
  _atom_site_type_symbol
  _atom_site_label
  _atom_site_symmetry_multiplicity
  _atom_site_fract_x
  _atom_site_fract_y
  _atom_site_fract_z
  _atom_site_occupancy
  Mn  Mn1       1.0  0.4999993685032108  0.4999981208136858  0.5000013045283893  1.0000
  H   H1        1.0  0.8602977105237812  0.42264882743290844  0.41466979244484736  1.0000
  H   H2        1.0  0.13970518937995988  0.5773450114124757  0.5853395824626587  1.0000
  H   H3        1.0  0.030588563808393587  0.2441836626996903  0.3369015171050903  1.0000
  H   H4        1.0  0.9694150790944955  0.7558149940949974  0.6631042676072665  1.0000
  H   H5        1.0  0.6669731318704066  0.011122120984609307  0.40573979475769306  1.0000
  H   H6        1.0  0.33302708433411976  0.988880192046565  0.5942552992293316  1.0000
  H   H7        1.0  0.5101746660442074  0.1986018481927871  0.483907449873719  1.0000
  H   H8        1.0  0.4898240508322613  0.8013980373062425  0.5160894842884645  1.0000
  H   H9        1.0  0.953388307802804  0.8890924656446376  0.36129902210370074  1.0000
  H   H10       1.0  0.04661305161884849  0.11090982058582452  0.6386994608480521  1.0000
  H   H11       1.0  0.0753270880059418  0.016173020665249296  0.2953528528558635  1.0000
  H   H12       1.0  0.9246746515037498  0.9838280646868613  0.7046469343611862  1.0000
  H   H13       1.0  0.9423013567619946  0.9925853378058987  0.1251918591202426  1.0000
  H   H14       1.0  0.0577015067290105  0.007415777443249297  0.8748070245086481  1.0000
  H   H15       1.0  0.7537114030005511  0.0558135854919328  0.1724600765043789  1.0000
  H   H16       1.0  0.24629070890284777  0.944186321660922  0.8275392979567967  1.0000
  H   H17       1.0  0.795442876503003  0.3199647115844543  0.11308104083502706  1.0000
  H   H18       1.0  0.20455547952125386  0.6800363180951695  0.8869188816147611  1.0000
  H   H19       1.0  0.9817091376502419  0.25786061580138414  0.061004079742069464  1.0000
  H   H20       1.0  0.018289969961621466  0.7421416219745398  0.9389953518754266  1.0000
  H   H21       1.0  0.5423319648576239  0.3207390189450763  0.0012948448570070882  1.0000
  H   H22       1.0  0.45766639411966287  0.6792655865689099  0.9987045537616552  1.0000
  H   H23       1.0  0.41554323102656804  0.40752435547391747  0.7820034457186367  1.0000
  H   H24       1.0  0.5844562528261648  0.5924766927631993  0.21799643165356739  1.0000
  H   H25       1.0  0.8501311731346134  0.38177412853974607  0.630528431654639  1.0000
  H   H26       1.0  0.1498694346994327  0.6182269495944155  0.369470542129406  1.0000
  H   H27       1.0  0.9934006572059814  0.29548101513967134  0.8395824491371113  1.0000
  H   H28       1.0  0.006599958322389847  0.7045200403153943  0.16041824166808985  1.0000
  C   C1        1.0  0.820760118623511  0.3291740685393023  0.41303237396662945  1.0000
  C   C2        1.0  0.1792412656693898  0.6708209753060501  0.5869740247320151  1.0000
  C   C3        1.0  0.9149781164877453  0.2301325765207451  0.3666790469813321  1.0000
  C   C4        1.0  0.08502325921669748  0.7698660771776106  0.6333242523544483  1.0000
  C   C5        1.0  0.8613591418799231  0.11411928094862131  0.3600847591794718  1.0000
  C   C6        1.0  0.13864108971325353  0.8858829867243472  0.6399137688498655  1.0000
  C   C7        1.0  0.7136438859616376  0.1017301405291278  0.40507445002850767  1.0000
  C   C8        1.0  0.2863555863496075  0.8982709417266507  0.5949228518119652  1.0000
  C   C9        1.0  0.6268393307183332  0.20384382549070068  0.4510436082962527  1.0000
  C   C10       1.0  0.373157885935953  0.7961572196500909  0.5489537836993746  1.0000
  C   C11       1.0  0.9514782703560485  0.013324243635317102  0.30075881199315546  1.0000
  C   C12       1.0  0.04852346145931121  0.986676864395896  0.6992392582027307  1.0000
  C   C13       1.0  0.8735627484031169  0.0701449210853298  0.1646821389850288  1.0000
  C   C14       1.0  0.12644011508788827  0.9298561941638254  0.8353167446438547  1.0000
  C   C15       1.0  0.8616714487302914  0.2443860821019754  0.07095598768568583  1.0000
  C   C16       1.0  0.1383287828628851  0.7556161855709862  0.9290425403436514  1.0000
  C   C17       1.0  0.7802613794256813  0.30021665425107363  0.9402007501626598  1.0000
  C   C18       1.0  0.21973772049184964  0.699785606203953  0.05979696443368003  1.0000
  C   C19       1.0  0.615087354754884  0.3330554087449756  0.9212498110588924  1.0000
  C   C20       1.0  0.3849128845326176  0.6669468362488902  0.07875043399160822  1.0000
  C   C21       1.0  0.5433286000937231  0.3821390768997546  0.7996161494440698  1.0000
  C   C22       1.0  0.4566708876061724  0.6178619599978106  0.20038458643871582  1.0000
  C   C23       1.0  0.784223548866855  0.3681304035134972  0.7140061181079317  1.0000
  C   C24       1.0  0.2157759272915527  0.6318706674027227  0.28599204224311586  1.0000
  C   C25       1.0  0.8648920073254303  0.3182842893645698  0.832878966823017  1.0000
  C   C26       1.0  0.13510784892100963  0.6817155806732982  0.16712049779332008  1.0000
  N   N1        1.0  0.6777409131867101  0.31787439551981583  0.4544424000626179  1.0000
  N   N2        1.0  0.3222585715601554  0.6821230655434007  0.5455588596512939  1.0000
  N   N3        1.0  0.6258682378520104  0.40050251631290484  0.6964468630715288  1.0000
  N   N4        1.0  0.3741297389783469  0.5994961270711698  0.3035531374546778  1.0000
  N   N5        1.0  0.7593627515805963  0.6872886085318585  0.4293367573055915  1.0000
  N   N6        1.0  0.24063484605586177  0.3127076485566747  0.5706633212970331  1.0000
  O   O1        1.0  0.6333769831774346  0.6643486509851116  0.39710740300117203  1.0000
  O   O2        1.0  0.3666206221533487  0.33564758342431134  0.6028943926226162  1.0000
  O   O3        1.0  0.8806643726188453  0.6666430841411712  0.37187373083550296  1.0000
  O   O4        1.0  0.11933171799523014  0.33335076809431297  0.6281264709211241  1.0000
  O   O5        1.0  0.7558580705098733  0.7300029243932685  0.5153295789632961  1.0000
  O   O6        1.0  0.24413576265898473  0.2699980650750363  0.484667948265077  1.0000
