data_image0
_chemical_formula_structural       Zn4H52C52N20O20
_chemical_formula_sum              "Zn4 H52 C52 N20 O20"
_cell_length_a       12.477163373208453
_cell_length_b       12.477121837340363
_cell_length_c       14.194342355282778
_cell_angle_alpha    71.13818804156264
_cell_angle_beta     71.13795922402176
_cell_angle_gamma    79.62590933230355

_space_group_name_H-M_alt    "P 1"
_space_group_IT_number       1

loop_
  _space_group_symop_operation_xyz
  'x, y, z'

loop_
  _atom_site_type_symbol
  _atom_site_label
  _atom_site_symmetry_multiplicity
  _atom_site_fract_x
  _atom_site_fract_y
  _atom_site_fract_z
  _atom_site_occupancy
  Zn  Zn1       1.0  0.7348780836079811  0.13525292326700367  0.11874905241302255  1.0000
  Zn  Zn2       1.0  0.8647499753161301  0.2651273472205061  0.3812490429491078  1.0000
  Zn  Zn3       1.0  0.2651287794393157  0.8647495827415169  0.881248246158371  1.0000
  Zn  Zn4       1.0  0.13525095715753818  0.734875162730823  0.6187513441266785  1.0000
  H   H1        1.0  0.8436811573265856  0.12407452835643798  0.9165002947573909  1.0000
  H   H2        1.0  0.8759264163967372  0.1563185476760367  0.5834975888466332  1.0000
  H   H3        1.0  0.15631900133513446  0.8759271346404062  0.08349843809013892  1.0000
  H   H4        1.0  0.12407465871840631  0.843682263068871  0.41650253481893146  1.0000
  H   H5        1.0  0.7957617885048406  0.25174320111086246  0.92412028217425  1.0000
  H   H6        1.0  0.7482574003906209  0.20424055290327192  0.5758801413296621  1.0000
  H   H7        1.0  0.2042400626753036  0.7482584588344209  0.07587938092473925  1.0000
  H   H8        1.0  0.25174197995305286  0.7957602586473127  0.4241211668792814  1.0000
  H   H9        1.0  0.7501408526565284  0.3359307020717139  0.13242478075584785  1.0000
  H   H10       1.0  0.6640730112622181  0.24985725573307593  0.36757414223416857  1.0000
  H   H11       1.0  0.24985852918916854  0.6640701109761267  0.8675751175898723  1.0000
  H   H12       1.0  0.3359298318226677  0.750142706474513  0.632422902853882  1.0000
  H   H13       1.0  0.639143121940016  0.3273591417469745  0.09683202619169859  1.0000
  H   H14       1.0  0.6726499238585291  0.3608496962516837  0.40316709602276984  1.0000
  H   H15       1.0  0.3608532909505868  0.6726467712515782  0.9031693818023283  1.0000
  H   H16       1.0  0.32735143653955845  0.6391477160803871  0.5968325008223586  1.0000
  H   H17       1.0  0.7304840863149522  0.07871113829521897  0.3320684579456667  1.0000
  H   H18       1.0  0.921288435340429  0.26951655856293394  0.16793041647097343  1.0000
  H   H19       1.0  0.2695168476607535  0.9212913731533662  0.6679305192668961  1.0000
  H   H20       1.0  0.07871207804742401  0.730480854546293  0.8320694201800336  1.0000
  H   H21       1.0  0.6033947591640683  0.096259837430722  0.3195949018245585  1.0000
  H   H22       1.0  0.9037404101285985  0.396606926050495  0.18040590651087027  1.0000
  H   H23       1.0  0.39660539874663664  0.9037418248174941  0.6804045359545796  1.0000
  H   H24       1.0  0.09625727844766627  0.6033938893002783  0.8195937665149983  1.0000
  H   H25       1.0  0.31174687474804585  0.3447853571286997  0.09509277500522016  1.0000
  H   H26       1.0  0.65521006841756  0.6882578299844154  0.40490616508913746  1.0000
  H   H27       1.0  0.6882579446361773  0.655211202117243  0.9049060833770779  1.0000
  H   H28       1.0  0.3447864908696019  0.31174638755085476  0.5950914548366126  1.0000
  H   H29       1.0  0.1270537164191339  0.29198980631249316  0.0962264571789362  1.0000
  H   H30       1.0  0.7080095436082915  0.8729516208579327  0.4037693572694392  1.0000
  H   H31       1.0  0.8729516699494865  0.708010155809525  0.9037677536966341  1.0000
  H   H32       1.0  0.29198694848872014  0.12705345039799446  0.5962245172375447  1.0000
  H   H33       1.0  0.262035365729794  0.9416554735927601  0.14394888585582782  1.0000
  H   H34       1.0  0.058345543564868804  0.7379594556961347  0.3560505256296764  1.0000
  H   H35       1.0  0.7379604891886088  0.05834704551324418  0.856048710465572  1.0000
  H   H36       1.0  0.9416536986434282  0.26204305955263146  0.6439468163998112  1.0000
  H   H37       1.0  0.44450056640769026  0.9961260851676456  0.14260624843049635  1.0000
  H   H38       1.0  0.0038706901796530043  0.5554944365991829  0.3573933381862914  1.0000
  H   H39       1.0  0.5554942337483268  0.003868786443582899  0.857393109417323  1.0000
  H   H40       1.0  0.9961263627200336  0.4445038280989164  0.6426086467907695  1.0000
  H   H41       1.0  0.0014122532199465087  0.760256065218854  0.12570384184535036  1.0000
  H   H42       1.0  0.2397476166863726  0.9985906920286709  0.3742954981231889  1.0000
  H   H43       1.0  0.9985878329945094  0.23974644625825195  0.8742960801047062  1.0000
  H   H44       1.0  0.760253813154904  0.0014058688286268997  0.6257057293458599  1.0000
  H   H45       1.0  0.6780826106970111  0.7002323881760474  0.1434314513092758  1.0000
  H   H46       1.0  0.29976684529979997  0.32192362478788533  0.35656665736672005  1.0000
  H   H47       1.0  0.3219177577963279  0.29976672189371806  0.8565707635467915  1.0000
  H   H48       1.0  0.700240378481766  0.6780746373220409  0.6434261055552496  1.0000
  H   H49       1.0  0.6098185872830014  0.9064678280260308  0.13850699443687384  1.0000
  H   H50       1.0  0.09352991887651288  0.3901863843793123  0.36149670177297805  1.0000
  H   H51       1.0  0.39018093720417113  0.09353128581538778  0.8614926404986246  1.0000
  H   H52       1.0  0.9064754562268574  0.6098135665132955  0.6385080830767788  1.0000
  C   C1        1.0  0.49838779261337873  0.20413999413608508  0.12256666538144145  1.0000
  C   C2        1.0  0.7958686480065823  0.5016101268924941  0.3774325773680402  1.0000
  C   C3        1.0  0.5016093261480136  0.7958676187889894  0.8774333563536982  1.0000
  C   C4        1.0  0.20412988457584902  0.4983906846866118  0.6225696755784043  1.0000
  C   C5        1.0  0.38870531418520926  0.17335736078637612  0.12002165397833406  1.0000
  C   C6        1.0  0.8266424295769353  0.6112919933527506  0.379976210593817  1.0000
  C   C7        1.0  0.611296409200193  0.8266358098929912  0.8799712924225318  1.0000
  C   C8        1.0  0.17335610525854148  0.3887088204722459  0.6200239275577814  1.0000
  C   C9        1.0  0.2989377035776997  0.25677380410463246  0.10648310832711161  1.0000
  C   C10       1.0  0.7432280449825728  0.7010587679237044  0.3935175943977923  1.0000
  C   C11       1.0  0.7010620314921069  0.7432227575583353  0.8935193036853091  1.0000
  C   C12       1.0  0.2567697130368812  0.2989411959522882  0.6064837092519964  1.0000
  C   C13       1.0  0.1962629236637028  0.22687908793383826  0.10786859162212177  1.0000
  C   C14       1.0  0.7731203943162869  0.8037404754110753  0.39212674572247136  1.0000
  C   C15       1.0  0.8037380893448116  0.7731123783272408  0.8921299706273088  1.0000
  C   C16       1.0  0.22687531796064772  0.1962637429013512  0.6078711140091497  1.0000
  C   C17       1.0  0.1812944067116078  0.11291693379924078  0.12210714216062256  1.0000
  C   C18       1.0  0.8870826101593609  0.818705787593444  0.3778923988326283  1.0000
  C   C19       1.0  0.8187073793578463  0.8870753786677025  0.8778937792486798  1.0000
  C   C20       1.0  0.11291493802848149  0.18129672920962747  0.6221054228086301  1.0000
  C   C21       1.0  0.27191202407559706  0.029825673445188296  0.13409386625504272  1.0000
  C   C22       1.0  0.9701746848193055  0.728085547268513  0.3659058195454745  1.0000
  C   C23       1.0  0.7280903969194199  0.9701691889257946  0.8659054481346753  1.0000
  C   C24       1.0  0.029823708125711303  0.27191696651152597  0.6340938770847371  1.0000
  C   C25       1.0  0.3741736715893964  0.060244181352430794  0.13280242756289332  1.0000
  C   C26       1.0  0.939753689210832  0.625823468029537  0.3671993424734126  1.0000
  C   C27       1.0  0.6258247271901638  0.9397481349717436  0.8671987481383211  1.0000
  C   C28       1.0  0.060243151604183295  0.3741773473497574  0.6328012752899494  1.0000
  C   C29       1.0  0.0738699210736868  0.0814488513266909  0.12315684683396455  1.0000
  C   C30       1.0  0.9185534491359633  0.9261296888504656  0.37684364842640145  1.0000
  C   C31       1.0  0.9261297468059767  0.9185485640569411  0.8768418197597043  1.0000
  C   C32       1.0  0.0814457206250694  0.07387367487856979  0.6231548827056128  1.0000
  C   C33       1.0  0.9458560650924923  0.9893542725614992  0.12424812606931804  1.0000
  C   C34       1.0  0.0106485659292943  0.054142224222438494  0.3757547805139153  1.0000
  C   C35       1.0  0.0541398577670762  0.010647393572469396  0.8757525107392323  1.0000
  C   C36       1.0  0.9893509540517866  0.9458568851272202  0.6242490840112607  1.0000
  C   C37       1.0  0.8759939526852847  0.9054194577540924  0.12822432641148407  1.0000
  C   C38       1.0  0.09457969821709612  0.12400827562925794  0.37178129573472757  1.0000
  C   C39       1.0  0.12400550085666141  0.09458050606485807  0.8717750877633178  1.0000
  C   C40       1.0  0.9054189008044561  0.8759916814805631  0.6282254075620841  1.0000
  C   C41       1.0  0.9134239201232789  0.7922404130297873  0.12901684880967665  1.0000
  C   C42       1.0  0.20776082767439158  0.08657893791616533  0.3709848672626349  1.0000
  C   C43       1.0  0.08657461471219108  0.20776040079520897  0.8709832893419288  1.0000
  C   C44       1.0  0.7922403878291747  0.9134201713764437  0.6290171077875467  1.0000
  C   C45       1.0  0.7355107542205986  0.7593186275693569  0.1388757506344972  1.0000
  C   C46       1.0  0.240681879827477  0.2644936828185108  0.3611246237077097  1.0000
  C   C47       1.0  0.264487921003294  0.24068048480333457  0.8611262389017184  1.0000
  C   C48       1.0  0.7593244909357325  0.7355045740795485  0.6388740184730464  1.0000
  C   C49       1.0  0.6970109104639022  0.8722683287860631  0.13685217112198  1.0000
  C   C50       1.0  0.1277330713438758  0.3029936966572818  0.3631503361632935  1.0000
  C   C51       1.0  0.30298769306374845  0.12773163281552508  0.863150302585154  1.0000
  C   C52       1.0  0.8722739290877755  0.6970071049044294  0.6368516335191641  1.0000
  N   N1        1.0  0.9792322502979119  0.15414233966618698  0.1249184763054812  1.0000
  N   N2        1.0  0.8458621437554756  0.020768567966968  0.3750821132781254  1.0000
  N   N3        1.0  0.020768754623013273  0.8458593218048733  0.8750807216677783  1.0000
  N   N4        1.0  0.1541403415992164  0.9792356411337333  0.6249166477328956  1.0000
  N   N5        1.0  0.8984926203036921  0.09491211117579468  0.12539911245690386  1.0000
  N   N6        1.0  0.9050921383052496  0.10150771865163924  0.3746010202734594  1.0000
  N   N7        1.0  0.10150661890053675  0.9050904010784674  0.8746010492990378  1.0000
  N   N8        1.0  0.09490879341740308  0.8984947905510622  0.6254000717339422  1.0000
  N   N9        1.0  0.056078855244280086  0.9769879283289524  0.1223514206827687  1.0000
  N   N10       1.0  0.02301383540349631  0.9439166962074947  0.3776516056827859  1.0000
  N   N11       1.0  0.9439163624955142  0.023012038627122398  0.8776498974530539  1.0000
  N   N12       1.0  0.9769866055370998  0.05608156538200149  0.6223494200707549  1.0000
  N   N13       1.0  0.766969880084645  0.9445734770435192  0.1315620072425219  1.0000
  N   N14       1.0  0.0554271684454761  0.23303305817199765  0.3684433052997632  1.0000
  N   N15       1.0  0.23302780849162022  0.05542733830725408  0.8684376657833465  1.0000
  N   N16       1.0  0.9445762975487141  0.7669694419615992  0.6315634116745058  1.0000
  N   N17       1.0  0.8437864347916814  0.7194234311717478  0.13425879940908192  1.0000
  N   N18       1.0  0.28057947944945727  0.15621942871953107  0.36574088051864345  1.0000
  N   N19       1.0  0.15621209779074974  0.280577380407365  0.8657434535373552  1.0000
  N   N20       1.0  0.7194259741093133  0.8437796796818299  0.6342570757756788  1.0000
  O   O1        1.0  0.5113001681226095  0.3069132989492472  0.10722952487761717  1.0000
  O   O2        1.0  0.6930926337498208  0.4886912758669052  0.39277110190936787  1.0000
  O   O3        1.0  0.488695329643015  0.6930832643536033  0.8927762009590479  1.0000
  O   O4        1.0  0.30690702887272897  0.5113061342763315  0.6072324992055796  1.0000
  O   O5        1.0  0.5721736611785744  0.11891416299837938  0.1412779032010931  1.0000
  O   O6        1.0  0.8810946289335603  0.4278269809721634  0.35871877993717044  1.0000
  O   O7        1.0  0.42782402965073635  0.8810866545982704  0.8587196550299439  1.0000
  O   O8        1.0  0.11890454007646412  0.5721763820082513  0.6412804561264663  1.0000
  O   O9        1.0  0.776920919972497  0.17316583767090074  0.949186788382732  1.0000
  O   O10       1.0  0.8268351623412329  0.2230805572654119  0.5508122316085744  1.0000
  O   O11       1.0  0.22307916774399666  0.8268366753034613  0.05081172370410058  1.0000
  O   O12       1.0  0.1731642180024338  0.7769202542851729  0.44918907660036905  1.0000
  O   O13       1.0  0.7255319616747614  0.3157750682368955  0.08159885373177633  1.0000
  O   O14       1.0  0.684226362551925  0.2744645693700106  0.4184011724992159  1.0000
  O   O15       1.0  0.2744665724096932  0.6842257448394663  0.9184019893514375  1.0000
  O   O16       1.0  0.3157749985971776  0.7255328437106878  0.5815977194142973  1.0000
  O   O17       1.0  0.6748890780202715  0.13124808242842076  0.29496225652981406  1.0000
  O   O18       1.0  0.8687500820316386  0.3251120480632394  0.2050371097610579  1.0000
  O   O19       1.0  0.32511037477065946  0.868751880641902  0.7050378625766027  1.0000
  O   O20       1.0  0.13124866563951804  0.6748862158291898  0.7949636906726311  1.0000
