data_image0
_chemical_formula_structural       Zn16H64C120O52
_chemical_formula_sum              "Zn16 H64 C120 O52"
_cell_length_a       17.372731723042733
_cell_length_b       18.13388439176073
_cell_length_c       18.590084397535
_cell_angle_alpha    90.301673401908
_cell_angle_beta     90.01245495606486
_cell_angle_gamma    90.01045024254371

_space_group_name_H-M_alt    "P 1"
_space_group_IT_number       1

loop_
  _space_group_symop_operation_xyz
  'x, y, z'

loop_
  _atom_site_type_symbol
  _atom_site_label
  _atom_site_symmetry_multiplicity
  _atom_site_fract_x
  _atom_site_fract_y
  _atom_site_fract_z
  _atom_site_occupancy
  Zn  Zn1       1.0  0.17234415726849045  0.9409170491854231  0.3189138691790419  1.0000
  Zn  Zn2       1.0  0.3006417129731532  0.6161561075532519  0.817053150034823  1.0000
  Zn  Zn3       1.0  0.1725441053777388  0.11608435731731255  0.317297594606238  1.0000
  Zn  Zn4       1.0  0.30098734437535063  0.44098610967569857  0.8190552004687389  1.0000
  Zn  Zn5       1.0  0.306072581806724  0.026755793719878806  0.4024916088859669  1.0000
  Zn  Zn6       1.0  0.3059276686061807  0.02969778612636281  0.23289255261145309  1.0000
  Zn  Zn7       1.0  0.16718399954876156  0.5269023683485303  0.9024815857650098  1.0000
  Zn  Zn8       1.0  0.16732397649710154  0.5294440043987835  0.7328734615518755  1.0000
  Zn  Zn9       1.0  0.8275520918540593  0.8845083051774698  0.68286550013633  1.0000
  Zn  Zn10      1.0  0.6990898526254341  0.559668063461736  0.1810149896119597  1.0000
  Zn  Zn11      1.0  0.8278015293251001  0.05969786456197569  0.6811148069870541  1.0000
  Zn  Zn12      1.0  0.6994487168943238  0.38444674906981663  0.1830050753059638  1.0000
  Zn  Zn13      1.0  0.6940541013317444  0.9737846466341298  0.5975277294040351  1.0000
  Zn  Zn14      1.0  0.6941811971019901  0.9711492032037659  0.7671049783158777  1.0000
  Zn  Zn15      1.0  0.8327164852013028  0.47395981413563976  0.09743097110772679  1.0000
  Zn  Zn16      1.0  0.8328061558987018  0.4711469556760548  0.2670663942146945  1.0000
  H   H1        1.0  0.6869426858665334  0.9710976928127836  0.4190765084824406  1.0000
  H   H2        1.0  0.13073647977619626  0.7833845107360989  0.47807242409449197  1.0000
  H   H3        1.0  0.34648253466800577  0.8660462207273272  0.5581613561345121  1.0000
  H   H4        1.0  0.3443937722946586  0.7720435590347282  0.6561552492712365  1.0000
  H   H5        1.0  0.12912649277324556  0.688406463293724  0.5756937701600718  1.0000
  H   H6        1.0  0.9342324709812218  0.1405130139698727  0.2812023587129885  1.0000
  H   H7        1.0  0.7911272489468715  0.13902867490764956  0.2781549223215478  1.0000
  H   H8        1.0  0.7922085137115289  0.9160321193726592  0.3576403493192188  1.0000
  H   H9        1.0  0.9299539554803999  0.4661030246043296  0.9164257434827262  1.0000
  H   H10       1.0  0.32467418149710886  0.7883212548151735  0.9632280645647313  1.0000
  H   H11       1.0  0.1445140292192093  0.6733116902868872  0.0746657165939766  1.0000
  H   H12       1.0  0.14679146380682082  0.7692045535785826  0.1721407159110626  1.0000
  H   H13       1.0  0.3267974596045988  0.8844412582247689  0.0608935112061317  1.0000
  H   H14       1.0  0.5379356740420461  0.4138379478750239  0.846092973936649  1.0000
  H   H15       1.0  0.9293752677441276  0.5897310513003762  0.7194399842626424  1.0000
  H   H16       1.0  0.7861201766279039  0.5922852804790182  0.721192570426254  1.0000
  H   H17       1.0  0.5439846587486272  0.9743028661888933  0.4206990053970329  1.0000
  H   H18       1.0  0.14715138954139922  0.2862895629786736  0.46484920601151447  1.0000
  H   H19       1.0  0.32776064149362577  0.17192275329524886  0.576320968548458  1.0000
  H   H20       1.0  0.3252806229138159  0.2679929855564112  0.6736722163487484  1.0000
  H   H21       1.0  0.1450639771716027  0.38272164387539936  0.5622224020404545  1.0000
  H   H22       1.0  0.9353224489098365  0.9168507144326342  0.3569588082185362  1.0000
  H   H23       1.0  0.5434786802645135  0.08184893196123262  0.21494741755554259  1.0000
  H   H24       1.0  0.6867712337551735  0.08339082502371303  0.21520320025467038  1.0000
  H   H25       1.0  0.7873190680909232  0.46292421701218  0.9152594238561631  1.0000
  H   H26       1.0  0.3414142787658463  0.2820832689536773  0.9770023503580988  1.0000
  H   H27       1.0  0.1294899359617432  0.3694332650247178  0.061114068555582386  1.0000
  H   H28       1.0  0.13173502188439556  0.2756554245276633  0.159311777565577  1.0000
  H   H29       1.0  0.34319767692832664  0.18747143416423745  0.0749423500813009  1.0000
  H   H30       1.0  0.5392899237112943  0.6446382477040516  0.7943824759608517  1.0000
  H   H31       1.0  0.6826482464619091  0.6438278925003971  0.7928941954257737  1.0000
  H   H32       1.0  0.6812314940975526  0.41288951994325646  0.8467770036200546  1.0000
  H   H33       1.0  0.3126860937067449  0.02886282421481921  0.5814447857972738  1.0000
  H   H34       1.0  0.8518350078440875  0.7129886889784846  0.5362635998712547  1.0000
  H   H35       1.0  0.6739104350251637  0.8294804908776714  0.42315636465953327  1.0000
  H   H36       1.0  0.6762902960919349  0.7335263377428093  0.3257053510616358  1.0000
  H   H37       1.0  0.8537785164402153  0.6166303255005091  0.43882925526138183  1.0000
  H   H38       1.0  0.0648719214558326  0.08408333597584064  0.6456667090439367  1.0000
  H   H39       1.0  0.070081883303267  0.5355177097864756  0.0835936701405799  1.0000
  H   H40       1.0  0.65744244944608  0.7177817676446456  0.0222889279990355  1.0000
  H   H41       1.0  0.8707002344466305  0.6320465204471406  0.9395962299398021  1.0000
  H   H42       1.0  0.868445368859568  0.7258679631355637  0.8414126179032521  1.0000
  H   H43       1.0  0.6556579156381873  0.812497958851701  0.9243976092218628  1.0000
  H   H44       1.0  0.4606538132573378  0.3571932731885497  0.2103878679460749  1.0000
  H   H45       1.0  0.07059471323391621  0.41045244360239524  0.2797102136367826  1.0000
  H   H46       1.0  0.21374046417644624  0.4080363818268112  0.27807362460190177  1.0000
  H   H47       1.0  0.45565152401276526  0.025576017408809503  0.579202392659603  1.0000
  H   H48       1.0  0.8706959873382019  0.21574905935445096  0.5206389710061429  1.0000
  H   H49       1.0  0.6533731496045759  0.13510764282341375  0.4423511914797017  1.0000
  H   H50       1.0  0.6553640842667577  0.22924957730283793  0.344473837406305  1.0000
  H   H51       1.0  0.8722518898163543  0.3108332871476237  0.4231308559406841  1.0000
  H   H52       1.0  0.06583890044094431  0.8594941180167982  0.7188000046332732  1.0000
  H   H53       1.0  0.20897459353484749  0.860802086849603  0.7216775454514063  1.0000
  H   H54       1.0  0.2080261003559585  0.0847164610242075  0.6447125066966632  1.0000
  H   H55       1.0  0.45709700262077047  0.9186634047997586  0.7852693120652103  1.0000
  H   H56       1.0  0.31377341423660704  0.9169955228096996  0.7855322983971006  1.0000
  H   H57       1.0  0.21261485780200928  0.5385109537754361  0.08466160086184257  1.0000
  H   H58       1.0  0.6765611661533556  0.21178530101542495  0.0374094218790546  1.0000
  H   H59       1.0  0.8525641848864041  0.32974827101411824  0.9231752757948256  1.0000
  H   H60       1.0  0.850076651414696  0.23395554437142624  0.8256225133832302  1.0000
  H   H61       1.0  0.6743423375866655  0.11567798147992651  0.9397472256132385  1.0000
  H   H62       1.0  0.4622548089355191  0.5854786679106143  0.14917121592704055  1.0000
  H   H63       1.0  0.3190752417739872  0.5865080484625977  0.14823780968426797  1.0000
  H   H64       1.0  0.3174019218789752  0.3580485289098335  0.21134588251219094  1.0000
  C   C1        1.0  0.23515860901128602  0.668579726783044  0.6798385921610829  1.0000
  C   C2        1.0  0.6556550496071054  0.994893755691287  0.3739870864768164  1.0000
  C   C3        1.0  0.23654154340224662  0.7248662490368148  0.6215540767119874  1.0000
  C   C4        1.0  0.2386692496110498  0.8301558054990468  0.5126176940589389  1.0000
  C   C5        1.0  0.23926143954549417  0.8871841606730732  0.45501816534036976  1.0000
  C   C6        1.0  0.17726017991798668  0.7801789138289976  0.5172281155981509  1.0000
  C   C7        1.0  0.2991977427808905  0.8269905794020648  0.5623945927370427  1.0000
  C   C8        1.0  0.29801850814611436  0.7747247583237356  0.6168040360158356  1.0000
  C   C9        1.0  0.17629329214170747  0.7276592772195091  0.5713722705754023  1.0000
  C   C10       1.0  0.9025967229412544  0.09131511427862193  0.2970254406361618  1.0000
  C   C11       1.0  0.8226308437731759  0.09013063381169671  0.29514604501636643  1.0000
  C   C12       1.0  0.82320523262365  0.9653779358552159  0.3408633066686518  1.0000
  C   C13       1.0  0.2384071869792734  0.8894725529625521  0.1803695954136231  1.0000
  C   C14       1.0  0.8980559770271413  0.4920880076826892  0.8728577475853782  1.0000
  C   C15       1.0  0.23703940056496015  0.8322224923447978  0.12213105250339848  1.0000
  C   C16       1.0  0.23460418219564624  0.7252094168721188  0.013383275010539796  1.0000
  C   C17       1.0  0.23366114651425815  0.667884287873058  0.9553059666114475  1.0000
  C   C18       1.0  0.28602211667711697  0.7847340045840384  0.009224540848443  1.0000
  C   C19       1.0  0.184316139690246  0.7195876404365934  0.0721425653311556  1.0000
  C   C20       1.0  0.18552764496615032  0.7728107902494589  0.12623250923265766  1.0000
  C   C21       1.0  0.2872364987336766  0.8379455696438075  0.0633128415241728  1.0000
  C   C22       1.0  0.570163227896785  0.46405183681779505  0.8350272631271166  1.0000
  C   C23       1.0  0.8975968794808864  0.5628618292952795  0.7625306909337651  1.0000
  C   C24       1.0  0.8175993224804403  0.5639104628879752  0.7636129138463161  1.0000
  C   C25       1.0  0.2339763020275214  0.388482137602722  0.681313904793356  1.0000
  C   C26       1.0  0.5756696916398808  0.9968946799417042  0.37524604318742394  1.0000
  C   C27       1.0  0.23494494412659608  0.3307691730812864  0.6235262665374961  1.0000
  C   C28       1.0  0.23733107930565475  0.2234446412432832  0.5150735001839875  1.0000
  C   C29       1.0  0.23875157931222188  0.16632818478910855  0.456800619451144  1.0000
  C   C30       1.0  0.18578188103965232  0.28282658600624455  0.5108554960617653  1.0000
  C   C31       1.0  0.28767202233811423  0.21801592018397292  0.5738489178641115  1.0000
  C   C32       1.0  0.2864417695064461  0.27137860650948653  0.6278206282546178  1.0000
  C   C33       1.0  0.184599975905769  0.3362128456210274  0.5647740175335157  1.0000
  C   C34       1.0  0.903200119223918  0.9655413413257188  0.34057601872512316  1.0000
  C   C35       1.0  0.5755152096294864  0.05853206891498533  0.259802536158105  1.0000
  C   C36       1.0  0.6555326554656203  0.05909695554751693  0.2601354309388738  1.0000
  C   C37       1.0  0.2388527958783371  0.16964387077892704  0.18086968682650445  1.0000
  C   C38       1.0  0.8180556306937207  0.49045889495951667  0.8719422405683372  1.0000
  C   C39       1.0  0.23770134930658324  0.2262020630660118  0.12279862834231639  1.0000
  C   C40       1.0  0.2353570268360343  0.3311433214444933  0.013476818583661999  1.0000
  C   C41       1.0  0.2346130773090565  0.387821020500546  0.9555346792179121  1.0000
  C   C42       1.0  0.2957708294839634  0.2799778107118486  0.0171073589224164  1.0000
  C   C43       1.0  0.1759973513824633  0.3294423549703042  0.0645470367086745  1.0000
  C   C44       1.0  0.17729617249720772  0.27734261950677563  0.1191163841877341  1.0000
  C   C45       1.0  0.2968508679347508  0.22766782774159824  0.0714265479034282  1.0000
  C   C46       1.0  0.5709417073680711  0.5939999706509554  0.8050931967062879  1.0000
  C   C47       1.0  0.6509582738592457  0.5931932233278521  0.8039352118247364  1.0000
  C   C48       1.0  0.6501679520631711  0.4638422874891789  0.8354937244599084  1.0000
  C   C49       1.0  0.534952034753566  0.02815144148870981  0.3177843366221538  1.0000
  C   C50       1.0  0.0292833628030422  0.029002144102854312  0.319024941750591  1.0000
  C   C51       1.0  0.4492903040901339  0.028847834694353505  0.3180807861044599  1.0000
  C   C52       1.0  0.6968307830567397  0.026812784043798412  0.3169173495031998  1.0000
  C   C53       1.0  0.9435770990032425  0.028722360304506415  0.3190727264434585  1.0000
  C   C54       1.0  0.7816707538866864  0.02737371689235601  0.3174675084479971  1.0000
  C   C55       1.0  0.9384363705155325  0.5277709333374078  0.8177615159547926  1.0000
  C   C56       1.0  0.4440935961583605  0.5293458138777896  0.8192902339032669  1.0000
  C   C57       1.0  0.024095518370138805  0.5286502310519696  0.8179498004637081  1.0000
  C   C58       1.0  0.7766563820912894  0.5272622484815204  0.8180250608019859  1.0000
  C   C59       1.0  0.5298441350433478  0.5292150136623521  0.8199382250054654  1.0000
  C   C60       1.0  0.6918058037522313  0.5281351650029366  0.8191337721073565  1.0000
  C   C61       1.0  0.7662545766073237  0.6120161573081121  0.3188193755669957  1.0000
  C   C62       1.0  0.3441993673566018  0.005146482957258102  0.6264381472930934  1.0000
  C   C63       1.0  0.7652548534887416  0.6696372794081926  0.3767009113361296  1.0000
  C   C64       1.0  0.7629907512018548  0.7769068574979842  0.48522078938101015  1.0000
  C   C65       1.0  0.7617544464826622  0.8341118857673212  0.543408924493022  1.0000
  C   C66       1.0  0.813731782859101  0.7169172947679956  0.48990568176481725  1.0000
  C   C67       1.0  0.7133589676888121  0.7829178453538294  0.4259875529418479  1.0000
  C   C68       1.0  0.7145253258063563  0.7296018895512905  0.3719648533571416  1.0000
  C   C69       1.0  0.8148394322789514  0.6635673117130596  0.4359452878890764  1.0000
  C   C70       1.0  0.0969716988337979  0.035137202107364415  0.6613694432961947  1.0000
  C   C71       1.0  0.7608554467864721  0.831128362092365  0.8192303546096582  1.0000
  C   C72       1.0  0.10196540834769509  0.5091367424113502  0.1269433267663018  1.0000
  C   C73       1.0  0.7618405273518364  0.7745082189358855  0.8772372242119173  1.0000
  C   C74       1.0  0.7641520335952948  0.6695728669337841  0.9865009501064746  1.0000
  C   C75       1.0  0.7650427854447558  0.6130013034763024  0.044533210133622  1.0000
  C   C76       1.0  0.703343843618782  0.7202663236380787  0.9824716322212979  1.0000
  C   C77       1.0  0.8238836418174671  0.6716912822531643  0.9358261394753595  1.0000
  C   C78       1.0  0.8225928816921524  0.7237943750918563  0.8812745528996687  1.0000
  C   C79       1.0  0.7022822298937968  0.7726050378423824  0.928172422051972  1.0000
  C   C80       1.0  0.42909267343429747  0.40731940961327257  0.19748649448177247  1.0000
  C   C81       1.0  0.1023645165795202  0.43762543943977067  0.23679511117268956  1.0000
  C   C82       1.0  0.18235172225772092  0.4366337054440238  0.23575015001390645  1.0000
  C   C83       1.0  0.7653047718501612  0.33181517507503616  0.3199824510098707  1.0000
  C   C84       1.0  0.4241841088211586  0.0031193001230321003  0.6248488383408882  1.0000
  C   C85       1.0  0.7640294559859696  0.27541481626924025  0.3781757760964837  1.0000
  C   C86       1.0  0.7619759751142398  0.16997437961261144  0.48698644278193365  1.0000
  C   C87       1.0  0.7612847958246716  0.11302397913193121  0.5446630845981986  1.0000
  C   C88       1.0  0.8238264313142238  0.219407875213058  0.4818744023396845  1.0000
  C   C89       1.0  0.7010061013437365  0.17373376073988575  0.4377204380485722  1.0000
  C   C90       1.0  0.702139302035981  0.2260714620493972  0.3833832563560974  1.0000
  C   C91       1.0  0.8247553439421652  0.27199939711807275  0.4278041235519224  1.0000
  C   C92       1.0  0.09749774570335032  0.9088334638484312  0.7034861634939489  1.0000
  C   C93       1.0  0.1774722360855208  0.9099150672694165  0.7052517940405494  1.0000
  C   C94       1.0  0.17696598331642832  0.03521415591455221  0.6609248597550703  1.0000
  C   C95       1.0  0.42484345412391633  0.9417928802565997  0.740461027366777  1.0000
  C   C96       1.0  0.3448254626103591  0.9411742135246329  0.7404297692480881  1.0000
  C   C97       1.0  0.7608572369025808  0.11190224469977045  0.819066537395983  1.0000
  C   C98       1.0  0.1819553834547634  0.5106803315326759  0.12784139956410456  1.0000
  C   C99       1.0  0.7619757789937225  0.16938661283968776  0.8770861840158516  1.0000
  C   C100      1.0  0.7645756228659976  0.276334217026495  0.9858849128392105  1.0000
  C   C101      1.0  0.7658352480623379  0.3334409612635414  0.044153193281672984  1.0000
  C   C102      1.0  0.7142346763991013  0.2160429870761718  0.9907819700872267  1.0000
  C   C103      1.0  0.8136065105413054  0.2828480884071852  0.9262897012470788  1.0000
  C   C104      1.0  0.8122879393261968  0.22966450941071767  0.8721535866741519  1.0000
  C   C105      1.0  0.7129552507297705  0.16285344564096257  0.9366829608807234  1.0000
  C   C106      1.0  0.43000682695903697  0.5358289834279121  0.16230507385645856  1.0000
  C   C107      1.0  0.3500107166746674  0.5360540191724541  0.1616509180295722  1.0000
  C   C108      1.0  0.3490726263771506  0.40819431382819016  0.1983574031328388  1.0000
  C   C109      1.0  0.46514698722970127  0.9720416117481822  0.682247016909642  1.0000
  C   C110      1.0  0.9708491920507214  0.9714699937995309  0.6820447854333904  1.0000
  C   C111      1.0  0.5508167678925985  0.9714803788933752  0.6817658698146402  1.0000
  C   C112      1.0  0.3032999670458807  0.9733499641293692  0.6837352305486206  1.0000
  C   C113      1.0  0.05656525790105601  0.9717193496782743  0.6821647555884949  1.0000
  C   C114      1.0  0.2184485260392535  0.9728681403612429  0.6834827450290746  1.0000
  C   C115      1.0  0.0615365956328588  0.473063226473464  0.1817776577503665  1.0000
  C   C116      1.0  0.55601239759541  0.471251507957085  0.1809643207194114  1.0000
  C   C117      1.0  0.9758918381840543  0.4721921844971534  0.18158294083191606  1.0000
  C   C118      1.0  0.22337702121608768  0.4735206889780488  0.1815355044428557  1.0000
  C   C119      1.0  0.4702572345664606  0.4713780105645926  0.18015440327478413  1.0000
  C   C120      1.0  0.3082258720551607  0.47255311579722564  0.18049863156975476  1.0000
  O   O1        1.0  0.2885702594827819  0.9390226006028475  0.4615688911597573  1.0000
  O   O2        1.0  0.18656058733508024  0.6162430414721101  0.6729563745150315  1.0000
  O   O3        1.0  0.19050485140548554  0.8796927439771667  0.40413010889877643  1.0000
  O   O4        1.0  0.2825368502918906  0.6774513251253255  0.7317515683435332  1.0000
  O   O5        1.0  0.06282199258998838  0.9664403860879675  0.3232011712963825  1.0000
  O   O6        1.0  0.18683876279176562  0.614118841103327  0.9633045913163798  1.0000
  O   O7        1.0  0.2872608953600135  0.9415908524223942  0.17354984054269096  1.0000
  O   O8        1.0  0.27973733652521565  0.677224290760293  0.9027246970337613  1.0000
  O   O9        1.0  0.19071063984040393  0.8813577539512141  0.23193340623167558  1.0000
  O   O10       1.0  0.41062090962596903  0.5921068951794485  0.816459832099106  1.0000
  O   O11       1.0  0.28619244585741654  0.113046583577507  0.46447335065492007  1.0000
  O   O12       1.0  0.18530358932491708  0.4407108613797349  0.6742392043233635  1.0000
  O   O13       1.0  0.1925699621096939  0.1755515595810949  0.4042564501936709  1.0000
  O   O14       1.0  0.2818968543617189  0.3806499931512804  0.7327456336014675  1.0000
  O   O15       1.0  0.06266525785759572  0.09170909810107734  0.3146035808494075  1.0000
  O   O16       1.0  0.18508475709582933  0.4394644595093383  0.9616988262652979  1.0000
  O   O17       1.0  0.28717960389671754  0.1171196106705708  0.17366872940406347  1.0000
  O   O18       1.0  0.28353026098695727  0.38030817757154983  0.9047716345600348  1.0000
  O   O19       1.0  0.19154585940855637  0.17834462943289967  0.23283605242032476  1.0000
  O   O20       1.0  0.4105796216298074  0.46663989074492923  0.8214415487665434  1.0000
  O   O21       1.0  0.23897041434488392  0.0285177819599127  0.31786378240972357  1.0000
  O   O22       1.0  0.4160649004554601  0.02317597139906981  0.3791816514145339  1.0000
  O   O23       1.0  0.41571397325391507  0.035058806746917505  0.2572321644194844  1.0000
  O   O24       1.0  0.234354888264491  0.5285376752194468  0.8178380662387426  1.0000
  O   O25       1.0  0.05729711377181701  0.5221176483742982  0.8789734589049231  1.0000
  O   O26       1.0  0.05758014895854299  0.5359818816668851  0.7572141702716946  1.0000
  O   O27       1.0  0.7146019621994029  0.8876047879311957  0.5355570989976712  1.0000
  O   O28       1.0  0.814819070360592  0.5596943550996162  0.3259411632126827  1.0000
  O   O29       1.0  0.8078082771730379  0.8247911062522423  0.5960324432050328  1.0000
  O   O30       1.0  0.7184946230047657  0.6199980326983195  0.2672842284847121  1.0000
  O   O31       1.0  0.9374436451959908  0.9087431339344368  0.6860384439896805  1.0000
  O   O32       1.0  0.8148019599272089  0.5615616825856622  0.0384841876204192  1.0000
  O   O33       1.0  0.7126529823751541  0.883760180821682  0.8264364422193607  1.0000
  O   O34       1.0  0.7160593921375593  0.6204224777950532  0.09525136502781349  1.0000
  O   O35       1.0  0.8081997985050792  0.8223566324968064  0.7673245958773619  1.0000
  O   O36       1.0  0.5895170928968838  0.5339338126850779  0.1782352149135846  1.0000
  O   O37       1.0  0.7114913867663263  0.06156643070433183  0.5384758476689484  1.0000
  O   O38       1.0  0.8138964620725063  0.3841590200926249  0.32686145885880075  1.0000
  O   O39       1.0  0.8104160495916658  0.12023122510351672  0.5952712674012801  1.0000
  O   O40       1.0  0.717820632399288  0.32301104292410093  0.2681427948253869  1.0000
  O   O41       1.0  0.9373267091948418  0.03406215486283061  0.6780994045921104  1.0000
  O   O42       1.0  0.8125586243238561  0.3872701871603115  0.03608748189491  1.0000
  O   O43       1.0  0.7125716734017543  0.05935896405591022  0.8263473346872343  1.0000
  O   O44       1.0  0.7201476024203827  0.32383422861965994  0.0969909446942268  1.0000
  O   O45       1.0  0.8082331558789021  0.12018073780372164  0.767276110756363  1.0000
  O   O46       1.0  0.5894661671269219  0.4085109472330403  0.18445157732504205  1.0000
  O   O47       1.0  0.7611683655660428  0.9721037501463885  0.682165447971741  1.0000
  O   O48       1.0  0.5839690511733481  0.9770379355445089  0.6206098353643839  1.0000
  O   O49       1.0  0.5844679510981622  0.9655263456751516  0.7425974074865065  1.0000
  O   O50       1.0  0.7656992751781218  0.47210308229365694  0.1821659225098813  1.0000
  O   O51       1.0  0.9426729901372183  0.4788621415149666  0.12058276410210307  1.0000
  O   O52       1.0  0.9424446080546006  0.464713837314207  0.24231389473207798  1.0000
