data_image0
_chemical_formula_structural       Ho2H12C16N2O16
_chemical_formula_sum              "Ho2 H12 C16 N2 O16"
_cell_length_a       6.319965089955169
_cell_length_b       9.331743406130597
_cell_length_c       9.754130947478924
_cell_angle_alpha    72.5813988365016
_cell_angle_beta     81.01854684989999
_cell_angle_gamma    83.27125990597999

_space_group_name_H-M_alt    "P 1"
_space_group_IT_number       1

loop_
  _space_group_symop_operation_xyz
  'x, y, z'

loop_
  _atom_site_type_symbol
  _atom_site_label
  _atom_site_symmetry_multiplicity
  _atom_site_fract_x
  _atom_site_fract_y
  _atom_site_fract_z
  _atom_site_occupancy
  Ho  Ho1       1.0  0.09196318600012182  0.2903294496908941  0.3031645738337261  1.0000
  Ho  Ho2       1.0  0.9080183978185306  0.7096808615464169  0.6968218542267336  1.0000
  H   H1        1.0  0.20728513179258812  0.021950766813311897  0.9574811773984989  1.0000
  H   H2        1.0  0.7927330235152468  0.9780273821683847  0.04251669326904321  1.0000
  H   H3        1.0  0.38868241755432825  0.795845386632891  0.9326870067161863  1.0000
  H   H4        1.0  0.6113566067603244  0.2041253141845161  0.06732911691789671  1.0000
  H   H5        1.0  0.5283368402138893  0.6106969121549214  0.15198092445273653  1.0000
  H   H6        1.0  0.47169081181567674  0.3892805949254949  0.8480560344973966  1.0000
  H   H7        1.0  0.4480515899418551  0.6744189991335999  0.3892897183376505  1.0000
  H   H8        1.0  0.5519363747148064  0.32558948149755906  0.6107344580834493  1.0000
  H   H9        1.0  0.5502026976838865  0.23399428299464384  0.3583927417534838  1.0000
  H   H10       1.0  0.44978475549573466  0.7660229771058127  0.6416022347224909  1.0000
  H   H11       1.0  0.5648858662744446  0.34768213959073796  0.20578008666745973  1.0000
  H   H12       1.0  0.435102856635325  0.6523237929793665  0.7942109142428677  1.0000
  C   C1        1.0  0.21313684676428588  0.9937031477222503  0.17294628302217774  1.0000
  C   C2        1.0  0.7868696419315103  0.0062929834503933045  0.8270578718191145  1.0000
  C   C3        1.0  0.05931241793450683  0.44087620470703104  0.5585811232138198  1.0000
  C   C4        1.0  0.940665998149399  0.5591441611553946  0.44139654435796416  1.0000
  C   C5        1.0  0.3653449695790982  0.8147574763620683  0.03890075955330737  1.0000
  C   C6        1.0  0.6346879662906633  0.1852233126770457  0.9611151347056933  1.0000
  C   C7        1.0  0.4397810731221767  0.715328297671725  0.15956676450102952  1.0000
  C   C8        1.0  0.5602502258460477  0.28465596323509595  0.8404605980410268  1.0000
  C   C9        1.0  0.3940846464714128  0.7520695389760803  0.2910648519697077  1.0000
  C   C10       1.0  0.6059138096718399  0.2479299771956249  0.7089515349233579  1.0000
  C   C11       1.0  0.28320922869832543  0.8869997895403188  0.3003318665256316  1.0000
  C   C12       1.0  0.7167953806199848  0.11299974609797661  0.6996766260231269  1.0000
  C   C13       1.0  0.2348409773866109  0.921335434414644  0.4422821409332938  1.0000
  C   C14       1.0  0.7651370715259064  0.0786770757851372  0.5577030193558912  1.0000
  C   C15       1.0  0.8808551142896736  0.48291936078333453  0.01597818082228745  1.0000
  C   C16       1.0  0.11912949870605159  0.5170808573134096  0.9840129331122399  1.0000
  N   N1        1.0  0.2561521902235953  0.9464781160715532  0.04848168161384339  1.0000
  N   N2        1.0  0.7438642589038623  0.053503485520117494  0.9515256200294431  1.0000
  O   O1        1.0  0.8251835309055195  0.38717398136282805  0.1361882498195044  1.0000
  O   O2        1.0  0.174816353103445  0.612828590384808  0.863788099847369  1.0000
  O   O3        1.0  0.11475976168683392  0.12220420197765239  0.1623090147605168  1.0000
  O   O4        1.0  0.8852547029455881  0.8777873604099112  0.8376771116080661  1.0000
  O   O5        1.0  0.1480023871191278  0.32473131020786633  0.5258343684895407  1.0000
  O   O6        1.0  0.8519883424783927  0.6752883512700906  0.474170800290274  1.0000
  O   O7        1.0  0.21062613417726087  0.0556811065178735  0.44638637725680036  1.0000
  O   O8        1.0  0.7893792520212912  0.9443205584302633  0.5536060135429821  1.0000
  O   O9        1.0  0.7605610517609523  0.5517855819773273  0.9217868994838697  1.0000
  O   O10       1.0  0.23941804779779122  0.44823263777696093  0.07820260428009362  1.0000
  O   O11       1.0  0.22180500254009422  0.8074894506044288  0.5568562200196608  1.0000
  O   O12       1.0  0.7781615828320059  0.19252867244347976  0.4431429605109897  1.0000
  O   O13       1.0  0.05698917088817272  0.4710234204142905  0.6772146867249873  1.0000
  O   O14       1.0  0.9429846907171966  0.5289744321521183  0.3227824694214121  1.0000
  O   O15       1.0  0.46022886208379543  0.2862029942400923  0.28082232700204907  1.0000
  O   O16       1.0  0.5397626255506154  0.7137916036302271  0.7191614514394827  1.0000
