data_image0
_chemical_formula_structural       Cd2H40C44N12O16
_chemical_formula_sum              "Cd2 H40 C44 N12 O16"
_cell_length_a       9.62831776040536
_cell_length_b       12.552183165289067
_cell_length_c       13.703
_cell_angle_alpha    73.81951847490264
_cell_angle_beta     74.35388259259148
_cell_angle_gamma    70.44542914568633

_space_group_name_H-M_alt    "P 1"
_space_group_IT_number       1

loop_
  _space_group_symop_operation_xyz
  'x, y, z'

loop_
  _atom_site_type_symbol
  _atom_site_label
  _atom_site_symmetry_multiplicity
  _atom_site_fract_x
  _atom_site_fract_y
  _atom_site_fract_z
  _atom_site_occupancy
  Cd  Cd1       1.0  0.6610736611279364  0.3247473933834328  0.5746361619547855  1.0000
  Cd  Cd2       1.0  0.3389254431739204  0.6752534636258289  0.4253645187855852  1.0000
  H   H1        1.0  0.31236122678713235  0.3761039930449925  0.238650428666304  1.0000
  H   H2        1.0  0.6876392714643059  0.6238959996951507  0.7613487490013499  1.0000
  H   H3        1.0  0.9134750283779808  0.4544906094413435  0.4770535856904843  1.0000
  H   H4        1.0  0.08652546987345738  0.5455093832987927  0.5229455919771695  1.0000
  H   H5        1.0  0.4593356182061753  0.3822636390647816  0.7869292590420686  1.0000
  H   H6        1.0  0.540663170714616  0.6177380822135987  0.21307199061583046  1.0000
  H   H7        1.0  0.12236671619429977  0.4661712066010821  0.32479212488426173  1.0000
  H   H8        1.0  0.87763346667608  0.5338296504081796  0.6752076217009134  1.0000
  H   H9        1.0  0.37606410065176027  0.2644214087922592  0.5604989360219933  1.0000
  H   H10       1.0  0.623938870117783  0.7355777196787586  0.43949999371936604  1.0000
  H   H11       1.0  0.7256976868770977  0.2917011993027998  0.3435364424240319  1.0000
  H   H12       1.0  0.2743028113743406  0.7082987934373364  0.6564641947780245  1.0000
  H   H13       1.0  0.9337166151821421  0.2909216285563687  0.1853792645227871  1.0000
  H   H14       1.0  0.0662824891197147  0.7090792284528931  0.814619956683174  1.0000
  H   H15       1.0  0.12034096593582429  0.2531599821558288  0.6628173513494744  1.0000
  H   H16       1.0  0.8796584537470904  0.7468400105843074  0.33718130093896553  1.0000
  H   H17       1.0  0.6572454006416777  0.2354182656560084  0.8898963213299781  1.0000
  H   H18       1.0  0.3427554129908188  0.7645808628150094  0.1101037469545574  1.0000
  H   H19       1.0  0.5186504361517166  0.4476585620460227  0.17487172679452098  1.0000
  H   H20       1.0  0.48134974671866354  0.552342294963232  0.825128019790661  1.0000
  H   H21       1.0  0.7702509824842353  0.4274839279727942  0.05942286589944244  1.0000
  H   H22       1.0  0.22975027895466127  0.5725169290364676  0.9405766762977523  1.0000
  H   H23       1.0  0.20708456497759184  0.3791358491187111  0.8982525526340484  1.0000
  H   H24       1.0  0.7929137761367997  0.6208641436214251  0.10174849334399033  1.0000
  H   H25       1.0  0.40514291228485183  0.2570068440099149  0.005053103490126894  1.0000
  H   H26       1.0  0.594856507398063  0.7429931487302213  0.9949470083327158  1.0000
  H   H27       1.0  0.6575129169735944  0.0920014478471387  0.3723253196044142  1.0000
  H   H28       1.0  0.3424865027093204  0.9079985448930046  0.6276747922184286  1.0000
  H   H29       1.0  0.6175906669977778  0.9559248604164168  0.39893626118419684  1.0000
  H   H30       1.0  0.3824098312536606  0.0440751323237265  0.6010643760178666  1.0000
  H   H31       1.0  0.8074722166613808  0.9632089205616055  0.3545134622957989  1.0000
  H   H32       1.0  0.1925289123521736  0.0367893436402937  0.6454874966056182  1.0000
  H   H33       1.0  0.7606802674051849  0.8596184880814732  0.6450934767231403  1.0000
  H   H34       1.0  0.2393199154651953  0.1403823689277885  0.35490772939645154  1.0000
  H   H35       1.0  0.863090651298748  0.8134258964132144  0.5268437777874055  1.0000
  H   H36       1.0  0.1369098469526833  0.18657409632692182  0.4731568594146581  1.0000
  H   H37       1.0  0.6687469858328399  0.8181422130022398  0.5707514636718258  1.0000
  H   H38       1.0  0.33125319703753314  0.18185864400701493  0.4292490126805575  1.0000
  H   H39       1.0  0.7078607737274679  0.0425280905985375  0.6341724483082275  1.0000
  H   H40       1.0  0.2921404877114285  0.9574727664107243  0.36582855342337695  1.0000
  C   C1        1.0  0.9216949576859008  0.4194946242255  0.41055760871537933  1.0000
  C   C2        1.0  0.07830414661595607  0.5805062327837547  0.5894423422577901  1.0000
  C   C3        1.0  0.04833273675451721  0.3733737668942254  0.24443493230006655  1.0000
  C   C4        1.0  0.9516671307347976  0.6266279543841549  0.7555646534354356  1.0000
  C   C5        1.0  0.3798832360926524  0.3557469981873922  0.7617943038752344  1.0000
  C   C6        1.0  0.6201161835902623  0.6442529945527511  0.2382065377148166  1.0000
  C   C7        1.0  0.04013454507284559  0.4232187598645183  0.3261373666624224  1.0000
  C   C8        1.0  0.9598656377975345  0.5767820971447435  0.6738623799227598  1.0000
  C   C9        1.0  0.3337330333852577  0.2882959789691455  0.6359599309083991  1.0000
  C   C10       1.0  0.666265307729134  0.7117040137709907  0.3640389257680283  1.0000
  C   C11       1.0  0.8167377479527286  0.3284931357504561  0.3358741137564679  1.0000
  C   C12       1.0  0.18326275029870936  0.67150685698968  0.6641250639111861  1.0000
  C   C13       1.0  0.14212766812018882  0.3168505664320094  0.7887202001681504  1.0000
  C   C14       1.0  0.857871303756326  0.6831476977698898  0.2112789782076235  1.0000
  C   C15       1.0  0.44634408992074975  0.3532656815432489  0.09767547980815289  1.0000
  C   C16       1.0  0.5536550143811071  0.6467351754660129  0.9023252009322249  1.0000
  C   C17       1.0  0.9980144508969883  0.3171297253578373  0.8482534873786991  1.0000
  C   C18       1.0  0.001987125922973091  0.6828702673822988  0.15174548590096038  1.0000
  C   C19       1.0  0.9318267558425434  0.3279158039781507  0.248994361304831  1.0000
  C   C20       1.0  0.06817374240889512  0.6720841887619855  0.7510055461300241  1.0000
  C   C21       1.0  0.1925114703433763  0.2824621624076826  0.6924728891292349  1.0000
  C   C22       1.0  0.8074865553899571  0.7175386946015792  0.30752726623192217  1.0000
  C   C23       1.0  0.6259722650620319  0.2824466055635142  0.9521819213538765  1.0000
  C   C24       1.0  0.3740279178083412  0.7175542514457476  0.04781709546410443  1.0000
  C   C25       1.0  0.7306307928309934  0.3299753572916302  0.9669972349744071  1.0000
  C   C26       1.0  0.26937046860790304  0.6700254997176316  0.03300157745557898  1.0000
  C   C27       1.0  0.5507514854252378  0.3999249785364185  0.1132660493456967  1.0000
  C   C28       1.0  0.4492490128261934  0.6000750142037177  0.8867338580891584  1.0000
  C   C29       1.0  0.6907339030897574  0.388789735191537  0.04903235649927502  1.0000
  C   C30       1.0  0.3092665951616809  0.6112102575485991  0.9509675509355803  1.0000
  C   C31       1.0  0.8731877449610865  0.3211840118007743  0.9018284258154097  1.0000
  C   C32       1.0  0.1268095175847819  0.6788159809393619  0.09817282455060912  1.0000
  C   C33       1.0  0.24028485266030944  0.35392425461284915  0.8234860535542623  1.0000
  C   C34       1.0  0.759715197784729  0.64607400958905  0.1765151097351421  1.0000
  C   C35       1.0  0.485222438072114  0.293979412703699  0.016637618415330735  1.0000
  C   C36       1.0  0.5147777447982591  0.7060214443055628  0.9833621281698512  1.0000
  C   C37       1.0  0.17448702619849854  0.365719799565575  0.1512419367477804  1.0000
  C   C38       1.0  0.8255117627222929  0.6342819217127982  0.8487578533757089  1.0000
  C   C39       1.0  0.6981992004484852  0.998961141257638  0.4020756487706976  1.0000
  C   C40       1.0  0.3018012978029532  0.0010388514824982  0.5979242586641575  1.0000
  C   C41       1.0  0.7536941317164219  0.8608103151982505  0.5661882836752101  1.0000
  C   C42       1.0  0.2463063665350163  0.1391896775418857  0.4338123535268537  1.0000
  C   C43       1.0  0.6927892661587762  0.0678632755885857  0.5528893621625954  1.0000
  C   C44       1.0  0.3072124936169018  0.9321332600750694  0.4471126482053763  1.0000
  N   N1        1.0  0.4264862271601118  0.3245460186784257  0.6692256443871544  1.0000
  N   N2        1.0  0.5735096414361747  0.6754548383308361  0.3307741899827762  1.0000
  N   N3        1.0  0.30822568616166274  0.3658840106984229  0.167615375673023  1.0000
  N   N4        1.0  0.691773733521245  0.6341159820417204  0.8323847361498197  1.0000
  N   N5        1.0  0.8132615602883249  0.3713980476854033  0.4167032816559342  1.0000
  N   N6        1.0  0.18673862258205529  0.6286028093238514  0.5832957351620395  1.0000
  N   N7        1.0  0.6158746500871715  0.5537095687114189  0.6223180852160584  1.0000
  N   N8        1.0  0.38412584816426687  0.4462904240287244  0.37768182221879704  1.0000
  N   N9        1.0  0.7125857632915354  0.9798123946301018  0.5093179718998471  1.0000
  N   N10       1.0  0.2874153657220191  0.0201858695717974  0.4906829870015629  1.0000
  N   N11       1.0  0.8753991404909414  0.1576971364822199  0.6992960420145096  1.0000
  N   N12       1.0  0.12460104237943169  0.8423037205270418  0.3007037045706724  1.0000
  O   O1        1.0  0.1540412400273325  0.3571021721678918  0.0686435894805513  1.0000
  O   O2        1.0  0.8459592582241058  0.6428978205722515  0.9313563179543111  1.0000
  O   O3        1.0  0.5445928734085612  0.5491289423742671  0.5591319459505756  1.0000
  O   O4        1.0  0.4554073094618118  0.4508719146349947  0.4408678006345994  1.0000
  O   O5        1.0  0.6584413244360405  0.172075117566159  0.5071639849348557  1.0000
  O   O6        1.0  0.3415601199585794  0.8279222823666218  0.49283640504903303  1.0000
  O   O7        1.0  0.9241055764165511  0.21865144472378972  0.6121308286291196  1.0000
  O   O8        1.0  0.07589600040340376  0.7813485480163465  0.3878681446505469  1.0000
  O   O9        1.0  0.7321345868857918  0.1759409933408875  0.7279950309373079  1.0000
  O   O10       1.0  0.26786483279712314  0.8240589993992488  0.2720050808855418  1.0000
  O   O11       1.0  0.9628365333760271  0.0841089422413148  0.7530623952138529  1.0000
  O   O12       1.0  0.03716288630688787  0.9158910504988285  0.24693698684178864  1.0000
  O   O13       1.0  0.603271300973354  0.6481214631348422  0.6439213425226386  1.0000
  O   O14       1.0  0.3967291972780841  0.351878529605294  0.35607856491221673  1.0000
  O   O15       1.0  0.7023059745056485  0.4594869492253224  0.6647583350567177  1.0000
  O   O16       1.0  0.2976945237457898  0.5405130435148209  0.3352415723781448  1.0000
