data_image0
_chemical_formula_structural       Cu12H28C36I12N12
_chemical_formula_sum              "Cu12 H28 C36 I12 N12"
_cell_length_a       8.29025046841725
_cell_length_b       8.541663461152353
_cell_length_c       19.776406729305386
_cell_angle_alpha    90.00056641299446
_cell_angle_beta     89.99959713862802
_cell_angle_gamma    100.70016929036349

_space_group_name_H-M_alt    "P 1"
_space_group_IT_number       1

loop_
  _space_group_symop_operation_xyz
  'x, y, z'

loop_
  _atom_site_type_symbol
  _atom_site_label
  _atom_site_symmetry_multiplicity
  _atom_site_fract_x
  _atom_site_fract_y
  _atom_site_fract_z
  _atom_site_occupancy
  Cu  Cu1       1.0  0.9221425826104336  0.1246135892750218  0.4672647783234254  1.0000
  Cu  Cu2       1.0  0.577858469533858  0.8753881453425619  0.9672672429027428  1.0000
  Cu  Cu3       1.0  0.07785886057015289  0.8753869963792127  0.5327345457692942  1.0000
  Cu  Cu4       1.0  0.4221449511143973  0.12461007484489528  0.0327325868349746  1.0000
  Cu  Cu5       1.0  0.7731728408194056  0.8781222490197677  0.6273270456730771  1.0000
  Cu  Cu6       1.0  0.7268317921784799  0.12187494238320797  0.1273251478095574  1.0000
  Cu  Cu7       1.0  0.22682739448984535  0.12187832796357868  0.3726732897274729  1.0000
  Cu  Cu8       1.0  0.2731687744844534  0.8781208776024909  0.8726741762741808  1.0000
  Cu  Cu9       1.0  0.09126237383992467  0.27257108280596737  0.2838791206803534  1.0000
  Cu  Cu10      1.0  0.4087377854773849  0.7274287161173874  0.7838814839557599  1.0000
  Cu  Cu11      1.0  0.9087369849581464  0.7274247284985549  0.7161202034051541  1.0000
  Cu  Cu12      1.0  0.59126541602852  0.27256831267352066  0.21612036839184162  1.0000
  H   H1        1.0  0.2497679767943382  0.6456349645133699  0.654907658352833  1.0000
  H   H2        1.0  0.25023437827298517  0.3543717325924263  0.1549041657148891  1.0000
  H   H3        1.0  0.7502355507493519  0.3543703955214567  0.3450946996652817  1.0000
  H   H4        1.0  0.7497693684130623  0.6456348188389497  0.8450961696933491  1.0000
  H   H5        1.0  0.2953403207916168  0.4851995197059651  0.5548683435970644  1.0000
  H   H6        1.0  0.20466496066065076  0.5148075332595922  0.05486719491023  1.0000
  H   H7        1.0  0.7046643024023638  0.5148117974093863  0.445133508779243  1.0000
  H   H8        1.0  0.795342847869101  0.4852014270650216  0.945134657456272  1.0000
  H   H9        1.0  0.6181382377138218  0.25998133045355587  0.6790921711839174  1.0000
  H   H10       1.0  0.8818477270353924  0.7400108357128303  0.1790929860160304  1.0000
  H   H11       1.0  0.3818498120448837  0.7400120198809715  0.3209066472600028  1.0000
  H   H12       1.0  0.11814767681440229  0.25998970654582365  0.8209073493916037  1.0000
  H   H13       1.0  0.5556884494993355  0.42918235575226044  0.7743116451505117  1.0000
  H   H14       1.0  0.944297835887518  0.5708069996796326  0.2743095225683803  1.0000
  H   H15       1.0  0.44430399345029065  0.5708086464881319  0.2256886902409292  1.0000
  H   H16       1.0  0.05569405659196039  0.429187568120703  0.7256898015255118  1.0000
  H   H17       1.0  0.25946630165737616  0.25607024435141307  0.5026703515136575  1.0000
  H   H18       1.0  0.2405263666075115  0.7439225627223607  0.0026685679045571  1.0000
  H   H19       1.0  0.7405351415199773  0.7439303413079656  0.4973294782320962  1.0000
  H   H20       1.0  0.75947178432893  0.2560732398958335  0.9973302505296928  1.0000
  H   H21       1.0  0.5920680333571724  0.0693816864597068  0.3842394486645944  1.0000
  H   H22       1.0  0.907927491517043  0.930621880864713  0.8842426907625478  1.0000
  H   H23       1.0  0.4079314323460395  0.9306212646767378  0.6157608867422226  1.0000
  H   H24       1.0  0.0920730751426575  0.0693739391261303  0.11575713897422449  1.0000
  H   H25       1.0  0.7555289427596177  0.2628773739468784  0.5706096783875265  1.0000
  H   H26       1.0  0.7444712532588725  0.7371233856305679  0.0706118989848292  1.0000
  H   H27       1.0  0.2444726073390554  0.7371303515187007  0.4293886344143657  1.0000
  H   H28       1.0  0.2555300777006764  0.2628831484333176  0.9293879307739203  1.0000
  C   C1        1.0  0.3319996905598188  0.5599172364319784  0.6577981700798574  1.0000
  C   C2        1.0  0.16799988573436045  0.4400811709076535  0.15779630203383727  1.0000
  C   C3        1.0  0.6680014212670785  0.44008810621991046  0.3422021653296738  1.0000
  C   C4        1.0  0.8320027653046155  0.5599194234380463  0.8422040333631671  1.0000
  C   C5        1.0  0.3576376738952475  0.4692755188712212  0.6022185780977053  1.0000
  C   C6        1.0  0.14236634418512042  0.5307289233760244  0.1022186939241649  1.0000
  C   C7        1.0  0.642366949311679  0.5307357982235529  0.39778125166647976  1.0000
  C   C8        1.0  0.8576367451126856  0.46927405380395015  0.8977816414773372  1.0000
  C   C9        1.0  0.46640219418276274  0.36212312836576627  0.6073500585344718  1.0000
  C   C10       1.0  0.03360088168421528  0.6378766526712241  0.1073539926152307  1.0000
  C   C11       1.0  0.5336041873850659  0.6378846318090794  0.39264673730125565  1.0000
  C   C12       1.0  0.9664013310797656  0.3621215588659297  0.8926488710424392  1.0000
  C   C13       1.0  0.5378630228896171  0.34585584488772264  0.6706758805773347  1.0000
  C   C14       1.0  0.9621264540348591  0.6541349846426314  0.17067659287366146  1.0000
  C   C15       1.0  0.4621278808544104  0.6541399056485699  0.3293234435205648  1.0000
  C   C16       1.0  0.03787026989112971  0.34585961790298114  0.8293247538252614  1.0000
  C   C17       1.0  0.503397728912219  0.43975137867509767  0.724285468442339  1.0000
  C   C18       1.0  0.9965940281504615  0.5602369935173144  0.22428415668258583  1.0000
  C   C19       1.0  0.4965987758875911  0.5602420324482295  0.2757153726013115  1.0000
  C   C20       1.0  0.0034000609455091847  0.43975640020251205  0.7757126391403659  1.0000
  C   C21       1.0  0.5018425800720578  0.27453236847654944  0.54698040745442  1.0000
  C   C22       1.0  0.9981550643543571  0.725465510084355  0.04698334331399679  1.0000
  C   C23       1.0  0.4981558969118822  0.7254717653701305  0.45301739969125515  1.0000
  C   C24       1.0  0.001845940560933496  0.27453269274590036  0.9530169920802933  1.0000
  C   C25       1.0  0.38315868930283864  0.2324091733039992  0.4968358926265708  1.0000
  C   C26       1.0  0.1168398456202127  0.7675878278671887  0.99683575415942  1.0000
  C   C27       1.0  0.6168412146624362  0.7675961606615757  0.5031639371317027  1.0000
  C   C28       1.0  0.8831633558953981  0.23240920090827893  0.003164581229086099  1.0000
  C   C29       1.0  0.5653696128013619  0.12639670402485587  0.43132045920793877  1.0000
  C   C30       1.0  0.9346230060393594  0.8736018555609562  0.9313223649881338  1.0000
  C   C31       1.0  0.4346301842522989  0.8736014901190785  0.5686793705350935  1.0000
  C   C32       1.0  0.06537657189459618  0.12639514715040426  0.0686759477935581  1.0000
  C   C33       1.0  0.6546051189532136  0.23431885800219726  0.5347407628756358  1.0000
  C   C34       1.0  0.845393558636232  0.7656835371561641  0.0347428077229566  1.0000
  C   C35       1.0  0.3453918187992358  0.7656900241815449  0.46526007820074267  1.0000
  C   C36       1.0  0.1546087610522946  0.2343218141820458  0.9652580333378394  1.0000
  I   I1        1.0  0.015742604493290496  0.12053128982825709  0.5981311388761554  1.0000
  I   I2        1.0  0.4842519151830587  0.8794670514110549  0.0981332632104994  1.0000
  I   I3        1.0  0.9842600465456854  0.8794693045174425  0.40186919652084896  1.0000
  I   I4        1.0  0.5157445896102858  0.12052635972256809  0.9018685891392122  1.0000
  I   I5        1.0  0.08130223483837538  0.3845374787860081  0.40613717798738946  1.0000
  I   I6        1.0  0.41869910694634876  0.6154600682907159  0.9061370061949247  1.0000
  I   I7        1.0  0.9187018432013545  0.6154643156477207  0.593862146104037  1.0000
  I   I8        1.0  0.5813017910541022  0.38453099472305047  0.09386383483715827  1.0000
  I   I9        1.0  0.7010075172419618  0.9130240880173659  0.7528925053785114  1.0000
  I   I10       1.0  0.7989940818012827  0.08697445840486039  0.2528917601839211  1.0000
  I   I11       1.0  0.29899107194683694  0.08697409744539188  0.24710732436629  1.0000
  I   I12       1.0  0.20100813098535034  0.9130237530962829  0.7471075639025386  1.0000
  N   N1        1.0  0.4055599840605453  0.5489193535935755  0.7180091777082396  1.0000
  N   N2        1.0  0.09443750688470227  0.4510731304777025  0.21800858628265019  1.0000
  N   N3        1.0  0.5944376163798566  0.4510800146257238  0.2819926746526988  1.0000
  N   N4        1.0  0.9055586665873105  0.5489250376021317  0.7819892208535677  1.0000
  N   N5        1.0  0.41394312680726847  0.16008158742575057  0.4389970747784346  1.0000
  N   N6        1.0  0.08605175511821264  0.839916584908849  0.9389973394752998  1.0000
  N   N7        1.0  0.5860546927625521  0.8399189722106825  0.5610047775847489  1.0000
  N   N8        1.0  0.9139502385422348  0.1600804351700162  0.06100147895588749  1.0000
  N   N9        1.0  0.6865067314053589  0.15980166733893242  0.47733275503292555  1.0000
  N   N10       1.0  0.8134961693680154  0.8401979066692886  0.977334369870583  1.0000
  N   N11       1.0  0.3134888915673811  0.8402000663471437  0.5226685916830149  1.0000
  N   N12       1.0  0.1865103243917332  0.15980390514221912  0.0226664711763931  1.0000
