data_image0
_chemical_formula_structural       K2B2H2C8N6O4
_chemical_formula_sum              "K2 B2 H2 C8 N6 O4"
_cell_length_a       6.242556243766361
_cell_length_b       7.110482524953717
_cell_length_c       9.277256834064225
_cell_angle_alpha    110.71691028347915
_cell_angle_beta     107.6751375442147
_cell_angle_gamma    94.98615003092898

_space_group_name_H-M_alt    "P 1"
_space_group_IT_number       1

loop_
  _space_group_symop_operation_xyz
  'x, y, z'

loop_
  _atom_site_type_symbol
  _atom_site_label
  _atom_site_symmetry_multiplicity
  _atom_site_fract_x
  _atom_site_fract_y
  _atom_site_fract_z
  _atom_site_occupancy
  K   K1        1.0  0.481509509605658  0.44035838376770203  0.8247742910121474  1.0000
  K   K2        1.0  0.15683760602052388  0.6157038860297133  0.1752462755972317  1.0000
  B   B1        1.0  0.6672441849120714  0.17470890853525833  0.2789129060063544  1.0000
  B   B2        1.0  0.8884545654237996  0.8958164552922128  0.7211778746435016  1.0000
  H   H1        1.0  0.267053737594459  0.05373378511739449  0.428902766115165  1.0000
  H   H2        1.0  0.33812964604049256  0.6246845074304728  0.5709105737164251  1.0000
  C   C1        1.0  0.5051551192897605  0.2405498609868886  0.1467443803803761  1.0000
  C   C2        1.0  0.8583479112101738  0.0938182593330836  0.8530848918770244  1.0000
  C   C3        1.0  0.7122324787301224  0.9555690648271593  0.19028174570043896  1.0000
  C   C4        1.0  0.022400189974241955  0.7656547506754805  0.8101452845437437  1.0000
  C   C5        1.0  0.9035296179430714  0.33929988296679175  0.371457084105451  1.0000
  C   C6        1.0  0.0321178742625819  0.9678125837069589  0.6286185521489713  1.0000
  C   C7        1.0  0.5435684878960102  0.1732450083673953  0.4122325975369775  1.0000
  C   C8        1.0  0.6314946763233776  0.7606905237734194  0.5876990172422154  1.0000
  N   N1        1.0  0.3875931073780237  0.2969744370299168  0.05361291671782451  1.0000
  N   N2        1.0  0.8338165129589965  0.24333963803258737  0.9460769032903542  1.0000
  N   N3        1.0  0.7459769747993191  0.7940291690259825  0.1247403502253306  1.0000
  N   N4        1.0  0.12181071932233323  0.6696206812999036  0.8756876734326013  1.0000
  N   N5        1.0  0.07588361485517235  0.4622769384396933  0.4388995932120991  1.0000
  N   N6        1.0  0.1367252766597815  0.023264671289993502  0.5609963693321376  1.0000
  O   O1        1.0  0.3333545725775693  0.0469660215314462  0.34062896809859916  1.0000
  O   O2        1.0  0.49272932334361735  0.7063770373740396  0.6592874949097123  1.0000
  O   O3        1.0  0.6278517989114077  0.27856868377106997  0.5614654679727593  1.0000
  O   O4        1.0  0.5667085052072166  0.7163642729126989  0.43840637086047  1.0000
