data_image0
_chemical_formula_structural       Cu4H36C36S8I4N12
_chemical_formula_sum              "Cu4 H36 C36 S8 I4 N12"
_cell_length_a       5.5887837180853355
_cell_length_b       13.749318776979033
_cell_length_c       15.334415401878653
_cell_angle_alpha    93.43872447294471
_cell_angle_beta     89.99932481785353
_cell_angle_gamma    89.99997751737372

_space_group_name_H-M_alt    "P 1"
_space_group_IT_number       1

loop_
  _space_group_symop_operation_xyz
  'x, y, z'

loop_
  _atom_site_type_symbol
  _atom_site_label
  _atom_site_symmetry_multiplicity
  _atom_site_fract_x
  _atom_site_fract_y
  _atom_site_fract_z
  _atom_site_occupancy
  Cu  Cu1       1.0  0.23579702606543407  0.49227571706702383  0.49407892135970827  1.0000
  Cu  Cu2       1.0  0.7358104230653596  0.5077241405121742  0.005921197848294905  1.0000
  Cu  Cu3       1.0  0.7641801031828522  0.5077116267407079  0.5059188647834387  1.0000
  Cu  Cu4       1.0  0.26419354542380796  0.49228509021812533  0.9940881517452096  1.0000
  H   H1        1.0  0.2092330539336729  0.7681400367976324  0.6821917302165729  1.0000
  H   H2        1.0  0.7092651673510985  0.2318675888309443  0.8178062885260926  1.0000
  H   H3        1.0  0.7907458645888427  0.23185750766861452  0.317806582305863  1.0000
  H   H4        1.0  0.29075132621004945  0.7681431009087307  0.18220378846103094  1.0000
  H   H5        1.0  0.710866791300056  0.7016056718596317  0.5579685682115068  1.0000
  H   H6        1.0  0.2108897418201323  0.29839175293272285  0.942028917578227  1.0000
  H   H7        1.0  0.28911928449906554  0.29838457578280503  0.4420254549807864  1.0000
  H   H8        1.0  0.7891339089805953  0.701613102539433  0.05797890194028099  1.0000
  H   H9        1.0  0.0091077824984325  0.5706576234612655  0.6661577457766795  1.0000
  H   H10       1.0  0.5091512967939027  0.4293449254285093  0.8338414690357394  1.0000
  H   H11       1.0  0.9908675573950207  0.4293348277683292  0.33384291244681197  1.0000
  H   H12       1.0  0.49085982889513957  0.5706562922713161  0.16616811917810273  1.0000
  H   H13       1.0  0.9126786513430575  0.668535866634862  0.7395623170080936  1.0000
  H   H14       1.0  0.41269700776292956  0.3314659202785038  0.7604391460683073  1.0000
  H   H15       1.0  0.08730026718286868  0.3314602205944368  0.26043592031678026  1.0000
  H   H16       1.0  0.587296224921161  0.6685360295869955  0.2395717842230311  1.0000
  H   H17       1.0  0.1523160298532176  0.5911932901902262  0.769423506860768  1.0000
  H   H18       1.0  0.6523488365191099  0.40880780003529793  0.7305802730177076  1.0000
  H   H19       1.0  0.8476700457944091  0.4088042649143233  0.2305787189751597  1.0000
  H   H20       1.0  0.3476551319303454  0.5911992519320463  0.26943157266475026  1.0000
  H   H21       1.0  0.8377877502065658  0.126933092425098  0.5670768281572549  1.0000
  H   H22       1.0  0.3377842947545773  0.8730621362223657  0.9329213374866752  1.0000
  H   H23       1.0  0.1622108505722082  0.8730549870923953  0.43292360442666916  1.0000
  H   H24       1.0  0.6622375669789733  0.12693976931367962  0.06707328721390127  1.0000
  H   H25       1.0  0.5504252734522979  0.24974706623024187  0.626821127705824  1.0000
  H   H26       1.0  0.05041349106770101  0.7502576569209936  0.8731754245044453  1.0000
  H   H27       1.0  0.4495786952536208  0.7502461065238039  0.3731769591734276  1.0000
  H   H28       1.0  0.9496030027304414  0.2497522669647765  0.12682091823614874  1.0000
  H   H29       1.0  0.171529536250759  0.19973498479589583  0.6969620785562467  1.0000
  H   H30       1.0  0.6715336671535256  0.8002675375229414  0.8030332202164201  1.0000
  H   H31       1.0  0.8284690646057273  0.800258180865974  0.3030333994485445  1.0000
  H   H32       1.0  0.3284810374256892  0.19973727539492367  0.19695894600841504  1.0000
  H   H33       1.0  0.07401646385146418  0.023655516795074  0.7063385229030884  1.0000
  H   H34       1.0  0.5740257735174551  0.9763506468350799  0.7936527915533558  1.0000
  H   H35       1.0  0.9259678226169399  0.9763391061045257  0.29365703032812707  1.0000
  H   H36       1.0  0.42598356314608316  0.023658539567023202  0.20634025249628954  1.0000
  C   C1        1.0  0.42452243865642453  0.66308386238304  0.6305647460669659  1.0000
  C   C2        1.0  0.9245345805708212  0.3369237539603347  0.8694376222700196  1.0000
  C   C3        1.0  0.5754600584690764  0.336910767609119  0.369433416053134  1.0000
  C   C4        1.0  0.07546401997416301  0.6630876697181379  0.13057444901592413  1.0000
  C   C5        1.0  0.0684364052732676  0.6271604241573313  0.7151280433201561  1.0000
  C   C6        1.0  0.5684549262521515  0.3728421271312783  0.7848741933894912  1.0000
  C   C7        1.0  0.9315478811020911  0.3728356701641432  0.2848728028791853  1.0000
  C   C8        1.0  0.43154546364937124  0.627163460506857  0.21513496821734174  1.0000
  C   C9        1.0  0.5516880475912914  0.8301371032605047  0.6051430816335495  1.0000
  C   C10       1.0  0.051707623842993704  0.16986908408076568  0.8948561495038232  1.0000
  C   C11       1.0  0.44830160672484  0.16985825534973742  0.3948551180709002  1.0000
  C   C12       1.0  0.9483178163145284  0.8301394038449603  0.10514794467703577  1.0000
  C   C13       1.0  0.6163920942305195  0.005396261228398199  0.6027427938066123  1.0000
  C   C14       1.0  0.11639666825458052  0.9946033508545896  0.89725192470636  1.0000
  C   C15       1.0  0.3836047172467617  0.9945932755261352  0.3972577139784689  1.0000
  C   C16       1.0  0.8836234041964773  0.005401465609210699  0.10274154595029467  1.0000
  C   C17       1.0  0.6728819715484065  0.10375424410159441  0.5974852336013254  1.0000
  C   C18       1.0  0.1728866505937248  0.8962431741942325  0.9025084920820627  1.0000
  C   C19       1.0  0.32711483997710633  0.8962338283235312  0.4025125901009189  1.0000
  C   C20       1.0  0.8271352111588257  0.10376018503252742  0.09748490337342727  1.0000
  C   C21       1.0  0.5103969080531883  0.1727170440538259  0.6320490969812125  1.0000
  C   C22       1.0  0.0103922388563333  0.8272891265130011  0.867942474067625  1.0000
  C   C23       1.0  0.489607060644218  0.8272797717925826  0.36794917789192977  1.0000
  C   C24       1.0  0.9896224657867023  0.1727171330031112  0.13204585402683477  1.0000
  C   C25       1.0  0.2969473255418364  0.1443020261783374  0.6714489467418401  1.0000
  C   C26       1.0  0.7969522084853223  0.8557019272923301  0.8285413558942165  1.0000
  C   C27       1.0  0.7030459074023767  0.8556940557308367  0.32854733389020646  1.0000
  C   C28       1.0  0.2030589175554525  0.1443021481416764  0.17144751163244354  1.0000
  C   C29       1.0  0.2396254299107596  0.04627533234516791  0.6763701497112037  1.0000
  C   C30       1.0  0.739631986569954  0.9537271683646794  0.8236196566696703  1.0000
  C   C31       1.0  0.7603642244553016  0.9537178333171921  0.32362532831162827  1.0000
  C   C32       1.0  0.2603880859303159  0.04628055370743309  0.17637070327548085  1.0000
  C   C33       1.0  0.39978474553092275  0.9757331544295198  0.64181328067567  1.0000
  C   C34       1.0  0.8997946031588171  0.024269351869804702  0.8581843586871114  1.0000
  C   C35       1.0  0.6002049087523177  0.0242571109438785  0.3581872647226233  1.0000
  C   C36       1.0  0.10022367993302339  0.9757376593150937  0.14181248587608755  1.0000
  S   S1        1.0  0.4902330830612556  0.5416205518571785  0.6139585486924443  1.0000
  S   S2        1.0  0.9902443017870723  0.4583863411156984  0.8860480825997497  1.0000
  S   S3        1.0  0.5097583605271508  0.4583762675361455  0.3860410306485916  1.0000
  S   S4        1.0  0.009750720133240498  0.5416229020269014  0.11396583256104258  1.0000
  S   S5        1.0  0.7817136023147668  0.9035695584781249  0.5669008698168907  1.0000
  S   S6        1.0  0.28172492102805086  0.09642785681789691  0.9330956780647877  1.0000
  S   S7        1.0  0.21828320912988633  0.0964243535334717  0.4331011680035032  1.0000
  S   S8        1.0  0.7182951513884107  0.9035725950275334  0.06690017588448428  1.0000
  I   I1        1.0  0.013246574669963701  0.6492783799624178  0.44266908828855356  1.0000
  I   I2        1.0  0.5132425579440536  0.3507193124789155  0.057330511214452394  1.0000
  I   I3        1.0  0.9867180294590981  0.3507133391030592  0.557330227915166  1.0000
  I   I4        1.0  0.4867327818239957  0.6492884539235318  0.9426761543539324  1.0000
  N   N1        1.0  0.23425838381034944  0.6934930542585392  0.6764569852274531  1.0000
  N   N2        1.0  0.7342793476963863  0.3065116559415699  0.8235414344420487  1.0000
  N   N3        1.0  0.7657259026709654  0.30650083824946966  0.3235378781836643  1.0000
  N   N4        1.0  0.26572641005554937  0.693498308726454  0.1764699094105849  1.0000
  N   N5        1.0  0.5736340803404617  0.7304753857374281  0.5965810937805499  1.0000
  N   N6        1.0  0.07364591591177569  0.2695300705931985  0.9034180112699484  1.0000
  N   N7        1.0  0.42635915263127094  0.2695185067700976  0.4034137696125199  1.0000
  N   N8        1.0  0.9263652097809327  0.730479158363593  0.09659068608780066  1.0000
  N   N9        1.0  0.36950637389743696  0.8759177750332584  0.6426497891678478  1.0000
  N   N10       1.0  0.8695374420463935  0.12408545609191889  0.8573454009719155  1.0000
  N   N11       1.0  0.6304725446645277  0.12407247970202923  0.35734684292415847  1.0000
  N   N12       1.0  0.13048799814814768  0.8759215692775157  0.14265666134742355  1.0000
