data_image0
_chemical_formula_structural       Zn4H68C80N20O16
_chemical_formula_sum              "Zn4 H68 C80 N20 O16"
_cell_length_a       21.669707961323823
_cell_length_b       21.961719583092506
_cell_length_c       22.053097313798283
_cell_angle_alpha    60.06242396653279
_cell_angle_beta     63.59941832255168
_cell_angle_gamma    90.00651171970395

_space_group_name_H-M_alt    "P 1"
_space_group_IT_number       1

loop_
  _space_group_symop_operation_xyz
  'x, y, z'

loop_
  _atom_site_type_symbol
  _atom_site_label
  _atom_site_symmetry_multiplicity
  _atom_site_fract_x
  _atom_site_fract_y
  _atom_site_fract_z
  _atom_site_occupancy
  Zn  Zn1       1.0  0.5414989999413108  0.044145828961070804  0.9102675222653644  1.0000
  Zn  Zn2       1.0  0.4602797682652022  0.9549709670497392  0.0886614629890091  1.0000
  Zn  Zn3       1.0  0.9609887176892611  0.4555774947834693  0.08660463811519047  1.0000
  Zn  Zn4       1.0  0.04089779764576916  0.5431697145936099  0.9136025790506822  1.0000
  H   H1        1.0  0.8117932686742363  0.3848596934328726  0.21540139751584061  1.0000
  H   H2        1.0  0.7364682936446271  0.3155606835614222  0.3661777458601918  1.0000
  H   H3        1.0  0.5723190227490135  0.19508785843677862  0.6222640999807538  1.0000
  H   H4        1.0  0.7710765594158244  0.19022214311727484  0.6243660580876381  1.0000
  H   H5        1.0  0.8187134885482692  0.2485147951077451  0.5023017950680355  1.0000
  H   H6        1.0  0.6811403381287133  0.2632808623080933  0.49515343774680814  1.0000
  H   H7        1.0  0.19030494338301193  0.6057052954150706  0.783599058783608  1.0000
  H   H8        1.0  0.26410601844550274  0.6869302323782519  0.6326890364468555  1.0000
  H   H9        1.0  0.426891258623783  0.8119506298920528  0.376769036478116  1.0000
  H   H10       1.0  0.22923192976194423  0.8215610320654392  0.37271857581579604  1.0000
  H   H11       1.0  0.18017110906195896  0.7509383451674266  0.49774636579439163  1.0000
  H   H12       1.0  0.3187278886857923  0.7573873350443421  0.502934974838766  1.0000
  H   H13       1.0  0.774220438634053  0.29334018048756155  0.8687152622073172  1.0000
  H   H14       1.0  0.7138864645341696  0.21619196405729474  0.13271712789504167  1.0000
  H   H15       1.0  0.9197056882071661  0.42346957462507356  0.8771663802314791  1.0000
  H   H16       1.0  0.842996570162043  0.3482837792978231  0.8695442309910107  1.0000
  H   H17       1.0  0.5839476550698777  0.07152286442656931  0.12386677194084683  1.0000
  H   H18       1.0  0.6595056647431077  0.14815649452377497  0.1314032583965956  1.0000
  H   H19       1.0  0.34547458427616806  0.8390952158273989  0.8678592392822609  1.0000
  H   H20       1.0  0.1611942917714372  0.6555708454661939  0.13089023977403258  1.0000
  H   H21       1.0  0.19747210662652034  0.6990419988855409  0.8733955547997281  1.0000
  H   H22       1.0  0.2804399995792081  0.7809450955989876  0.8675682147497736  1.0000
  H   H23       1.0  0.30409818972891856  0.8038035182196666  0.12380895245203066  1.0000
  H   H24       1.0  0.22152975000404485  0.7203522133825473  0.1306117804076408  1.0000
  H   H25       1.0  0.3443491249590734  0.2901170728665435  0.8684038525543941  1.0000
  H   H26       1.0  0.15476640848906692  0.2065879148850911  0.12974530602225806  1.0000
  H   H27       1.0  0.20116548888061192  0.4289234983242308  0.8718095603503715  1.0000
  H   H28       1.0  0.281779679774253  0.35058762961188705  0.8670164697489755  1.0000
  H   H29       1.0  0.3028026407250337  0.07073094985595672  0.12560500017788456  1.0000
  H   H30       1.0  0.21852258354400075  0.1452837502775779  0.13104809335041523  1.0000
  H   H31       1.0  0.7721217973537761  0.8345615703449168  0.8721540099716449  1.0000
  H   H32       1.0  0.7141253099503898  0.6483585777543937  0.13490718386528044  1.0000
  H   H33       1.0  0.9201261202825604  0.6992812874728073  0.8784219294697025  1.0000
  H   H34       1.0  0.8450205855953212  0.7838930808991903  0.8719984135872921  1.0000
  H   H35       1.0  0.5838550500297826  0.8017239097254316  0.1274271028696888  1.0000
  H   H36       1.0  0.6619798700852612  0.7204494666954487  0.13424832694782662  1.0000
  H   H37       1.0  0.04215543520459868  0.4177124739961968  0.15284882494828622  1.0000
  H   H38       1.0  0.04078665993786495  0.41774080234752375  0.23050122979323365  1.0000
  H   H39       1.0  0.9197689789987038  0.2831464200283378  0.4387277760586058  1.0000
  H   H40       1.0  0.9932852576732709  0.31434000138523993  0.34653044003432865  1.0000
  H   H41       1.0  0.6795265028989519  0.08878801656163664  0.8424430074616466  1.0000
  H   H42       1.0  0.7596528910656912  0.1287866145609868  0.7525239052763766  1.0000
  H   H43       1.0  0.4645430774470326  0.06681997102933221  0.8416724144854939  1.0000
  H   H44       1.0  0.465926424097553  0.12007841981911578  0.751412938169338  1.0000
  H   H45       1.0  0.9596251611188933  0.5601112357523518  0.8489341660604025  1.0000
  H   H46       1.0  0.9579030457636576  0.6353159286087616  0.7701032629339867  1.0000
  H   H47       1.0  0.07962195280379795  0.7136256226354051  0.5630805763233369  1.0000
  H   H48       1.0  0.008304516572934484  0.648817448639882  0.654640268664906  1.0000
  H   H49       1.0  0.32302160747921244  0.9424570853707765  0.15445819266813038  1.0000
  H   H50       1.0  0.24162666157074836  0.8911810815898492  0.24428125900456635  1.0000
  H   H51       1.0  0.5346857670435767  0.8995757213075639  0.1578972331730313  1.0000
  H   H52       1.0  0.5332365030286823  0.8638960627886263  0.2486168876079162  1.0000
  H   H53       1.0  0.6693999035944457  0.192858371174097  0.8434564736907575  1.0000
  H   H54       1.0  0.7317317212535314  0.27336568486148854  0.7988401568150253  1.0000
  H   H55       1.0  0.8283857996151835  0.3079782738905195  0.1569111279073496  1.0000
  H   H56       1.0  0.7546301429953457  0.2348028339116014  0.20492007945202334  1.0000
  H   H57       1.0  0.474535701932325  0.9624227194822055  0.8435907094080406  1.0000
  H   H58       1.0  0.4520403108036034  0.9272675116831763  0.7987883715961319  1.0000
  H   H59       1.0  0.026376481435598013  0.5428663458825299  0.1502891384386658  1.0000
  H   H60       1.0  0.05176043023367066  0.5712092006480276  0.19857140458057637  1.0000
  H   H61       1.0  0.4727320420729056  0.1895862765355716  0.8448590556794429  1.0000
  H   H62       1.0  0.44141890454331184  0.2621841518620371  0.7969708793045812  1.0000
  H   H63       1.0  0.029646996348283477  0.311069153020739  0.15114835114984973  1.0000
  H   H64       1.0  0.04896645227168506  0.22813129912130134  0.19833052592253622  1.0000
  H   H65       1.0  0.6708290964287824  0.964422508330614  0.8457741459918185  1.0000
  H   H66       1.0  0.7440274285662767  0.937764284246221  0.7993414460612983  1.0000
  H   H67       1.0  0.8199376251182143  0.5219383911304618  0.15762716755912712  1.0000
  H   H68       1.0  0.7521530280680507  0.5525104457378305  0.20678199727719004  1.0000
  C   C1        1.0  0.41593539804316715  0.9172942617357761  0.9960168872567509  1.0000
  C   C2        1.0  0.4177523052505093  0.08713557106411683  0.997718204600254  1.0000
  C   C3        1.0  0.5889647031676616  0.08570548599985976  0.9958223413272408  1.0000
  C   C4        1.0  0.5852800393190802  0.9131452741867392  0.9991505168154974  1.0000
  C   C5        1.0  0.08937990197219386  0.4165690312995523  0.9981830025443444  1.0000
  C   C6        1.0  0.0844774486248879  0.5863761200259885  0.0001947746726927973  1.0000
  C   C7        1.0  0.9097526074861476  0.5788196131360835  0.005695398724682909  1.0000
  C   C8        1.0  0.9130088265690972  0.40965661121138197  0.0064133865325786115  1.0000
  C   C9        1.0  0.8358252314157111  0.3697039786970323  0.25328658871142573  1.0000
  C   C10       1.0  0.7947669911743274  0.3316814071323506  0.3367632894661626  1.0000
  C   C11       1.0  0.8281975586279271  0.3119336093046173  0.3838414218063307  1.0000
  C   C12       1.0  0.9039161981342118  0.3343688717878663  0.3415140490696799  1.0000
  C   C13       1.0  0.9428047453400403  0.37518053271745083  0.25442409444486497  1.0000
  C   C14       1.0  0.7875441951207377  0.2674817901452543  0.4721946051359964  1.0000
  C   C15       1.0  0.7153168568541942  0.24588939576096178  0.5215260297607287  1.0000
  C   C16       1.0  0.6021487631346004  0.1775961127097858  0.6539685423927467  1.0000
  C   C17       1.0  0.6773252392252117  0.19933865335161016  0.6103391615366505  1.0000
  C   C18       1.0  0.7127027694013179  0.1748911299339468  0.6544315942295781  1.0000
  C   C19       1.0  0.6725467395435415  0.12996292865556572  0.739666363304707  1.0000
  C   C20       1.0  0.5644145513423949  0.13213613653977774  0.7396749608344776  1.0000
  C   C21       1.0  0.16558125117931155  0.6254650618634587  0.7463194478517182  1.0000
  C   C22       1.0  0.20575729621375408  0.670759334866176  0.6626532284965165  1.0000
  C   C23       1.0  0.17177421093229836  0.6948890233463275  0.6160085615833922  1.0000
  C   C24       1.0  0.09601302396138318  0.6710068624667188  0.6595263809269271  1.0000
  C   C25       1.0  0.05798444296185319  0.6243927578311174  0.7466213634599583  1.0000
  C   C26       1.0  0.2118721095567295  0.7394006403605929  0.527301791809336  1.0000
  C   C27       1.0  0.28410944978394065  0.7672079378670061  0.4769980118944449  1.0000
  C   C28       1.0  0.39742445208192817  0.8290405802303412  0.3446247245607452  1.0000
  C   C29       1.0  0.3222479089553543  0.8101157374133192  0.38788565464467695  1.0000
  C   C30       1.0  0.28747932782346186  0.8332493043243544  0.3430715329354117  1.0000
  C   C31       1.0  0.3281326201224388  0.8746287596655765  0.2576148399171173  1.0000
  C   C32       1.0  0.43565253531256315  0.8689392741365509  0.258856101999939  1.0000
  C   C33       1.0  0.6366930222543983  0.13589676108069432  0.9939310696456616  1.0000
  C   C34       1.0  0.8627646524025463  0.3629622378037283  0.00732206859191824  1.0000
  C   C35       1.0  0.6916156488133609  0.1998708319362734  0.9205656530262728  1.0000
  C   C36       1.0  0.7330721796945381  0.24433746511229504  0.9258942710135756  1.0000
  C   C37       1.0  0.8038058647915134  0.30268718840456194  0.08085442248319218  1.0000
  C   C38       1.0  0.7592768744263123  0.26119755753133933  0.07548618714693599  1.0000
  C   C39       1.0  0.873951642541435  0.37757255717617977  0.9329102863936214  1.0000
  C   C40       1.0  0.8303028430771136  0.33520350505833113  0.9290657995854443  1.0000
  C   C41       1.0  0.6267695956472322  0.12030579932022079  0.0682655602866761  1.0000
  C   C42       1.0  0.6691085969085433  0.16400124131124022  0.07200470339445533  1.0000
  C   C43       1.0  0.7240008227692981  0.22779898390799502  0.9997637599755224  1.0000
  C   C44       1.0  0.7712331023147456  0.27529586285727703  0.0014408455111052172  1.0000
  C   C45       1.0  0.36966724873650486  0.8695179752394964  0.9938978558786715  1.0000
  C   C46       1.0  0.13238780994826974  0.6319849776321932  0.003194936560738952  1.0000
  C   C47       1.0  0.3815471363622647  0.8793125725571187  0.9203201609298048  1.0000
  C   C48       1.0  0.33482468090193845  0.830333320041227  0.9252183491097838  1.0000
  C   C49       1.0  0.12178555221038316  0.6201994243605072  0.07712000844389176  1.0000
  C   C50       1.0  0.1702514083007712  0.6666223111587399  0.07313070771786574  1.0000
  C   C51       1.0  0.19059895180205186  0.6903375145012732  0.9294704088337371  1.0000
  C   C52       1.0  0.237142241345765  0.7360396301050329  0.9267801133582694  1.0000
  C   C53       1.0  0.3117756393424925  0.8109797327111822  0.06804311814836687  1.0000
  C   C54       1.0  0.2658325411076418  0.7641011073708555  0.07135471365918285  1.0000
  C   C55       1.0  0.27655873176440326  0.7731871717071286  0.9988270868652761  1.0000
  C   C56       1.0  0.22787378710806638  0.7248001496325002  0.9996382139499005  1.0000
  C   C57       1.0  0.3709987752117242  0.13628055441569134  0.9957826872504896  1.0000
  C   C58       1.0  0.13381806486768966  0.36495258309730627  0.00145989312847662  1.0000
  C   C59       1.0  0.38343844965073964  0.20044027850034501  0.9218074470682467  1.0000
  C   C60       1.0  0.33372321869208577  0.24175880323708304  0.9259750286092796  1.0000
  C   C61       1.0  0.12002429840503476  0.30016767616433526  0.07564651256832639  1.0000
  C   C62       1.0  0.16617401790259115  0.25523887061988393  0.07191914347682637  1.0000
  C   C63       1.0  0.19213111352365078  0.37986359401956804  0.9280785592351889  1.0000
  C   C64       1.0  0.23707683292685988  0.33531203150512573  0.9258567000649763  1.0000
  C   C65       1.0  0.3108611027565402  0.11906806378571132  0.06934374081818362  1.0000
  C   C66       1.0  0.26350634640504467  0.16121574918383894  0.07203447036629738  1.0000
  C   C67       1.0  0.2740792255573012  0.22419675861227975  0.998996175550154  1.0000
  C   C68       1.0  0.22512591603863535  0.27154511566165235  0.9989887167172569  1.0000
  C   C69       1.0  0.6332397332899189  0.865289720436671  0.9976742757389587  1.0000
  C   C70       1.0  0.8610044012328187  0.6261596389756717  0.00806818044388548  1.0000
  C   C71       1.0  0.6874808245142389  0.8742910780612336  0.9241379011843163  1.0000
  C   C72       1.0  0.7316926387284112  0.8269341880937802  0.9292236909688115  1.0000
  C   C73       1.0  0.8020610681921878  0.6121543468734246  0.08201355023166473  1.0000
  C   C74       1.0  0.7595500975250642  0.6611514504757848  0.07745354445879138  1.0000
  C   C75       1.0  0.8740209447496667  0.6887270791887657  0.9342676441992309  1.0000
  C   C76       1.0  0.8315929206934312  0.7360618982138193  0.9311223084021022  1.0000
  C   C77       1.0  0.6262186185750308  0.8087426573204369  0.07155737176844211  1.0000
  C   C78       1.0  0.6701083608593307  0.7628510615226674  0.07508867403971922  1.0000
  C   C79       1.0  0.7247066264292953  0.7713924763467759  0.0026564322251943656  1.0000
  C   C80       1.0  0.7723933711750843  0.7226840257329813  0.003869099212003937  1.0000
  N   N1        1.0  0.9088728051582393  0.3915918875246263  0.21240775078936025  1.0000
  N   N2        1.0  0.5990736983877266  0.10871914625149512  0.7823152402917729  1.0000
  N   N3        1.0  0.09250977095916811  0.6029156763699247  0.7882366543784016  1.0000
  N   N4        1.0  0.4015751065048928  0.8922620552806817  0.21552652488107088  1.0000
  N   N5        1.0  0.016575465512857986  0.39343910722866593  0.2144836605955618  1.0000
  N   N6        1.0  0.9451477784752452  0.32066161003182714  0.377751178762303  1.0000
  N   N7        1.0  0.7064359929487409  0.10365069076615899  0.7832516086699925  1.0000
  N   N8        1.0  0.49118364375947005  0.1118176168617921  0.7828067095868647  1.0000
  N   N9        1.0  0.984415864481022  0.5979026785235887  0.7873694448004898  1.0000
  N   N10       1.0  0.05370949515608455  0.6898363846172018  0.6241426969461942  1.0000
  N   N11       1.0  0.29489653805835997  0.8974683682474449  0.21331887834283236  1.0000
  N   N12       1.0  0.5086676732333685  0.8866337232810154  0.21636309415222854  1.0000
  N   N13       1.0  0.7069876828328956  0.21965322710245513  0.8442567548677432  1.0000
  N   N14       1.0  0.7878453234667333  0.28523183557972226  0.15627983922191663  1.0000
  N   N15       1.0  0.43598270336518374  0.9353893255385156  0.8442153146223533  1.0000
  N   N16       1.0  0.06673855076661533  0.5634004905926631  0.1529711686674347  1.0000
  N   N17       1.0  0.4419177856222729  0.22412762596351138  0.847462503810263  1.0000
  N   N18       1.0  0.06466270288780147  0.28040027508276916  0.15041378933114663  1.0000
  N   N19       1.0  0.6975524987820733  0.9258260440002105  0.8492753543335285  1.0000
  N   N20       1.0  0.7844359199957507  0.5522765932994389  0.15691017503720442  1.0000
  O   O1        1.0  0.45956569002444747  0.978450736407815  0.9278158481765505  1.0000
  O   O2        1.0  0.4109298247967742  0.8966371863772479  0.06335191528913975  1.0000
  O   O3        1.0  0.3983927255607681  0.026479226614483806  0.06560150702721763  1.0000
  O   O4        1.0  0.47567065141443265  0.10725109966701041  0.9308588804973256  1.0000
  O   O5        1.0  0.5330886300805132  0.038573174680671216  0.06311478345953966  1.0000
  O   O6        1.0  0.6073534406637646  0.09302829177434553  0.9275202403283914  1.0000
  O   O7        1.0  0.5885262322753062  0.9603508456883174  0.9319786519352465  1.0000
  O   O8        1.0  0.5428465874869628  0.9057848873369353  0.06696160582814059  1.0000
  O   O9        1.0  0.04432515425558136  0.4087818136621236  0.06619870868733814  1.0000
  O   O10       1.0  0.09727645462585596  0.465657253469857  0.9297780251453104  1.0000
  O   O11       1.0  0.10232853641137742  0.5967169216592579  0.9317285912183736  1.0000
  O   O12       1.0  0.027151579729412782  0.5384693325736905  0.06782598876010584  1.0000
  O   O13       1.0  0.9647545583907656  0.5992559856079538  0.9372428445147989  1.0000
  O   O14       1.0  0.8935301476993798  0.5190476018092198  0.07375999626352588  1.0000
  O   O15       1.0  0.9095267218036155  0.3881055760675807  0.07411538770259087  1.0000
  O   O16       1.0  0.9576986631539269  0.4687866841735372  0.9386928584773386  1.0000
