data_image0
_chemical_formula_structural       Al6H68C84O34
_chemical_formula_sum              "Al6 H68 C84 O34"
_cell_length_a       12.664022127645874
_cell_length_b       12.556022463922726
_cell_length_c       28.489938356504336
_cell_angle_alpha    90.38462447154566
_cell_angle_beta     89.83928167468358
_cell_angle_gamma    59.994047228068446

_space_group_name_H-M_alt    "P 1"
_space_group_IT_number       1

loop_
  _space_group_symop_operation_xyz
  'x, y, z'

loop_
  _atom_site_type_symbol
  _atom_site_label
  _atom_site_symmetry_multiplicity
  _atom_site_fract_x
  _atom_site_fract_y
  _atom_site_fract_z
  _atom_site_occupancy
  Al  Al1       1.0  0.40595017887653734  0.1848063675532927  0.5010126984720742  1.0000
  Al  Al2       1.0  0.657019063740535  0.9253710368152565  0.49963620523625724  1.0000
  Al  Al3       1.0  0.42293768248865193  0.9207546992531587  0.4992917364845866  1.0000
  Al  Al4       1.0  0.9231424410324748  0.14623815029078457  0.9998572001404542  1.0000
  Al  Al5       1.0  0.9187439068386214  0.4044553294456321  0.9999426748880326  1.0000
  Al  Al6       1.0  0.6785852262425038  0.4110482591229143  0.0006686418642871997  1.0000
  H   H1        1.0  0.7488355973353653  0.7800290257962389  0.7855272897093215  1.0000
  H   H2        1.0  0.06691023803317361  0.0669498579517338  0.7047811219624194  1.0000
  H   H3        1.0  0.04368653289241561  0.08454594196837209  0.7861577267450244  1.0000
  H   H4        1.0  0.9542705493446063  0.24589107761197937  0.781439553965612  1.0000
  H   H5        1.0  0.24929630412233203  0.2777907388922713  0.7095329011725511  1.0000
  H   H6        1.0  0.09042874771791531  0.3544962525189348  0.7011528551026204  1.0000
  H   H7        1.0  0.36786650871086835  0.05483901391506412  0.7179960725263258  1.0000
  H   H8        1.0  0.34369805567308725  0.0673140069678837  0.7986174863504871  1.0000
  H   H9        1.0  0.0581648810339744  0.3753393914705683  0.7827287639302513  1.0000
  H   H10       1.0  0.47510552202048484  0.2490981658014633  0.7940513376744676  1.0000
  H   H11       1.0  0.8777582789748097  0.5999058386528231  0.7146962951712866  1.0000
  H   H12       1.0  0.4740264155120786  0.21169985819960851  0.7136970971318634  1.0000
  H   H13       1.0  0.7111822407137042  0.2964287135634436  0.6959486204744891  1.0000
  H   H14       1.0  0.553576671120027  0.35186861274787157  0.7026561548644139  1.0000
  H   H15       1.0  0.5732059238914858  0.3824086630701657  0.782857810047453  1.0000
  H   H16       1.0  0.7330749087168302  0.31111752967394324  0.7771126530064266  1.0000
  H   H17       1.0  0.8085638103957606  0.9639628313050964  0.7148190935840973  1.0000
  H   H18       1.0  0.8608246806400929  0.06852577077609821  0.708372013543773  1.0000
  H   H19       1.0  0.7981255385039818  0.9902411350897395  0.7972291548387886  1.0000
  H   H20       1.0  0.5676610958552929  0.08917912411551039  0.8022109317273874  1.0000
  H   H21       1.0  0.5303116700190957  0.8661472412621194  0.7319573600169208  1.0000
  H   H22       1.0  0.8661989932121584  0.08161519612204418  0.7904872361989704  1.0000
  H   H23       1.0  0.4855720182051898  0.7441538582732363  0.2021892775198353  1.0000
  H   H24       1.0  0.4703249408115938  0.760873629697599  0.2835495649659023  1.0000
  H   H25       1.0  0.7788599438272927  0.48079116512338504  0.29797638661683834  1.0000
  H   H26       1.0  0.6206020485407963  0.5318399564306446  0.298149558516279  1.0000
  H   H27       1.0  0.6196402007378271  0.5184421196670357  0.21641960561726145  1.0000
  H   H28       1.0  0.7800017254414586  0.451473159317608  0.21702620589960733  1.0000
  H   H29       1.0  0.7451331940137044  0.7920116548866857  0.2832118914865093  1.0000
  H   H30       1.0  0.7817892231980115  0.7478455575262615  0.20380089273020735  1.0000
  H   H31       1.0  0.47809418662042474  0.7035316200215859  0.7798985157510574  1.0000
  H   H32       1.0  0.5238943906526856  0.8663149843307354  0.2811955042728087  1.0000
  H   H33       1.0  0.5492059408977714  0.841444240956349  0.20049141126725806  1.0000
  H   H34       1.0  0.26481137192843823  0.25529054087543557  0.207250970603944  1.0000
  H   H35       1.0  0.29937580121817586  0.22503508653089452  0.2881476380713011  1.0000
  H   H36       1.0  0.06760929735261814  0.3542978670272774  0.30094981417066446  1.0000
  H   H37       1.0  0.037678641217340283  0.3767819033550097  0.2201145249711516  1.0000
  H   H38       1.0  0.95272392681202  0.3002849573130248  0.222356230862772  1.0000
  H   H39       1.0  0.6082267959809472  0.5215476147735386  0.7098260743164817  1.0000
  H   H40       1.0  0.0713550094851598  0.062274204643245  0.2917099675719257  1.0000
  H   H41       1.0  0.22299211862632265  0.9814696465701473  0.2061366628560606  1.0000
  H   H42       1.0  0.3686715550536306  0.0647717268297399  0.27957564793065615  1.0000
  H   H43       1.0  0.06209788676466131  0.06392930542418897  0.21010049258536873  1.0000
  H   H44       1.0  0.7574741391710945  0.9920094625956324  0.19978943575271302  1.0000
  H   H45       1.0  0.77852021638185  0.9711078029561901  0.28074566098236897  1.0000
  H   H46       1.0  0.8575418748432996  0.11218335228968358  0.2963486530679873  1.0000
  H   H47       1.0  0.8597054130106657  0.1191362601818682  0.2139408362426352  1.0000
  H   H48       1.0  0.8252689532170051  0.43519359048809747  0.7629620932878043  1.0000
  H   H49       1.0  0.7716777909559839  0.280867306584561  0.21830931723529556  1.0000
  H   H50       1.0  0.4676354939113737  0.29805248645119065  0.2109350658476217  1.0000
  H   H51       1.0  0.5967085487653493  0.06324751395026598  0.2051249501138841  1.0000
  H   H52       1.0  0.5405899383125927  0.3839279748985334  0.2231173483867437  1.0000
  H   H53       1.0  0.2678959886256467  0.981079729287217  0.7952101597748469  1.0000
  H   H54       1.0  0.9800766915330003  0.22876963254591226  0.6993492312158696  1.0000
  H   H55       1.0  0.2168868332424766  0.3042051141236115  0.7909436350528412  1.0000
  H   H56       1.0  0.6405283970132772  0.9630624743417467  0.7341257715532308  1.0000
  H   H57       1.0  0.8767763773757483  0.6338852777640652  0.33081552764216593  1.0000
  H   H58       1.0  0.8742698464595906  0.5892669586282153  0.21577964773607053  1.0000
  H   H59       1.0  0.9810564962884315  0.2797917046115471  0.3034525998787601  1.0000
  H   H60       1.0  0.26406665086355474  0.925872989510083  0.3204822267325511  1.0000
  H   H61       1.0  0.3400358220421679  0.09395993447996892  0.1991050691372322  1.0000
  H   H62       1.0  0.755270324990491  0.2725608992981848  0.29976647943630763  1.0000
  H   H63       1.0  0.4711481661155263  0.25188425909271217  0.28988299916058224  1.0000
  H   H64       1.0  0.5050256788041593  0.3764845192526779  0.33859808663514473  1.0000
  H   H65       1.0  0.5993089183025974  0.0077147743699655  0.3192129954093233  1.0000
  H   H66       1.0  0.3155716742209907  0.9234049558078039  0.6806271860110514  1.0000
  H   H67       1.0  0.3086926647428001  0.38596169909877887  0.4721561727472975  1.0000
  H   H68       1.0  0.03044034320012683  0.9451752948976732  0.028318661497202406  1.0000
  C   C1        1.0  0.6159280721963469  0.10297460247208792  0.5669301608466384  1.0000
  C   C2        1.0  0.6410148093387635  0.7241827059796863  0.6096513934472227  1.0000
  C   C3        1.0  0.7596020104659973  0.5314062281352462  0.7555561102694102  1.0000
  C   C4        1.0  0.6874197065484186  0.6318019896997172  0.7953564462006572  1.0000
  C   C5        1.0  0.6391944167381142  0.5789078397558924  0.7270735212679187  1.0000
  C   C6        1.0  0.6688353498826064  0.6705141460436934  0.6997175708859231  1.0000
  C   C7        1.0  0.5672089947643786  0.6795886277924768  0.7653302289897682  1.0000
  C   C8        1.0  0.5965371249376831  0.7707583204730069  0.7395752372127333  1.0000
  C   C9        1.0  0.6997132974614574  0.6100172292971423  0.8442859863790845  1.0000
  C   C10       1.0  0.6549344903354354  0.6969479224432931  0.6511579382946806  1.0000
  C   C11       1.0  0.28697265579946674  0.0487675505643139  0.7281074365271893  1.0000
  C   C12       1.0  0.6148188568595433  0.7779586697649774  0.5638945839567882  1.0000
  C   C13       1.0  0.05827159282150523  0.1537272165667076  0.7173904028342974  1.0000
  C   C14       1.0  0.04205246112826443  0.1657892979212932  0.7712819625901872  1.0000
  C   C15       1.0  0.10368674301356151  0.20503296047935754  0.8863533548258219  1.0000
  C   C16       1.0  0.17476002739294222  0.1562971488687452  0.703225860202693  1.0000
  C   C17       1.0  0.268328174856471  0.0625770239676484  0.7816589241735914  1.0000
  C   C18       1.0  0.14599201416152144  0.17901789872396276  0.7942034340298889  1.0000
  C   C19       1.0  0.1454531545642795  0.2931445507714657  0.7736759842811978  1.0000
  C   C20       1.0  0.165472064146016  0.2782207443633951  0.7199664176151614  1.0000
  C   C21       1.0  0.1264260308117359  0.19203699361202806  0.8445683945809392  1.0000
  C   C22       1.0  0.19732456224532063  0.1391059973887039  0.6531643735360577  1.0000
  C   C23       1.0  0.2796112101912485  0.09474823927655508  0.565794453297535  1.0000
  C   C24       1.0  0.22576713181371846  0.11907381270460599  0.6119114588502442  1.0000
  C   C25       1.0  0.5604204996606231  0.1432242333230391  0.7295642750018347  1.0000
  C   C26       1.0  0.6438769801279066  0.28383140750418084  0.715869241713783  1.0000
  C   C27       1.0  0.6543015375166306  0.3000447640200293  0.7691820043353276  1.0000
  C   C28       1.0  0.6811803310534756  0.21611493301668364  0.887609149860353  1.0000
  C   C29       1.0  0.6650488517212949  0.15359033523144214  0.7048397115411689  1.0000
  C   C30       1.0  0.560762405399352  0.16783954710565746  0.7828032469136375  1.0000
  C   C31       1.0  0.6691791923314414  0.18591020673311934  0.7956121882380671  1.0000
  C   C32       1.0  0.7891423254094933  0.0712987749286285  0.7790355067764949  1.0000
  C   C33       1.0  0.7893029475003459  0.056539468889312196  0.7251405124459183  1.0000
  C   C34       1.0  0.6228634744829052  0.10137268792923493  0.4341091280550701  1.0000
  C   C35       1.0  0.6728866177185678  0.203192747181113  0.8457675192828162  1.0000
  C   C36       1.0  0.658421563597969  0.13714544010305474  0.6547773999228  1.0000
  C   C37       1.0  0.6467258928372673  0.12439726935130582  0.613170264507204  1.0000
  C   C38       1.0  0.5449892300788337  0.7735148619813758  0.2708380489325748  1.0000
  C   C39       1.0  0.6911455988208602  0.5472244165986809  0.28251245819409837  1.0000
  C   C40       1.0  0.6943916694911821  0.5320263539387398  0.22849631097573564  1.0000
  C   C41       1.0  0.7053249311850748  0.6043704391689458  0.11149550200640591  1.0000
  C   C42       1.0  0.6646743997815823  0.6783349514540974  0.295064901031168  1.0000
  C   C43       1.0  0.5575515910836872  0.7586220677608891  0.21688383220094215  1.0000
  C   C44       1.0  0.6833561474185718  0.6471354920009202  0.2038960184963443  1.0000
  C   C45       1.0  0.6131203878553041  0.778296564325949  0.4336808676629076  1.0000
  C   C46       1.0  0.7845872174885575  0.670496322728745  0.22266350058281156  1.0000
  C   C47       1.0  0.7704406954492458  0.6958510504883934  0.27589476852585193  1.0000
  C   C48       1.0  0.6950683478500185  0.6257673160575407  0.15350303134881224  1.0000
  C   C49       1.0  0.652481317326931  0.7009331415550193  0.3453821925714848  1.0000
  C   C50       1.0  0.6410387583358099  0.7259658025203423  0.3871874044683922  1.0000
  C   C51       1.0  0.2866240968970574  0.15253137998099217  0.2721030406405589  1.0000
  C   C52       1.0  0.059092330218220565  0.27836682310697813  0.2858207915407435  1.0000
  C   C53       1.0  0.03984294025812573  0.292868718399184  0.23218208868325263  1.0000
  C   C54       1.0  0.10018879018610252  0.21015839222647514  0.11398970564640362  1.0000
  C   C55       1.0  0.17551694757435138  0.15500989802058024  0.2963141607450411  1.0000
  C   C56       1.0  0.28278142255594935  0.09601593409610132  0.43298027415389845  1.0000
  C   C57       1.0  0.2663570847417773  0.17113527867270764  0.2187025947678336  1.0000
  C   C58       1.0  0.14352826080581596  0.18047943408907938  0.20578865182477563  1.0000
  C   C59       1.0  0.14498364395815602  0.06247137093562572  0.22222350303228214  1.0000
  C   C60       1.0  0.15642049168557298  0.05054936842139309  0.2759024793528013  1.0000
  C   C61       1.0  0.12240038627881943  0.19609789918448683  0.15568236460079996  1.0000
  C   C62       1.0  0.19955196268266212  0.1373424067812294  0.3461494918240576  1.0000
  C   C63       1.0  0.22838231992124491  0.11791436722852208  0.3872353899573326  1.0000
  C   C64       1.0  0.6864816997317434  0.0456772631323616  0.2712756274471744  1.0000
  C   C65       1.0  0.7713085083018073  0.1870364794565589  0.28274061081049956  1.0000
  C   C66       1.0  0.7752783724651949  0.19527837123080616  0.22877553877827245  1.0000
  C   C67       1.0  0.7892287737988256  0.6226975807278735  0.7296640165585445  1.0000
  C   C68       1.0  0.6793943973845842  0.22006379399773826  0.11458178922853793  1.0000
  C   C69       1.0  0.666669649894459  0.16436291551775636  0.29711108006817716  1.0000
  C   C70       1.0  0.6772659516288045  0.0656520765758444  0.2179339876923692  1.0000
  C   C71       1.0  0.6654716579702226  0.19137493749879303  0.20646641782377637  1.0000
  C   C72       1.0  0.5461536993111056  0.29476448589399235  0.2285758379280622  1.0000
  C   C73       1.0  0.5421800012420518  0.275074328386971  0.28155277434545667  1.0000
  C   C74       1.0  0.6690388235388413  0.20691278034529867  0.1562164080091009  1.0000
  C   C75       1.0  0.6633440401184956  0.14618692377235482  0.3471076292917914  1.0000
  C   C76       1.0  0.6522101380809107  0.1272172573074215  0.38814622764234497  1.0000
  C   C77       1.0  0.053600848052632044  0.22625359561228459  0.9331159737159923  1.0000
  C   C78       1.0  0.7171760761698209  0.7233946446584838  0.7679109395060666  1.0000
  C   C79       1.0  0.7337548670286935  0.5456423528015436  0.9336825975636316  1.0000
  C   C80       1.0  0.7090876267314457  0.23672564843347033  0.9345361356163764  1.0000
  C   C81       1.0  0.05229571346296074  0.23180151599179777  0.06712775128544732  1.0000
  C   C82       1.0  0.7279111601904518  0.5546327818942983  0.06465671544211922  1.0000
  C   C83       1.0  0.7106869648299183  0.23900999234709985  0.0679859887380019  1.0000
  C   C84       1.0  0.7107975799517517  0.5905557543379771  0.8864004644483787  1.0000
  O   O1        1.0  0.30012664445202125  0.17487239741385707  0.5485350452560382  1.0000
  O   O2        1.0  0.68991340443894  0.8024206092984444  0.45308494792852383  1.0000
  O   O3        1.0  0.5101962691346885  0.8028946069489464  0.4513433384015998  1.0000
  O   O4        1.0  0.3030259139774999  0.9966517565392721  0.4538446803159459  1.0000
  O   O5        1.0  0.4964156611521063  0.0085560185807267  0.4993529955988123  1.0000
  O   O6        1.0  0.8090635475330004  0.15605972923174963  0.951408020624335  1.0000
  O   O7        1.0  0.022549963963221842  0.15159349323140958  0.9480954792443015  1.0000
  O   O8        1.0  0.03974390520673415  0.32305865376118  0.9548572235789055  1.0000
  O   O9        1.0  0.8363433678912245  0.5200680017771973  0.951502389384224  1.0000
  O   O10       1.0  0.6526670358852513  0.5288407504751831  0.9535857884952534  1.0000
  O   O11       1.0  0.6312877118231485  0.33939652428663436  0.954291875654711  1.0000
  O   O12       1.0  0.5105820554102821  0.1781331259498558  0.552351212544032  1.0000
  O   O13       1.0  0.8138912328443625  0.1592670988862466  0.05233734695793401  1.0000
  O   O14       1.0  0.030117159679967625  0.152707984286657  0.04935929701235151  1.0000
  O   O15       1.0  0.03103259426482912  0.33350543560962365  0.048025926159454  1.0000
  O   O16       1.0  0.8283152117114058  0.5306582754854786  0.04488459450666231  1.0000
  O   O17       1.0  0.6483444493699082  0.5317939166084997  0.0469982245651508  1.0000
  O   O18       1.0  0.6329075663868907  0.3385515323947459  0.04725871108753671  1.0000
  O   O19       1.0  0.8390662095935826  0.32268501578022313  0.0003598106324815997  1.0000
  O   O20       1.0  0.6970180882898802  0.0057472171517929  0.5449418709610755  1.0000
  O   O21       1.0  0.6905977106772601  0.8066191163243841  0.5464079357510201  1.0000
  O   O22       1.0  0.5151424758258399  0.7988554232180576  0.5445595568520218  1.0000
  O   O23       1.0  0.30710381081964067  0.9901008841098715  0.5469311123247422  1.0000
  O   O24       1.0  0.3106131018669629  0.17358502515673277  0.4479778350280555  1.0000
  O   O25       1.0  0.5213366694188367  0.17952715485513687  0.4514675596029321  1.0000
  O   O26       1.0  0.7008670693722507  0.9975246042029723  0.4520336625125837  1.0000
  O   O27       1.0  0.5668613017777346  0.028357170486557896  0.7198643535913973  1.0000
  O   O28       1.0  0.8848576780133827  0.614083059134785  0.2973340097779271  1.0000
  O   O29       1.0  0.25497624234054683  0.9309290746818562  0.28637771218460983  1.0000
  O   O30       1.0  0.5163289929000001  0.38636402773750694  0.3053280511601955  1.0000
  O   O31       1.0  0.5976269307676035  0.012964304042732501  0.284958646990404  1.0000
  O   O32       1.0  0.30401951472246946  0.931074565057216  0.7146733817285453  1.0000
  O   O33       1.0  0.3239477551403809  0.34568654486170663  0.5021708487396951  1.0000
  O   O34       1.0  0.9990565571525495  0.985392994928141  0.998657809968201  1.0000
