data_image0
_chemical_formula_structural       In2H50C76N4O16
_chemical_formula_sum              "In2 H50 C76 N4 O16"
_cell_length_a       9.810339691867686
_cell_length_b       12.866478539991752
_cell_length_c       13.2297
_cell_angle_alpha    82.41281264946979
_cell_angle_beta     85.40763270907813
_cell_angle_gamma    80.52578591801849

_space_group_name_H-M_alt    "P 1"
_space_group_IT_number       1

loop_
  _space_group_symop_operation_xyz
  'x, y, z'

loop_
  _atom_site_type_symbol
  _atom_site_label
  _atom_site_symmetry_multiplicity
  _atom_site_fract_x
  _atom_site_fract_y
  _atom_site_fract_z
  _atom_site_occupancy
  In  In1       1.0  0.36914937132422665  0.7317272555035146  0.446322113786458  1.0000
  In  In2       1.0  0.6308452837815963  0.26825413949736543  0.5536822555392149  1.0000
  H   H1        1.0  0.2183279636256897  0.9102267845883674  0.5819659809213462  1.0000
  H   H2        1.0  0.7816729899664664  0.0897688985031735  0.41803693559491967  1.0000
  H   H3        1.0  0.2709576433761072  0.0097762291446202  0.7219809369043588  1.0000
  H   H4        1.0  0.7290545047253332  0.9902146912500316  0.278022682421188  1.0000
  H   H5        1.0  0.5229895593494192  0.005460431981639101  0.7550207450585094  1.0000
  H   H6        1.0  0.4770236656317266  0.9945352511099017  0.24497312825334214  1.0000
  H   H7        1.0  0.7034402255923524  0.9065515701567648  0.6487497701267416  1.0000
  H   H8        1.0  0.2965665951743119  0.0934504631972928  0.3512330857312804  1.0000
  H   H9        1.0  0.8432900914515287  0.8277329055810014  0.554792247896934  1.0000
  H   H10       1.0  0.1567065574216073  0.17227389046993843  0.445196647312244  1.0000
  H   H11       1.0  0.006012537925634813  0.7246951335489697  0.43748756658082755  1.0000
  H   H12       1.0  0.9939859947870318  0.2753124562847944  0.5625056501015138  1.0000
  H   H13       1.0  0.9075688111996669  0.6346412670153541  0.3083897544117066  1.0000
  H   H14       1.0  0.0924320895284225  0.3653647352527827  0.6916050372853491  1.0000
  H   H15       1.0  0.6492166919538676  0.6493151361260561  0.30691285754679853  1.0000
  H   H16       1.0  0.35078824497326627  0.3506861034451845  0.6930777708386769  1.0000
  H   H17       1.0  0.03939622856008639  0.0465037661933749  0.4189545935949681  1.0000
  H   H18       1.0  0.9605964912420148  0.9535022360747547  0.5810489984468463  1.0000
  H   H19       1.0  0.9129935646402174  0.2124186625355478  0.327675152852649  1.0000
  H   H20       1.0  0.0869996393377832  0.7875849583841372  0.6723272044807871  1.0000
  H   H21       1.0  0.9181137992176929  0.2350065463078224  0.13754728787757395  1.0000
  H   H22       1.0  0.0818755828173039  0.7649907243493459  0.8624561118083065  1.0000
  H   H23       1.0  0.0372259025442361  0.090438851198698  0.04108637663001252  1.0000
  H   H24       1.0  0.9627692924013118  0.9095600070241048  0.9589202534470972  1.0000
  H   H25       1.0  0.07189579972036601  0.78794612956478  0.204721751445561  1.0000
  H   H26       1.0  0.928097565649601  0.2120566975720877  0.7952806982351107  1.0000
  H   H27       1.0  0.16284506239494329  0.6426672050537761  0.09950353561656299  1.0000
  H   H28       1.0  0.8371479801910907  0.35733720964872623  0.9004941941194105  1.0000
  H   H29       1.0  0.3159440399731678  0.6774412425957976  0.9438189416713101  1.0000
  H   H30       1.0  0.6840575063227874  0.32256158454107725  0.05618302229002841  1.0000
  H   H31       1.0  0.3851187228238259  0.85721955579497  0.8978196819169356  1.0000
  H   H32       1.0  0.6148879365508719  0.1427832713418979  0.10218197846982242  1.0000
  H   H33       1.0  0.8969566444720058  0.5140442253415358  0.6488962292223945  1.0000
  H   H34       1.0  0.10304420199214091  0.4859570142297116  0.3511082477734391  1.0000
  H   H35       1.0  0.9291150271646628  0.6760814926343883  0.7247723176975074  1.0000
  H   H36       1.0  0.07088172883648267  0.3239197469368591  0.2752293786578406  1.0000
  H   H37       1.0  0.7360433788197369  0.7663361862200944  0.8319694942766206  1.0000
  H   H38       1.0  0.2639550453650301  0.23366187821989123  0.16803326662778068  1.0000
  H   H39       1.0  0.5153691888031204  0.6949203401733045  0.86143025986393  1.0000
  H   H40       1.0  0.4846311192211772  0.3050785180494984  0.1385700196382942  1.0000
  H   H41       1.0  0.510984486125153  0.4369314000343536  0.9393089242316323  1.0000
  H   H42       1.0  0.489017758602742  0.5630579327946705  0.06069095168731311  1.0000
  H   H43       1.0  0.2810585170272049  0.3891504372922867  0.9988418449471865  1.0000
  H   H44       1.0  0.7189428122129584  0.610833339057038  0.0011519959568743942  1.0000
  H   H45       1.0  0.0777414737682989  0.4553828815597427  0.8918351497413611  1.0000
  H   H46       1.0  0.9222569504164679  0.5446151828802428  0.10816307591280613  1.0000
  H   H47       1.0  0.11296988643869098  0.5655543797465938  0.7242929652954972  1.0000
  H   H48       1.0  0.887031714121221  0.4344532100871704  0.2757106514926448  1.0000
  H   H49       1.0  0.3745212232212083  0.12400713264533891  0.8935574141949021  1.0000
  H   H50       1.0  0.6254704739651444  0.8759988696227907  0.1064454826867873  1.0000
  C   C1        1.0  0.20420480091357965  0.89016789286341  0.34172998856418246  1.0000
  C   C2        1.0  0.7957921164795322  0.1098325529250204  0.6582755795135926  1.0000
  C   C3        1.0  0.6754997175721513  0.4199571483269295  0.6620028225284927  1.0000
  C   C4        1.0  0.3245082329382782  0.5800393285474216  0.337999576636129  1.0000
  C   C5        1.0  0.3412878782325066  0.6238291512976774  0.6342828541910706  1.0000
  C   C6        1.0  0.658712107007851  0.3761712944907529  0.3657210199918737  1.0000
  C   C7        1.0  0.3239898870345074  0.9118556269239237  0.6001536935568837  1.0000
  C   C8        1.0  0.6760104209897903  0.08814323129887211  0.3998435624451844  1.0000
  C   C9        1.0  0.3543875318894507  0.9671037046029414  0.6770282054272272  1.0000
  C   C10       1.0  0.6456223024605166  0.0328935660542342  0.3229671770849762  1.0000
  C   C11       1.0  0.4929628236227472  0.9646310711354574  0.6953190962473529  1.0000
  C   C12       1.0  0.5070442656639003  0.0353646119560835  0.3046766531040675  1.0000
  C   C13       1.0  0.5951516524239864  0.908612230343465  0.6353849455606736  1.0000
  C   C14       1.0  0.4048553297346515  0.09138900922777542  0.3646070731450451  1.0000
  C   C15       1.0  0.5575602960873098  0.8546699253944754  0.5594236979577758  1.0000
  C   C16       1.0  0.4424418957765113  0.1453297266111377  0.4405680531419521  1.0000
  C   C17       1.0  0.6603026731421906  0.7939066447196197  0.49233331243453193  1.0000
  C   C18       1.0  0.3396991959377047  0.2060945948516277  0.5076559863456184  1.0000
  C   C19       1.0  0.8030740504214435  0.7882136343732996  0.4986144768511664  1.0000
  C   C20       1.0  0.19692954110600877  0.21178919276356825  0.5013767834297981  1.0000
  C   C21       1.0  0.8946029356078286  0.7306516797897303  0.43281054873403957  1.0000
  C   C22       1.0  0.10539828790419391  0.269352734912772  0.5671798924072462  1.0000
  C   C23       1.0  0.8403370276500369  0.680827520082886  0.3613105862980532  1.0000
  C   C24       1.0  0.15966559552562393  0.3191800697508782  0.6386778522743982  1.0000
  C   C25       1.0  0.6970542562922262  0.6890709546125109  0.3592388121973968  1.0000
  C   C26       1.0  0.3029517032506561  0.3109302849587365  0.6407532672232393  1.0000
  C   C27       1.0  0.11691498888323783  0.9791279266785085  0.2815620928317415  1.0000
  C   C28       1.0  0.8830802603262596  0.0208756942411767  0.7184461900721717  1.0000
  C   C29       1.0  0.0409893273300312  0.058369231706024  0.33571320076652006  1.0000
  C   C30       1.0  0.9590009701926901  0.9416335954308508  0.6642901869339397  1.0000
  C   C31       1.0  0.9709615009735302  0.1508870000961551  0.284744392449106  1.0000
  C   C32       1.0  0.02903477085171601  0.84911662082353  0.7152592944896556  1.0000
  C   C33       1.0  0.9730059853334725  0.16313268757700433  0.1782242796200393  1.0000
  C   C34       1.0  0.0269856033249809  0.8368637892973539  0.8217783351082064  1.0000
  C   C35       1.0  0.0420543848844943  0.082468477957292  0.1239157369644133  1.0000
  C   C36       1.0  0.9579430166845242  0.9175295864826936  0.876090864030097  1.0000
  C   C37       1.0  0.1158843819631841  0.989870189508494  0.17416134486132512  1.0000
  C   C38       1.0  0.8841156575411303  0.010135018976818302  0.8258434262733874  1.0000
  C   C39       1.0  0.1804108510171645  0.9035502773347588  0.11381592304768873  1.0000
  C   C40       1.0  0.8195888114392603  0.0964517560192988  0.8861900340659048  1.0000
  C   C41       1.0  0.14245638078604375  0.8023001042012013  0.13816858010585523  1.0000
  C   C42       1.0  0.8575383842475547  0.19770589806692843  0.8618333787560531  1.0000
  C   C43       1.0  0.19232198228326775  0.7211739129833958  0.07848323011419471  1.0000
  C   C44       1.0  0.8076763347734824  0.2788297079362891  0.9215150442694624  1.0000
  C   C45       1.0  0.2792846105076379  0.7406414365114743  0.9914616865703396  1.0000
  C   C46       1.0  0.7207157517806095  0.2593621844082108  0.008540245758681004  1.0000
  C   C47       1.0  0.31684782188992233  0.8410144796349004  0.9651027415535368  1.0000
  C   C48       1.0  0.683159860100524  0.1589883475019747  0.034901125743417125  1.0000
  C   C49       1.0  0.26961998751927746  0.9222541817951965  0.026443099772301092  1.0000
  C   C50       1.0  0.7303854878477053  0.0777494391244957  0.9735630642323729  1.0000
  C   C51       1.0  0.3232059123116358  0.0251930789697923  0.003245799679468999  1.0000
  C   C52       1.0  0.6767922433531481  0.9748113357327102  0.9967554058571082  1.0000
  C   C53       1.0  0.6905254779654298  0.5125495323016409  0.7144809321531015  1.0000
  C   C54       1.0  0.3094746686669012  0.487450119703972  0.28552605787723456  1.0000
  C   C55       1.0  0.8153783873514158  0.5534666550458525  0.6979499547199454  1.0000
  C   C56       1.0  0.18461686185808193  0.4465369658738326  0.30205076943357784  1.0000
  C   C57       1.0  0.8326937498145668  0.6439467829509127  0.7396840504670834  1.0000
  C   C58       1.0  0.1673069352576064  0.3560552504031449  0.26031882243144383  1.0000
  C   C59       1.0  0.7246323295048356  0.6949798738843924  0.7990847560441878  1.0000
  C   C60       1.0  0.27536577189599853  0.3050197781212205  0.20091404079055053  1.0000
  C   C61       1.0  0.6000609611651129  0.6546295120698035  0.8157129412998358  1.0000
  C   C62       1.0  0.39993762441161346  0.3453677585873649  0.1842884002017229  1.0000
  C   C63       1.0  0.5804979698168964  0.5638572720889741  0.7740817734321512  1.0000
  C   C64       1.0  0.4195020154234683  0.436143173699449  0.2259198331256798  1.0000
  C   C65       1.0  0.3293848478477557  0.5623816298366364  0.737775597488195  1.0000
  C   C66       1.0  0.6706125537212628  0.4376164346033491  0.2622302476312798  1.0000
  C   C67       1.0  0.44354833380385394  0.5271106842526763  0.7986731522342582  1.0000
  C   C68       1.0  0.5564524583963362  0.47288579262168184  0.20132740430965876  1.0000
  C   C69       1.0  0.4230650391841592  0.4647201488078849  0.8922020720533086  1.0000
  C   C70       1.0  0.5769377439835849  0.5352715653695839  0.10779671023397701  1.0000
  C   C71       1.0  0.293389847729344  0.4376878750566676  0.9256177785350703  1.0000
  C   C72       1.0  0.7066083065355572  0.5623014577723566  0.07438007261841761  1.0000
  C   C73       1.0  0.18005059106067725  0.4747091117468188  0.8660232884570364  1.0000
  C   C74       1.0  0.8199535917706982  0.5252857775619049  0.13397727063659914  1.0000
  C   C75       1.0  0.1988968028619951  0.5367067246983765  0.7729224505022503  1.0000
  C   C76       1.0  0.8011033437703359  0.4632929273072364  0.22707698077769584  1.0000
  N   N1        1.0  0.4227245970876652  0.8565043574790181  0.5439504696853845  1.0000
  N   N2        1.0  0.5772743112729941  0.1434913256125228  0.4560465212604043  1.0000
  N   N3        1.0  0.6094831917133803  0.7440412083064132  0.42340431052316063  1.0000
  N   N4        1.0  0.39052034555012943  0.2559568561335723  0.5765898321812345  1.0000
  O   O1        1.0  0.1618248700705465  0.857810923991849  0.4321936535854008  1.0000
  O   O2        1.0  0.8381597216696333  0.1421847590996919  0.5678117461196095  1.0000
  O   O3        1.0  0.3230644073873775  0.8508367481827648  0.3039411683803621  1.0000
  O   O4        1.0  0.676932025829835  0.1491660789541029  0.6960671461558691  1.0000
  O   O5        1.0  0.5597397815413743  0.38522200614282553  0.6697834581611418  1.0000
  O   O6        1.0  0.4402559532438985  0.614794315301893  0.3301936859157806  1.0000
  O   O7        1.0  0.7769885295842229  0.3771738421855915  0.6072105139804266  1.0000
  O   O8        1.0  0.22303029125168183  0.6228043776840266  0.3928147486672274  1.0000
  O   O9        1.0  0.4562611822447594  0.6148030469128543  0.5806727930227069  1.0000
  O   O10       1.0  0.5437358422763765  0.3851918423958693  0.41932289995007477  1.0000
  O   O11       1.0  0.2346031084789857  0.684080442057116  0.5992897786063196  1.0000
  O   O12       1.0  0.7653952085777574  0.3159231788625689  0.40071756627780536  1.0000
  O   O13       1.0  0.3615639617572768  0.0739210246096746  0.0664936863802836  1.0000
  O   O14       1.0  0.6384327413798017  0.9260905341381547  0.9335127350315063  1.0000
  O   O15       1.0  0.3291783687455805  0.0606045241119375  0.9014499189528352  1.0000
  O   O16       1.0  0.6708277521892755  0.9393959216764927  0.09855359094061814  1.0000
