data_image0
_chemical_formula_structural       Nd2Zn2H24C30N2O22
_chemical_formula_sum              "Nd2 Zn2 H24 C30 N2 O22"
_cell_length_a       7.737067367858618
_cell_length_b       10.599305311302905
_cell_length_c       11.725528734868078
_cell_angle_alpha    71.71351973837662
_cell_angle_beta     74.765642294853
_cell_angle_gamma    80.10280617151848

_space_group_name_H-M_alt    "P 1"
_space_group_IT_number       1

loop_
  _space_group_symop_operation_xyz
  'x, y, z'

loop_
  _atom_site_type_symbol
  _atom_site_label
  _atom_site_symmetry_multiplicity
  _atom_site_fract_x
  _atom_site_fract_y
  _atom_site_fract_z
  _atom_site_occupancy
  Nd  Nd1       1.0  0.8873377214758237  0.949612478557242  0.18504173921569134  1.0000
  Nd  Nd2       1.0  0.1126641152053978  0.0503862483444948  0.8149586215758121  1.0000
  Zn  Zn1       1.0  0.8486878139855351  0.7441878171896336  0.9628386488899424  1.0000
  Zn  Zn2       1.0  0.1513098933293477  0.25581189922011305  0.03716387513298259  1.0000
  H   H1        1.0  0.7750824638721313  0.9711641173851716  0.9749629988887565  1.0000
  H   H2        1.0  0.2249215252811041  0.0288386063313979  0.025036697749982295  1.0000
  H   H3        1.0  0.9596038337882292  0.736370722624642  0.4522808562696809  1.0000
  H   H4        1.0  0.0403972421966898  0.2636339900205584  0.54772135599206  1.0000
  H   H5        1.0  0.7809324124803112  0.8369729926375625  0.4598964331064224  1.0000
  H   H6        1.0  0.21906965501653988  0.16303372717647593  0.5400990632095883  1.0000
  H   H7        1.0  0.17415493613896157  0.9179393760988649  0.33653651816624824  1.0000
  H   H8        1.0  0.8258438530601921  0.08206233813420741  0.6634660993715827  1.0000
  H   H9        1.0  0.27664323309033984  0.0113388274414703  0.20985913588626207  1.0000
  H   H10       1.0  0.723356895324052  0.9886628889777077  0.7901432417372617  1.0000
  H   H11       1.0  0.4476008588133099  0.6090517803882634  0.3248269073889888  1.0000
  H   H12       1.0  0.5524020258625626  0.3909489478413661  0.6751709933696831  1.0000
  H   H13       1.0  0.21257108345754713  0.47055596180818804  0.4790921382275712  1.0000
  H   H14       1.0  0.7874274810555092  0.5294467601731159  0.5209034109729417  1.0000
  H   H15       1.0  0.044118145894785195  0.5399679164071145  0.6660200428455312  1.0000
  H   H16       1.0  0.955880127397691  0.4600368047159691  0.3339732862364641  1.0000
  H   H17       1.0  0.3458024107747947  0.8824172579661466  0.5439691815894607  1.0000
  H   H18       1.0  0.6542017013956496  0.11758446851590783  0.45602992274337584  1.0000
  H   H19       1.0  0.2421533138233016  0.41783479158798537  0.224814544455981  1.0000
  H   H20       1.0  0.7578506792521794  0.5821579459154337  0.775187980863869  1.0000
  H   H21       1.0  0.5565559080879438  0.3246047119581945  0.24720478878933252  1.0000
  H   H22       1.0  0.44344721132578957  0.6753940229706005  0.7527910761749582  1.0000
  H   H23       1.0  0.8073880047163796  0.4741923162391899  0.13989903680891302  1.0000
  H   H24       1.0  0.19261020596385942  0.5258034100643201  0.8601019691730017  1.0000
  C   C1        1.0  0.5550044223141269  0.8346107084215647  0.33315264050357735  1.0000
  C   C2        1.0  0.44499746960503467  0.16538702825479856  0.6668420208865555  1.0000
  C   C3        1.0  0.40951206615000046  0.7542130421269777  0.4241209562379282  1.0000
  C   C4        1.0  0.5904876254335106  0.24579167300488083  0.5758780912078124  1.0000
  C   C5        1.0  0.37112352268434284  0.6384034861030372  0.40609756259788554  1.0000
  C   C6        1.0  0.6288715727345603  0.3615952345409427  0.5939005930348742  1.0000
  C   C7        1.0  0.2389604990624789  0.5622803945980124  0.492263673849962  1.0000
  C   C8        1.0  0.7610387218005242  0.4377273227511012  0.5077294898702576  1.0000
  C   C9        1.0  0.14333887029727774  0.6015098802734188  0.596618467796894  1.0000
  C   C10       1.0  0.8566585119073834  0.3984918387826895  0.4033792825597758  1.0000
  C   C11       1.0  0.1799579551637223  0.7182783169344021  0.6146172725256848  1.0000
  C   C12       1.0  0.8200414339026665  0.2817283985074397  0.3853787036189543  1.0000
  C   C13       1.0  0.08431263690537352  0.7624580057016387  0.7268521379855245  1.0000
  C   C14       1.0  0.9156813879257937  0.23753871595082643  0.2731467753149134  1.0000
  C   C15       1.0  0.31416595406778913  0.7935386542094424  0.5285365967555506  1.0000
  C   C16       1.0  0.6858331364037085  0.20646007532923252  0.4714591367691057  1.0000
  C   C17       1.0  0.4597236484717796  0.8190818716931858  0.9535455680635252  1.0000
  C   C18       1.0  0.5402726305003043  0.18091883626040337  0.04646034172735373  1.0000
  C   C19       1.0  0.4717407764180237  0.6835366654072601  0.04733125097887132  1.0000
  C   C20       1.0  0.5282601013961283  0.31645906643663585  0.9526684239918239  1.0000
  C   C21       1.0  0.3229142538668057  0.6113370659325099  0.11085598477834675  1.0000
  C   C22       1.0  0.6770840911271776  0.38865766196828844  0.8891452800802426  1.0000
  C   C23       1.0  0.13094903717156814  0.6676575281764273  0.10696877417687739  1.0000
  C   C24       1.0  0.8690499428240556  0.33234318181298766  0.8930383581505339  1.0000
  C   C25       1.0  0.3543135127344499  0.47947522591988445  0.18217378699987566  1.0000
  C   C26       1.0  0.6456872420624931  0.5205215031585269  0.8178264802767218  1.0000
  C   C27       1.0  0.5281285447454067  0.42724517283706837  0.1940862884617829  1.0000
  C   C28       1.0  0.4718737061736036  0.5727505576883659  0.805915700142343  1.0000
  C   C29       1.0  0.6684179392943079  0.5080329367921906  0.13398118227413386  1.0000
  C   C30       1.0  0.33158547134000566  0.49196379899480996  0.8660169028086812  1.0000
  N   N1        1.0  0.6396455709269517  0.6312871487270614  0.06090062904140575  1.0000
  N   N2        1.0  0.36035355343418723  0.368711577307039  0.9390976580309882  1.0000
  O   O1        1.0  0.5943924848285319  0.9351951779827847  0.3565529217288058  1.0000
  O   O2        1.0  0.4056094635733487  0.06480255285262612  0.6434459955742184  1.0000
  O   O3        1.0  0.6397891481781458  0.7982362053005975  0.23808131425279552  1.0000
  O   O4        1.0  0.36020878257804867  0.2017615189765039  0.7619183227931786  1.0000
  O   O5        1.0  0.14630756475375506  0.855008641030373  0.7455280095835592  1.0000
  O   O6        1.0  0.8536949282774202  0.14499508123917343  0.25446996572764385  1.0000
  O   O7        1.0  0.9493894915105942  0.7015302162517117  0.798364642257262  1.0000
  O   O8        1.0  0.05061329274116128  0.29847150687605517  0.20163555317247273  1.0000
  O   O9        1.0  0.6086662280333782  0.8656508132730066  0.8945464624445807  1.0000
  O   O10       1.0  0.3913314240435709  0.1343498933621206  0.10546176097972194  1.0000
  O   O11       1.0  0.30538077592256496  0.8740380528437798  0.9394913336785535  1.0000
  O   O12       1.0  0.6946183270902679  0.1259616599111268  0.06051520634296287  1.0000
  O   O13       1.0  0.054537074902817964  0.7347994588523505  0.18163578668001895  1.0000
  O   O14       1.0  0.9454662466039281  0.26519827066459095  0.8183654442564291  1.0000
  O   O15       1.0  0.06040666592650713  0.6338756637239344  0.03596113491404652  1.0000
  O   O16       1.0  0.9395887546026102  0.366121054273684  0.9640417943849687  1.0000
  O   O17       1.0  0.8880456609915087  0.9158210507474464  0.9848781618742279  1.0000
  O   O18       1.0  0.11195724627744849  0.08417967514579773  0.0151214412495975  1.0000
  O   O19       1.0  0.9055734779653692  0.8248986683330487  0.4150123440776098  1.0000
  O   O20       1.0  0.0944261018974899  0.17510704286513598  0.5849881468566025  1.0000
  O   O21       1.0  0.17968169031115616  0.9505487276754967  0.24856643868630351  1.0000
  O   O22       1.0  0.8203200459459624  0.04945099412437771  0.7514362167762627  1.0000
