data_image0
_chemical_formula_structural       Cu4H28C28N28O4
_chemical_formula_sum              "Cu4 H28 C28 N28 O4"
_cell_length_a       8.092959598455469
_cell_length_b       10.502493022107295
_cell_length_c       11.145293798064882
_cell_angle_alpha    89.99974467248418
_cell_angle_beta     90.00033617867189
_cell_angle_gamma    100.01147553237092

_space_group_name_H-M_alt    "P 1"
_space_group_IT_number       1

loop_
  _space_group_symop_operation_xyz
  'x, y, z'

loop_
  _atom_site_type_symbol
  _atom_site_label
  _atom_site_symmetry_multiplicity
  _atom_site_fract_x
  _atom_site_fract_y
  _atom_site_fract_z
  _atom_site_occupancy
  Cu  Cu1       1.0  0.16012731201192315  0.38243110630308064  0.60007434313993  1.0000
  Cu  Cu2       1.0  0.33987211231474396  0.6175691879083446  0.10007933776883958  1.0000
  Cu  Cu3       1.0  0.8398733772323868  0.61756884262239  0.399923553462628  1.0000
  Cu  Cu4       1.0  0.6601258880543099  0.382429792863853  0.8999230450284941  1.0000
  H   H1        1.0  0.6912375698991016  0.13824955595298155  0.8055600281187693  1.0000
  H   H2        1.0  0.8087661738474098  0.8617504038438641  0.3055647620426214  1.0000
  H   H3        1.0  0.3087643551330645  0.8617503936045454  0.1944387657261117  1.0000
  H   H4        1.0  0.19123408076862355  0.13824761131844815  0.6944376207615405  1.0000
  H   H5        1.0  0.7985827684951162  0.0400011124267508  0.7173923073918828  1.0000
  H   H6        1.0  0.7014188849054791  0.9599982114642105  0.21739706840946835  1.0000
  H   H7        1.0  0.20141937385604797  0.9599998040098257  0.2826055892117481  1.0000
  H   H8        1.0  0.29858013392594535  0.0399998030643616  0.7826053143920646  1.0000
  H   H9        1.0  0.9032606318069869  0.6058969996154459  0.7618423913140973  1.0000
  H   H10       1.0  0.5967448328889376  0.3941011921207718  0.2618463906469017  1.0000
  H   H11       1.0  0.0967423116875494  0.3941019836984552  0.2381564025349903  1.0000
  H   H12       1.0  0.4032514970542564  0.6058958542612771  0.7381568893906235  1.0000
  H   H13       1.0  0.06909601993449138  0.8279676337035156  0.6886926810588605  1.0000
  H   H14       1.0  0.43090753490850636  0.1720313622375684  0.18869455115234499  1.0000
  H   H15       1.0  0.9309059051009148  0.17203231585232004  0.3113070100257218  1.0000
  H   H16       1.0  0.5690877765593502  0.8279666503948493  0.8113051399222114  1.0000
  H   H17       1.0  0.2955682099256904  0.9465495856811826  0.5558215857058996  1.0000
  H   H18       1.0  0.20443358344240892  0.053451843118018906  0.055823885563100396  1.0000
  H   H19       1.0  0.704431460859496  0.0534513294862293  0.4441772081321531  1.0000
  H   H20       1.0  0.7955609268853224  0.9465481026353901  0.9441758055056866  1.0000
  H   H21       1.0  0.4693850502923453  0.8191060936067557  0.4336782924490166  1.0000
  H   H22       1.0  0.030616418681695703  0.18089681277449907  0.9336816671602647  1.0000
  H   H23       1.0  0.5306148378085994  0.18089578844139007  0.5663187069080847  1.0000
  H   H24       1.0  0.9693787436127723  0.819106033610993  0.0663180239038184  1.0000
  H   H25       1.0  0.405842631046383  0.5762644262316171  0.4449049299260252  1.0000
  H   H26       1.0  0.0941589190793266  0.42373843792009314  0.9449111447520123  1.0000
  H   H27       1.0  0.5941609644051556  0.4237374577194332  0.5550911721992832  1.0000
  H   H28       1.0  0.9058389321163319  0.5762653766051856  0.055091238034854904  1.0000
  C   C1        1.0  0.901017353491497  0.22912308190257852  0.719848770933865  1.0000
  C   C2        1.0  0.5989853361270436  0.7708752665051436  0.21985388943762976  1.0000
  C   C3        1.0  0.09898558999979203  0.7708759014130067  0.28014912567552835  1.0000
  C   C4        1.0  0.40101491848574977  0.2291227486588525  0.7801475961268377  1.0000
  C   C5        1.0  0.993113241679737  0.5628109145138466  0.7099221038972985  1.0000
  C   C6        1.0  0.5068895935124332  0.4371884381076399  0.20992643651732829  1.0000
  C   C7        1.0  0.006887664886811317  0.43719000128898955  0.29007579270369627  1.0000
  C   C8        1.0  0.49310920799674574  0.5628086095435735  0.7900759462857679  1.0000
  C   C9        1.0  0.12110710345714185  0.6410247741936888  0.6378295633799453  1.0000
  C   C10       1.0  0.37889753688160255  0.3589753805552434  0.1378331184919261  1.0000
  C   C11       1.0  0.878896492004124  0.3589771097522956  0.3621692304644455  1.0000
  C   C12       1.0  0.621102935050189  0.6410236014878095  0.8621674698312846  1.0000
  C   C13       1.0  0.14773671726344875  0.7760540638475534  0.6346746418735023  1.0000
  C   C14       1.0  0.3522666644833876  0.223946102136054  0.1346768559860791  1.0000
  C   C15       1.0  0.8522656424164411  0.2239478194630067  0.3653250492079464  1.0000
  C   C16       1.0  0.6477301000945631  0.7760528780057782  0.8653237323292302  1.0000
  C   C17       1.0  0.2739248492133656  0.8414007497520617  0.5610768932290853  1.0000
  C   C18       1.0  0.22607821792123423  0.15860065991594038  0.06107884382148399  1.0000
  C   C19       1.0  0.7260760573564299  0.1586001660490908  0.43892190061160347  1.0000
  C   C20       1.0  0.7739189812947274  0.8414002539839985  0.9389199500113036  1.0000
  C   C21       1.0  0.3700013356515584  0.7710144857558562  0.49197633072954255  1.0000
  C   C22       1.0  0.13000033735146846  0.2289872344861125  0.9919790299149154  1.0000
  C   C23       1.0  0.6299997882404825  0.2289873969226548  0.5080224631095831  1.0000
  C   C24       1.0  0.8699960607308557  0.7710156125314357  0.008021558391497798  1.0000
  C   C25       1.0  0.33638574619150324  0.6362890397694444  0.4979602334642621  1.0000
  C   C26       1.0  0.16361473429072507  0.3637126573252517  0.997966996418505  1.0000
  C   C27       1.0  0.6636141419029544  0.36371284228208384  0.502034971413451  1.0000
  C   C28       1.0  0.8363841353673039  0.6362901909564017  0.0020353863725617  1.0000
  N   N1        1.0  0.27064225470680736  0.3276917573831923  0.45740102087164997  1.0000
  N   N2        1.0  0.22935895108597046  0.6723091260176447  0.9574058710146502  1.0000
  N   N3        1.0  0.7293606887844819  0.6723072259323929  0.5425968757377433  1.0000
  N   N4        1.0  0.7706392666085694  0.32769082163022745  0.0425974090208143  1.0000
  N   N5        1.0  0.25410819446507565  0.21618815398585414  0.428112624396995  1.0000
  N   N6        1.0  0.2458886576372521  0.7838109039189689  0.9281152823235671  1.0000
  N   N7        1.0  0.7458922774602287  0.7838108280605667  0.5718861694468274  1.0000
  N   N8        1.0  0.7541085415916771  0.21619000997421273  0.0718871004679968  1.0000
  N   N9        1.0  0.24379905460894957  0.1091474407564519  0.3952550123162268  1.0000
  N   N10       1.0  0.25619756001093213  0.8908517407290264  0.8952572647149779  1.0000
  N   N11       1.0  0.75619894574389  0.8908515400241798  0.6047428842826363  1.0000
  N   N12       1.0  0.7438016761427307  0.1091472406769114  0.10474511808498477  1.0000
  N   N13       1.0  0.7998711673267281  0.1243017402108251  0.7637282826771495  1.0000
  N   N14       1.0  0.7001320567534108  0.8756974100419015  0.2637324949518245  1.0000
  N   N15       1.0  0.20013075770543767  0.8756982093467018  0.2362705111677386  1.0000
  N   N16       1.0  0.29986717940025204  0.12430157136402901  0.7362698878481452  1.0000
  N   N17       1.0  0.8762430558126796  0.3483521802028308  0.757904889436702  1.0000
  N   N18       1.0  0.623762597749874  0.651646993218428  0.2579097169656208  1.0000
  N   N19       1.0  0.12376010500409514  0.6516477699884364  0.24209390441081519  1.0000
  N   N20       1.0  0.37623889264752824  0.3483510225793083  0.7420917686014832  1.0000
  N   N21       1.0  0.9895718314975072  0.43865122958025904  0.7042769248710741  1.0000
  N   N22       1.0  0.510432198679716  0.5613481449061625  0.20428164847290728  1.0000
  N   N23       1.0  0.010431546644753082  0.5613496874866826  0.2957227662145741  1.0000
  N   N24       1.0  0.48956783861407877  0.43864890337878415  0.795720734332825  1.0000
  N   N25       1.0  0.21633072276563337  0.5734629618189545  0.5692673369491175  1.0000
  N   N26       1.0  0.28367218625358964  0.42653745016172445  0.06927199692079708  1.0000
  N   N27       1.0  0.7836726553766271  0.42653795524798704  0.43073235413653066  1.0000
  N   N28       1.0  0.7163285030101749  0.5734624987536208  0.9307312831199254  1.0000
  O   O1        1.0  0.01759477356394261  0.21273014784087965  0.6445765872378857  1.0000
  O   O2        1.0  0.4824037366212154  0.7872699783607973  0.1445814768626761  1.0000
  O   O3        1.0  0.9824071514649833  0.787269801718331  0.3554213093673084  1.0000
  O   O4        1.0  0.5175979710951922  0.2127290043159888  0.8554191114631634  1.0000
