data_image0
_chemical_formula_structural       Cu4H32C48N20
_chemical_formula_sum              "Cu4 H32 C48 N20"
_cell_length_a       9.191982939013164
_cell_length_b       9.999322909475122
_cell_length_c       11.937068258419599
_cell_angle_alpha    109.63416772790023
_cell_angle_beta     89.99984652643882
_cell_angle_gamma    89.99993945283002

_space_group_name_H-M_alt    "P 1"
_space_group_IT_number       1

loop_
  _space_group_symop_operation_xyz
  'x, y, z'

loop_
  _atom_site_type_symbol
  _atom_site_label
  _atom_site_symmetry_multiplicity
  _atom_site_fract_x
  _atom_site_fract_y
  _atom_site_fract_z
  _atom_site_occupancy
  Cu  Cu1       1.0  0.09391477907141173  0.9540107786284864  0.11601740641732763  1.0000
  Cu  Cu2       1.0  0.5939146100669676  0.5459911479213844  0.8839880369706632  1.0000
  Cu  Cu3       1.0  0.9060847579071095  0.045990772145003696  0.8839874309740239  1.0000
  Cu  Cu4       1.0  0.4060849269130102  0.4540104041442774  0.11601596305838063  1.0000
  H   H1        1.0  0.8663931576225464  0.8724474910208567  0.2637632519922376  1.0000
  H   H2        1.0  0.36639590270795713  0.6275538888674179  0.7362397994717611  1.0000
  H   H3        1.0  0.1336052914514241  0.12755405975372722  0.7362415854005421  1.0000
  H   H4        1.0  0.6336068979859562  0.37244872629027276  0.2637636630740161  1.0000
  H   H5        1.0  0.05993745921315252  0.8075128616976883  0.7250981124541769  1.0000
  H   H6        1.0  0.5599403242583635  0.6924870110241486  0.2749059832332108  1.0000
  H   H7        1.0  0.9400609898545017  0.1924918719019432  0.27490929931320807  1.0000
  H   H8        1.0  0.44006138853360716  0.30751454362367536  0.7250963420683617  1.0000
  H   H9        1.0  0.06109979798758051  0.658293501791995  0.5121836299132241  1.0000
  H   H10       1.0  0.5611006616826374  0.841703179302968  0.4878220751543125  1.0000
  H   H11       1.0  0.938901914795345  0.3417069820074588  0.4878242570411615  1.0000
  H   H12       1.0  0.43890105110755684  0.1582973109573729  0.5121816249885427  1.0000
  H   H13       1.0  0.9415608595156331  0.5071124773561168  0.3714406645083271  1.0000
  H   H14       1.0  0.44156246593234977  0.9928823840731839  0.6285578777199347  1.0000
  H   H15       1.0  0.05843976537344281  0.4928848274959137  0.6285621359859731  1.0000
  H   H16       1.0  0.5584370710631817  0.0071128049267272985  0.37143929883529847  1.0000
  H   H17       1.0  0.9181028285785828  0.3506578512459697  0.1620963732373326  1.0000
  H   H18       1.0  0.4181019313232142  0.14934118367381194  0.8379022025852905  1.0000
  H   H19       1.0  0.08189997211742651  0.6493468913945222  0.8379051769881798  1.0000
  H   H20       1.0  0.5818965177628996  0.8506571894444335  0.1620967109836684  1.0000
  H   H21       1.0  0.7812197767215922  0.1003615143636836  0.6639680112764808  1.0000
  H   H22       1.0  0.2812148927964556  0.3996346071935335  0.3360325372808148  1.0000
  H   H23       1.0  0.21878519978400857  0.8996400402808505  0.33603431402079315  1.0000
  H   H24       1.0  0.7187813804778571  0.6003595122534692  0.6639693635692154  1.0000
  H   H25       1.0  0.7703025301082462  0.9628441914368935  0.44693578302755554  1.0000
  H   H26       1.0  0.27029948943754795  0.537153132353133  0.5530679965573242  1.0000
  H   H27       1.0  0.22969918268049835  0.0371562975312614  0.5530687544776001  1.0000
  H   H28       1.0  0.7296978717330235  0.4628473566194132  0.44693654095355834  1.0000
  H   H29       1.0  0.8687426390179596  0.45393701226183225  0.003570085066542104  1.0000
  H   H30       1.0  0.36873587149246845  0.0460642444748061  0.9964300578146776  1.0000
  H   H31       1.0  0.131260161673687  0.5460677265021302  0.9964339772458928  1.0000
  H   H32       1.0  0.6312582259720543  0.9539373140572279  0.003569755409998257  1.0000
  C   C1        1.0  0.9094869383159859  0.7928183068714958  0.45966748626690895  1.0000
  C   C2        1.0  0.4094837441197967  0.7071798020400876  0.5403337147646496  1.0000
  C   C3        1.0  0.0905136865722582  0.20718112287898552  0.5403350766317416  1.0000
  C   C4        1.0  0.5905147049593609  0.292819627712582  0.4596688481368645  1.0000
  C   C5        1.0  0.901419309994175  0.7013399500675704  0.33387295769278313  1.0000
  C   C6        1.0  0.4014199238760767  0.79865498710857  0.6661290396433445  1.0000
  C   C7        1.0  0.09858131489261981  0.29865947839072504  0.6661304425681678  1.0000
  C   C8        1.0  0.5985796131107294  0.2013401941382824  0.3338731610857266  1.0000
  C   C9        1.0  0.8755882292781647  0.7581732666808493  0.2430462446604622  1.0000
  C   C10       1.0  0.3755918573594101  0.7418249105545128  0.75695504558756  1.0000
  C   C11       1.0  0.1244123956040681  0.2418304089899905  0.7569583551338113  1.0000
  C   C12       1.0  0.6244087675328842  0.2581734599771793  0.2430455427031504  1.0000
  C   C13       1.0  0.994668401464111  0.8367090075745836  0.6606181899681829  1.0000
  C   C14       1.0  0.49466922033286664  0.6632889270457127  0.33938446157494434  1.0000
  C   C15       1.0  0.0053322234186339  0.16329148010250089  0.33938718490071546  1.0000
  C   C16       1.0  0.5053335803641517  0.3367094396072546  0.6606186387998108  1.0000
  C   C17       1.0  0.9932587324958532  0.7529108057141869  0.541720880795026  1.0000
  C   C18       1.0  0.49325904072119914  0.7470881909669204  0.4582837490671352  1.0000
  C   C19       1.0  0.006741892384297901  0.24709074247385132  0.4582856313195052  1.0000
  C   C20       1.0  0.506744847876945  0.2529133610943575  0.5417202509561818  1.0000
  C   C21       1.0  0.9188585600123957  0.5534313985271382  0.3026966181825088  1.0000
  C   C22       1.0  0.41885671771185434  0.9465603232579552  0.697301084155448  1.0000
  C   C23       1.0  0.0811409769724492  0.44656696942129775  0.6973056448342376  1.0000
  C   C24       1.0  0.5811406434736456  0.053431676458217205  0.3026977048395736  1.0000
  C   C25       1.0  0.9054819415715445  0.46502210119859905  0.1850537607474791  1.0000
  C   C26       1.0  0.4054823450273944  0.03497271065545961  0.814944486122094  1.0000
  C   C27       1.0  0.09451759541880021  0.5349752088232336  0.8149456902990194  1.0000
  C   C28       1.0  0.5945182798663567  0.9650256611684112  0.18505526480630852  1.0000
  C   C29       1.0  0.8495866103531924  0.7309557042491476  0.029099081703748173  1.0000
  C   C30       1.0  0.34958837540376214  0.7690446477144518  0.970903714115046  1.0000
  C   C31       1.0  0.1504151024381457  0.26904372420805334  0.9709043185557746  1.0000
  C   C32       1.0  0.6504122494851217  0.23095690822665202  0.029097773825647284  1.0000
  C   C33       1.0  0.8399819765511651  0.00025230316365570027  0.6262053326223195  1.0000
  C   C34       1.0  0.33998010866802997  0.4997436986495813  0.37379589862420914  1.0000
  C   C35       1.0  0.1600175604305747  0.9997503132894963  0.3737972925654488  1.0000
  C   C36       1.0  0.660016164605146  0.5002514826005607  0.6262063021091534  1.0000
  C   C37       1.0  0.834182031039937  0.9222560307370388  0.5054335851386114  1.0000
  C   C38       1.0  0.3341791464361066  0.577743289187417  0.49456978871196355  1.0000
  C   C39       1.0  0.16581968175171372  0.07774446081547379  0.49456927764192926  1.0000
  C   C40       1.0  0.6658182147330082  0.4222571984929573  0.5054355861612265  1.0000
  C   C41       1.0  0.8649487810721085  0.6697235903793342  0.12403318662980914  1.0000
  C   C42       1.0  0.36495624432048146  0.8302735464952918  0.8759678317341226  1.0000
  C   C43       1.0  0.13504858010074372  0.33027477498693963  0.8759707511144158  1.0000
  C   C44       1.0  0.6350487321899861  0.1697248240320164  0.12403275655085368  1.0000
  C   C45       1.0  0.8769430633429208  0.5222002021656422  0.0958985169004336  1.0000
  C   C46       1.0  0.37694481770549976  0.9777979749249894  0.9041010950593601  1.0000
  C   C47       1.0  0.12305429782993119  0.4777981632006387  0.9041054208437912  1.0000
  C   C48       1.0  0.6230547192828837  0.0222025217984267  0.09589841827482809  1.0000
  N   N1        1.0  0.7644500143213265  0.6804285180073039  0.9312547233070346  1.0000
  N   N2        1.0  0.2644483281515093  0.8195720081565698  0.06874662188135264  1.0000
  N   N3        1.0  0.23555278637373078  0.31957303534725423  0.06874843935541011  1.0000
  N   N4        1.0  0.7355533846464652  0.18042530057088874  0.9312536665245901  1.0000
  N   N5        1.0  0.9234150159312688  0.8461333802088332  0.02532805161901304  1.0000
  N   N6        1.0  0.4234147260435961  0.6538668242308389  0.9746737125150275  1.0000
  N   N7        1.0  0.0765801694379959  0.15386392723303294  0.9746730741578276  1.0000
  N   N8        1.0  0.5765826351258382  0.3461347265448467  0.025331124879194512  1.0000
  N   N9        1.0  0.8806228949820464  0.8655032693378218  0.9233392872397558  1.0000
  N   N10       1.0  0.3806257481991011  0.6344980831592083  0.07666288940743728  1.0000
  N   N11       1.0  0.11937555409546972  0.13450041021174294  0.0766628004704657  1.0000
  N   N12       1.0  0.6193781403984175  0.36550134271144685  0.923342185573837  1.0000
  N   N13       1.0  0.917429207496248  0.9580909605597584  0.7047147893916872  1.0000
  N   N14       1.0  0.4174281449836812  0.5419081954355106  0.2952858532530911  1.0000
  N   N15       1.0  0.0825703294828983  0.0419127164043616  0.2952889730417141  1.0000
  N   N16       1.0  0.5825692161967523  0.45809123948696134  0.7047133602006282  1.0000
  N   N17       1.0  0.7860547729632897  0.7663199925101482  0.8666367304947471  1.0000
  N   N18       1.0  0.286056225867128  0.7336804888090143  0.13336539518552115  1.0000
  N   N19       1.0  0.2139447640213632  0.23368262652736155  0.1333642199684064  1.0000
  N   N20       1.0  0.7139465748284337  0.2663178765517742  0.8666385425515485  1.0000
