data_image0
_chemical_formula_structural       Zn2H5C14I3N2O8
_chemical_formula_sum              "Zn2 H5 C14 I3 N2 O8"
_cell_length_a       9.983834221619823
_cell_length_b       11.120564412812408
_cell_length_c       11.895117584405957
_cell_angle_alpha    85.05221568672505
_cell_angle_beta     87.05211648495155
_cell_angle_gamma    90.59906907061196

_space_group_name_H-M_alt    "P 1"
_space_group_IT_number       1

loop_
  _space_group_symop_operation_xyz
  'x, y, z'

loop_
  _atom_site_type_symbol
  _atom_site_label
  _atom_site_symmetry_multiplicity
  _atom_site_fract_x
  _atom_site_fract_y
  _atom_site_fract_z
  _atom_site_occupancy
  Zn  Zn1       1.0  0.35877756143573697  0.4909886468543974  0.5006689509941606  1.0000
  Zn  Zn2       1.0  0.6403395173467246  0.5089466611724093  0.4852329422445365  1.0000
  H   H1        1.0  0.44038115256454813  0.08559429219931763  0.5676589569968016  1.0000
  H   H2        1.0  0.6796438623613382  0.8809925458023857  0.4519756047143772  1.0000
  H   H3        1.0  0.3727756283571254  0.9089991291366459  0.45950819888658856  1.0000
  H   H4        1.0  0.1088792988359373  0.5365350207620524  0.5621081844073216  1.0000
  H   H5        1.0  0.8596983633519742  0.3400017391375131  0.48020668207509937  1.0000
  C   C1        1.0  0.47261815368622  0.7325015660951169  0.4728318351074492  1.0000
  C   C2        1.0  0.5059837282013646  0.5000945011372551  0.8329399228680785  1.0000
  C   C3        1.0  0.505561072849403  0.4977344911456143  0.9360276351751649  1.0000
  C   C4        1.0  0.5061214147195586  0.495760375581675  0.04964695988348918  1.0000
  C   C5        1.0  0.507388175428133  0.4948496891487224  0.15256713045820186  1.0000
  C   C6        1.0  0.5973202636809489  0.06208247630821262  0.44987751031363377  1.0000
  C   C7        1.0  0.5176494213702371  0.13206999434061836  0.510924468723573  1.0000
  C   C8        1.0  0.5861243532319592  0.9311852709993503  0.4553503111384244  1.0000
  C   C9        1.0  0.470649985710999  0.8665947664019314  0.4624330928826338  1.0000
  C   C10       1.0  0.06810066820479933  0.41149027041841896  0.46526519658321763  1.0000
  C   C11       1.0  0.9203839026433088  0.42392437342324746  0.47508893967949456  1.0000
  C   C12       1.0  0.506322469383349  0.5020154847643143  0.7112721604132303  1.0000
  C   C13       1.0  0.5165767619555554  0.2655029789441984  0.5095134344905289  1.0000
  C   C14       1.0  0.5111326014976001  0.4963561223501786  0.2736306807653577  1.0000
  I   I1        1.0  0.7533126880608735  0.13010243046970524  0.3337620511703605  1.0000
  I   I2        1.0  0.12744017022636464  0.28061536551635413  0.3572665069832864  1.0000
  I   I3        1.0  0.9374307106239784  0.6928607846907155  0.4575906227372498  1.0000
  N   N1        1.0  0.15276413885590054  0.4740274975160618  0.5131904982072938  1.0000
  N   N2        1.0  0.851489861426913  0.5209137849759743  0.47397602076922846  1.0000
  O   O1        1.0  0.3602850138433738  0.6770331805722167  0.4713996516818781  1.0000
  O   O2        1.0  0.5867794671982054  0.6830780903402528  0.4831605086767396  1.0000
  O   O3        1.0  0.3927131842236733  0.5132639070581605  0.6677440733976212  1.0000
  O   O4        1.0  0.6202316273526378  0.4920631617880318  0.6597040988767516  1.0000
  O   O5        1.0  0.40228377720162467  0.3103866514448513  0.5319199753868771  1.0000
  O   O6        1.0  0.6262968745507962  0.32456571482917707  0.48755220347032235  1.0000
  O   O7        1.0  0.3998183241942499  0.4772851456541929  0.33028963793909577  1.0000
  O   O8        1.0  0.6250881108439901  0.5164547763983337  0.3119956154200239  1.0000
