data_image0
_chemical_formula_structural       Zn4H52C58N12O20
_chemical_formula_sum              "Zn4 H52 C58 N12 O20"
_cell_length_a       8.142768216
_cell_length_b       15.264573846947146
_cell_length_c       18.3283
_cell_angle_alpha    113.42815244363088
_cell_angle_beta     90.0
_cell_angle_gamma    105.46926569740991

_space_group_name_H-M_alt    "P 1"
_space_group_IT_number       1

loop_
  _space_group_symop_operation_xyz
  'x, y, z'

loop_
  _atom_site_type_symbol
  _atom_site_label
  _atom_site_symmetry_multiplicity
  _atom_site_fract_x
  _atom_site_fract_y
  _atom_site_fract_z
  _atom_site_occupancy
  Zn  Zn1       1.0  0.4924134394719957  0.3883020034727807  0.8869411347603914  1.0000
  Zn  Zn2       1.0  0.10486550371769705  0.6116623818244733  0.6130583113475866  1.0000
  Zn  Zn3       1.0  0.5076245952739952  0.6117198387341105  0.11308115667950595  1.0000
  Zn  Zn4       1.0  0.8951195986164606  0.3883199121199397  0.3869563402476217  1.0000
  H   H1        1.0  0.2322596877523253  0.42286718487946473  0.6770232574574848  1.0000
  H   H2        1.0  0.8095923699004286  0.5771330177121072  0.822767624924616  1.0000
  H   H3        1.0  0.7677628324222567  0.5771285405503193  0.32297238081125806  1.0000
  H   H4        1.0  0.19042688584253398  0.422870915847625  0.1772629220146129  1.0000
  H   H5        1.0  0.7695642014407866  0.0771586600966145  0.8579791627183369  1.0000
  H   H6        1.0  0.692910913221368  0.9226661869915134  0.6416259815749611  1.0000
  H   H7        1.0  0.23039965037512639  0.9228228876541635  0.14198395497680139  1.0000
  H   H8        1.0  0.30705467994102514  0.0773384927618466  0.3583644377354389  1.0000
  H   H9        1.0  0.98423167364988  0.1474829327206706  0.8988154861977334  1.0000
  H   H10       1.0  0.8372979904285955  0.8523217671394008  0.6010279629534665  1.0000
  H   H11       1.0  0.015731447319545584  0.8524799601893136  0.10116764319996462  1.0000
  H   H12       1.0  0.1626497254389747  0.1476717197094857  0.3989483834910814  1.0000
  H   H13       1.0  0.5031632235003727  0.0904289676424099  0.7902429205174569  1.0000
  H   H14       1.0  0.4132773713670232  0.9093854327348723  0.7099174633274289  1.0000
  H   H15       1.0  0.4967874617972612  0.9095876512090584  0.20977327644213517  1.0000
  H   H16       1.0  0.5867495639048101  0.0906289475357056  0.2900952643337861  1.0000
  H   H17       1.0  0.4041818231630502  0.17622705760661725  0.8553790056129955  1.0000
  H   H18       1.0  0.22863922661010602  0.8237007642026769  0.6446443428621649  1.0000
  H   H19       1.0  0.595832598341275  0.8238089622792729  0.1446676223354189  1.0000
  H   H20       1.0  0.7713397199580783  0.1762986921952603  0.3554016352581968  1.0000
  H   H21       1.0  0.515178490438238  0.1141131535119371  0.8937900848730607  1.0000
  H   H22       1.0  0.4018233106433867  0.8859713689600143  0.6064051859244586  1.0000
  H   H23       1.0  0.48483691019225006  0.8859027191458965  0.10622968422467242  1.0000
  H   H24       1.0  0.5981074296375511  0.1140176407270843  0.3936067790617486  1.0000
  H   H25       1.0  0.0848635632486037  0.011048889104287701  0.8004827317633598  1.0000
  H   H26       1.0  0.07379126669854227  0.9896512431137979  0.699126355039823  1.0000
  H   H27       1.0  0.9151149167785632  0.9889348972273879  0.1995007689646542  1.0000
  H   H28       1.0  0.926235528407666  0.010340751347818901  0.300859318098361  1.0000
  H   H29       1.0  0.9295318708275244  0.17757393711180214  0.46620458402276915  1.0000
  H   H30       1.0  0.7525937970643213  0.8222419556527427  0.03385099236921718  1.0000
  H   H31       1.0  0.07052436691093791  0.8223934329599771  0.5337871207847016  1.0000
  H   H32       1.0  0.24733024349166038  0.1777754093923534  0.96613326102662  1.0000
  H   H33       1.0  0.1674773795276181  0.1215750898287382  0.6473175699539198  1.0000
  H   H34       1.0  0.0457665987289602  0.8785519656802165  0.8526702697391001  1.0000
  H   H35       1.0  0.832638350859753  0.8784400366354674  0.3526943135908454  1.0000
  H   H36       1.0  0.9541331130869111  0.12144375974956033  0.1473095460038181  1.0000
  H   H37       1.0  0.08973862775115997  0.326780577121653  0.8918775246985717  1.0000
  H   H38       1.0  0.7636611735119273  0.6731599299793842  0.607983615021169  1.0000
  H   H39       1.0  0.9102829593413944  0.6731838081755941  0.10809736921416403  1.0000
  H   H40       1.0  0.2363170115136839  0.3268551964848214  0.39202172127152585  1.0000
  H   H41       1.0  0.8974047286285296  0.4580129049315929  0.9058614781677009  1.0000
  H   H42       1.0  0.4400795986448784  0.5418313431909567  0.5937822811795073  1.0000
  H   H43       1.0  0.10267454769653744  0.5419858052727093  0.09413842209598039  1.0000
  H   H44       1.0  0.5599345271801466  0.4581770675305634  0.4062377450176413  1.0000
  H   H45       1.0  0.8412378932191727  0.0837147173445558  0.7244845050197952  1.0000
  H   H46       1.0  0.7581786531871301  0.9167443943305004  0.775386864914104  1.0000
  H   H47       1.0  0.1587922597624072  0.9162839928597537  0.2754957534876965  1.0000
  H   H48       1.0  0.24182950308167506  0.08325207729291152  0.22459919956877167  1.0000
  H   H49       1.0  0.05337794059204978  0.1543635841983928  0.7691307846603834  1.0000
  H   H50       1.0  0.9000994108204878  0.8462887916272663  0.7309573513753733  1.0000
  H   H51       1.0  0.9466413772208356  0.8456306488441216  0.23086708744560275  1.0000
  H   H52       1.0  0.09988771251366299  0.1537024566407226  0.2690215274185235  1.0000
  C   C1        1.0  0.0606583497342257  0.3790909892833199  0.5322255710553918  1.0000
  C   C2        1.0  0.6818357243073123  0.6207390811602238  0.9675891781365279  1.0000
  C   C3        1.0  0.9393328930178697  0.620891304661086  0.46777653164001987  1.0000
  C   C4        1.0  0.3181794740876285  0.3792641062058735  0.03241493270222409  1.0000
  C   C5        1.0  0.0424064319302317  0.1384480202282887  0.5512123547528702  1.0000
  C   C6        1.0  0.9040820278205286  0.8615193498434905  0.9487662555504741  1.0000
  C   C7        1.0  0.9577013699708485  0.8615365122970147  0.44878175954981  1.0000
  C   C8        1.0  0.09582183478711669  0.1384920456525549  0.0512089282511425  1.0000
  C   C9        1.0  0.1793568763502336  0.3429349230538961  0.64153808070364  1.0000
  C   C10       1.0  0.8366640128539372  0.6570414013414592  0.8583174601042103  1.0000
  C   C11       1.0  0.8206423723061176  0.6570511018586771  0.3584554365748147  1.0000
  C   C12       1.0  0.16331920864585914  0.3429543240883177  0.1416989111294029  1.0000
  C   C13       1.0  0.08407311908595008  0.3077175684131248  0.5664907318731807  1.0000
  C   C14       1.0  0.7767030180648076  0.6921796594572741  0.9334035440748069  1.0000
  C   C15       1.0  0.9159391566007997  0.692269948886711  0.433514737280845  1.0000
  C   C16       1.0  0.22328894018573212  0.30783845178145713  0.06660987344320553  1.0000
  C   C17       1.0  0.8817584762482156  0.1320568717729458  0.8525715094580235  1.0000
  C   C18       1.0  0.7502896913137533  0.867926168365095  0.6472578837542714  1.0000
  C   C19       1.0  0.11822956414217597  0.8679239297841975  0.1474077292750522  1.0000
  C   C20       1.0  0.249678575599404  0.132074034226477  0.3527299617940827  1.0000
  C   C21       1.0  0.5160223627606513  0.1486029693618249  0.8512533936687774  1.0000
  C   C22       1.0  0.3680688331780146  0.8513554463863714  0.648852105360426  1.0000
  C   C23       1.0  0.4839834775066123  0.851415888070541  0.14876790940220272  1.0000
  C   C24       1.0  0.6319017811105211  0.1486469947860911  0.3511686721205933  1.0000
  C   C25       1.0  0.2059866403694102  0.2752872469866716  0.670823630806872  1.0000
  C   C26       1.0  0.9309566295864256  0.7247659353527425  0.8291037368692358  1.0000
  C   C27       1.0  0.7940641724495521  0.7247159403794257  0.32918593607526253  1.0000
  C   C28       1.0  0.06899786410181008  0.2752312824642971  0.1708940323969799  1.0000
  C   C29       1.0  0.6743639524750265  0.2324684178199803  0.8674231512028356  1.0000
  C   C30       1.0  0.4425785445895158  0.7674541806338979  0.6325433615885244  1.0000
  C   C31       1.0  0.32566885890927466  0.7675429776760723  0.13257494798099856  1.0000
  C   C32       1.0  0.5574030136595098  0.232550499119462  0.3674732467301283  1.0000
  C   C33       1.0  0.9969393716386605  0.000279076418245  0.7498608034514831  1.0000
  C   C34       1.0  0.0030688467000671697  0.9997076946879488  0.2501209576237571  1.0000
  C   C35       1.0  0.010912854703413197  0.2050972892163188  0.522358404509788  1.0000
  C   C36       1.0  0.8062326282358896  0.7947939691050225  0.9776326490856777  1.0000
  C   C37       1.0  0.9891459326459823  0.7948850047280871  0.47762951247282365  1.0000
  C   C38       1.0  0.19370075509972648  0.2052248883273364  0.022364101790074614  1.0000
  C   C39       1.0  0.14049746592800716  0.1724886275119033  0.6245518590577533  1.0000
  C   C40       1.0  0.9680541747437983  0.827555600503942  0.8753883660374413  1.0000
  C   C41       1.0  0.8596019262754665  0.8275257527586746  0.3754477740993352  1.0000
  C   C42       1.0  0.0318686997985154  0.1724520640239504  0.12459976801583389  1.0000
  C   C43       1.0  0.9525571374229  0.3159368912660768  0.8867214415950572  1.0000
  C   C44       1.0  0.637296471504257  0.683996900092275  0.6131412935250111  1.0000
  C   C45       1.0  0.04747031043407902  0.684041671710176  0.11325705586133242  1.0000
  C   C46       1.0  0.3626849779529806  0.31601001824198255  0.3868602335445104  1.0000
  C   C47       1.0  0.8567060668411413  0.3793469336989901  0.8932205008472921  1.0000
  C   C48       1.0  0.47805235071373176  0.6205473093968834  0.606518380703946  1.0000
  C   C49       1.0  0.14333535647631374  0.6206472993435312  0.10677464323699583  1.0000
  C   C50       1.0  0.5219376953286101  0.3794596089373741  0.39349842328704915  1.0000
  C   C51       1.0  0.942832730482145  0.09503596712440301  0.7698493592317988  1.0000
  C   C52       1.0  0.8485048010631216  0.9053858348690654  0.7300331170772694  1.0000
  C   C53       1.0  0.05717441528666  0.9049560273372137  0.2301330402803501  1.0000
  C   C54       1.0  0.1514952405096324  0.0946091443670838  0.2699459059690881  1.0000
  C   C55       1.0  0.30351748088369856  0.30655201396044174  0.7510717374704896  1.0000
  C   C56       1.0  0.9975510778496712  0.6935832496784684  0.7489068169415916  1.0000
  C   C57       1.0  0.696522108321268  0.693463112503764  0.2489385092612579  1.0000
  C   C58       1.0  0.0024169868279458545  0.3064042676213675  0.2510959241907429  1.0000
  N   N1        1.0  0.8362141107989984  0.2240409069437845  0.8708229184071357  1.0000
  N   N2        1.0  0.6128544211688833  0.7759272093216225  0.6291739439316117  1.0000
  N   N3        1.0  0.16378145360658888  0.7759451179687886  0.12915641315851903  1.0000
  N   N4        1.0  0.38711512054974406  0.2240804552062627  0.3708289214388074  1.0000
  N   N5        1.0  0.6844430191939779  0.3269574250123597  0.8810692839437807  1.0000
  N   N6        1.0  0.3581804911796027  0.6729204018236177  0.618738909372837  1.0000
  N   N7        1.0  0.31559171974655686  0.673048000934628  0.1189355681716506  1.0000
  N   N8        1.0  0.6418002120830977  0.3270850241233775  0.3812866757074573  1.0000
  N   N9        1.0  0.9569783337810447  0.0335346880013319  0.503968612669219  1.0000
  N   N10       1.0  0.9233817434908431  0.9664155196169162  0.9959874007783895  1.0000
  N   N11       1.0  0.043131489120028704  0.9664587988475547  0.49602519311416426  1.0000
  N   N12       1.0  0.07651058447545718  0.0335973682663919  0.0039702722645103  1.0000
  O   O1        1.0  0.32239235569823416  0.23958561267894404  0.7714232771406131  1.0000
  O   O2        1.0  0.08373794482221089  0.7606123312250261  0.7287304390464442  1.0000
  O   O3        1.0  0.6776354812817971  0.7604354833343195  0.2285944023723445  1.0000
  O   O4        1.0  0.9162077500453663  0.2393722013002844  0.2712685856952817  1.0000
  O   O5        1.0  0.36444611593057624  0.4001828984763875  0.7972692744577189  1.0000
  O   O6        1.0  0.9647463498648251  0.5999613194860987  0.7026265851799351  1.0000
  O   O7        1.0  0.6356072464993191  0.5998352127623435  0.2027392326212549  1.0000
  O   O8        1.0  0.03526031401491987  0.400032167362788  0.2973955920290621  1.0000
  O   O9        1.0  0.8052345538926529  0.0078715966205962  0.4695123991472983  1.0000
  O   O10       1.0  0.797177592632579  0.9920084687962787  0.030430754113318435  1.0000
  O   O11       1.0  0.19487798948105725  0.9921248750028229  0.5305025823655285  1.0000
  O   O12       1.0  0.2026736646163698  0.0080156119915102  0.9695186220175457  1.0000
  O   O13       1.0  0.9865757644745442  0.3399792500788124  0.46042316554597557  1.0000
  O   O14       1.0  0.6473918957008988  0.6598269421685217  0.03953208107476058  1.0000
  O   O15       1.0  0.01340828063774778  0.6599911047674922  0.5395755292781317  1.0000
  O   O16       1.0  0.3526332521803255  0.3402157934600538  0.9605074954299511  1.0000
  O   O17       1.0  0.12052150319120608  0.4711533747854801  0.575763314359051  1.0000
  O   O18       1.0  0.6489344779072965  0.5287072895969658  0.9239049771690234  1.0000
  O   O19       1.0  0.8794634436292839  0.52882369580351  0.4242256009996553  1.0000
  O   O20       1.0  0.3510912606547834  0.4713317150634495  0.07613500068756451  1.0000
