data_image0
_chemical_formula_structural       Zn2H28C24O8
_chemical_formula_sum              "Zn2 H28 C24 O8"
_cell_length_a       6.752014152863203
_cell_length_b       7.886598358081654
_cell_length_c       10.74706620904568
_cell_angle_alpha    68.48441937453585
_cell_angle_beta     89.59976863455873
_cell_angle_gamma    88.84977122134758

_space_group_name_H-M_alt    "P 1"
_space_group_IT_number       1

loop_
  _space_group_symop_operation_xyz
  'x, y, z'

loop_
  _atom_site_type_symbol
  _atom_site_label
  _atom_site_symmetry_multiplicity
  _atom_site_fract_x
  _atom_site_fract_y
  _atom_site_fract_z
  _atom_site_occupancy
  Zn  Zn1       1.0  0.010759019384146005  0.039566326831327214  0.9255882385807436  1.0000
  Zn  Zn2       1.0  0.5106744240432873  0.9648524550533892  0.07450350601291687  1.0000
  H   H1        1.0  0.1584854090767891  0.5060628862878503  0.10729114993982583  1.0000
  H   H2        1.0  0.6581870411996816  0.6129597532189951  0.8927099535723496  1.0000
  H   H3        1.0  0.9403797469086256  0.4285027199686127  0.056525821857235266  1.0000
  H   H4        1.0  0.44011817528545544  0.48476015898826597  0.9435350475407984  1.0000
  H   H5        1.0  0.6206816630418998  0.46279703743503126  0.33443380531488737  1.0000
  H   H6        1.0  0.1202802413200672  0.7972388664578104  0.6655551098893465  1.0000
  H   H7        1.0  0.6222441516132305  0.4025371282362897  0.19068204236523909  1.0000
  H   H8        1.0  0.12176451939210861  0.5931784604685647  0.8091940406621132  1.0000
  H   H9        1.0  0.6323523663402071  0.12486006833583466  0.39711374213716505  1.0000
  H   H10       1.0  0.1317142932497219  0.5221979627172149  0.6026660961956194  1.0000
  H   H11       1.0  0.8059295481490734  0.11679402027496621  0.19469456716073094  1.0000
  H   H12       1.0  0.30525254666917323  0.31135490212405187  0.8049593466745149  1.0000
  H   H13       1.0  0.9314702240366086  0.9745664372527613  0.3416072567754397  1.0000
  H   H14       1.0  0.4307580797202418  0.31619543029655983  0.6580371887489986  1.0000
  H   H15       1.0  0.24634311296344436  0.0868583452739244  0.4140257015343137  1.0000
  H   H16       1.0  0.7457030114569393  0.5005315190556844  0.5859916690662528  1.0000
  H   H17       1.0  0.33821282876451864  0.30425831797406744  0.3179554367623466  1.0000
  H   H18       1.0  0.8377419578987643  0.6216324153741511  0.6822522250162775  1.0000
  H   H19       1.0  0.1557457893977485  0.5906415135723931  0.31387884859829274  1.0000
  H   H20       1.0  0.6554808590182403  0.9039602385738872  0.6864628976860911  1.0000
  H   H21       1.0  0.9335855650588056  0.5746643732542297  0.4063540414673169  1.0000
  H   H22       1.0  0.4333757622813008  0.9807708320125529  0.5938345103496657  1.0000
  H   H23       1.0  0.9306321711524459  0.05985598011856305  0.5484510196543011  1.0000
  H   H24       1.0  0.430156050777846  0.6081960816156595  0.4515072670174972  1.0000
  H   H25       1.0  0.8008963204985518  0.2565161644720887  0.5478064584079049  1.0000
  H   H26       1.0  0.30053062708710593  0.80427573448447  0.4521421506225208  1.0000
  H   H27       1.0  0.16423172184519785  0.30974801386552303  0.5218946649097089  1.0000
  H   H28       1.0  0.6639319340660563  0.8313200313917475  0.47832221043752526  1.0000
  C   C1        1.0  0.08239449526796247  0.22799060436518917  0.23113128751913337  1.0000
  C   C2        1.0  0.5818051689129861  0.4587550169367702  0.7688116724048866  1.0000
  C   C3        1.0  0.024254177827010892  0.4263441162584841  0.14423396441289066  1.0000
  C   C4        1.0  0.5238602053291996  0.5702025083529776  0.855796126840843  1.0000
  C   C5        1.0  0.8991215548823346  0.5124146990040116  0.22649646885797375  1.0000
  C   C6        1.0  0.3986809989301107  0.7385780088134413  0.7735816754991658  1.0000
  C   C7        1.0  0.7111685839479661  0.3998154314637006  0.27697905577429777  1.0000
  C   C8        1.0  0.21071402668673758  0.6766884209045754  0.7229560780061132  1.0000
  C   C9        1.0  0.7684258274811739  0.2029247523687445  0.36389265008062915  1.0000
  C   C10       1.0  0.2679039930139737  0.5667878875661216  0.6359396318709399  1.0000
  C   C11       1.0  0.8914404056402672  0.11715968362420884  0.2810615693408279  1.0000
  C   C12       1.0  0.39076314311191845  0.3980865491115325  0.7186837592709876  1.0000
  C   C13       1.0  0.20182438779865916  0.2272122894519627  0.352400427608856  1.0000
  C   C14       1.0  0.7013092358905196  0.5791893204229199  0.6476841004072964  1.0000
  C   C15       1.0  0.021350049928088297  0.5098397314367205  0.34878024003437247  1.0000
  C   C16       1.0  0.5210423531613272  0.8582512309388621  0.6514102358959377  1.0000
  C   C17       1.0  0.8890830148915113  0.20071778196415838  0.4847737498954031  1.0000
  C   C18       1.0  0.38868019419242467  0.6854132235716154  0.5151798292961869  1.0000
  C   C19       1.0  0.0769682819162227  0.31191878234204756  0.4353460336915161  1.0000
  C   C20       1.0  0.5766012899912807  0.7469417021496414  0.5647956893488908  1.0000
  C   C21       1.0  0.19421763680707466  0.13941773605779423  0.14689661606035287  1.0000
  C   C22       1.0  0.6937377241456417  0.2860006064480985  0.85299824631479  1.0000
  C   C23       1.0  0.843346762828119  0.7102282544622156  0.1447952689098742  1.0000
  C   C24       1.0  0.3431873391819024  0.8547843329562922  0.8553366064244583  1.0000
  O   O1        1.0  0.13349690432352898  0.17313047475175133  0.027915541418209996  1.0000
  O   O2        1.0  0.633201408036875  0.20060346713711416  0.9719378160524028  1.0000
  O   O3        1.0  0.3424116528709789  0.0339506921547823  0.19848606328259413  1.0000
  O   O4        1.0  0.8422070233114737  0.23237195003316194  0.8014630172863163  1.0000
  O   O5        1.0  0.9449067674658237  0.7909462568386587  0.0397046456143926  1.0000
  O   O6        1.0  0.4448591172305925  0.8301818151180245  0.9604361467398304  1.0000
  O   O7        1.0  0.7020719331383061  0.7824589861490877  0.18852214451077026  1.0000
  O   O8        1.0  0.20213789848533983  0.971038435187019  0.8116021342862466  1.0000
