data_image0
_chemical_formula_structural       Cd2H16C16S4N12O4
_chemical_formula_sum              "Cd2 H16 C16 S4 N12 O4"
_cell_length_a       6.7721730238566815
_cell_length_b       8.351481248529383
_cell_length_c       12.793603953296058
_cell_angle_alpha    100.69758238718268
_cell_angle_beta     89.99729935808766
_cell_angle_gamma    90.00345489727523

_space_group_name_H-M_alt    "P 1"
_space_group_IT_number       1

loop_
  _space_group_symop_operation_xyz
  'x, y, z'

loop_
  _atom_site_type_symbol
  _atom_site_label
  _atom_site_symmetry_multiplicity
  _atom_site_fract_x
  _atom_site_fract_y
  _atom_site_fract_z
  _atom_site_occupancy
  Cd  Cd1       1.0  5.191998283699966e-06  0.5000021742413948  2.345465084384657e-06  1.0000
  Cd  Cd2       1.0  0.4999987959783637  8.843983679073283e-07  0.5000011964609923  1.0000
  H   H1        1.0  0.0671730349498603  0.542382543871085  0.22743458574714728  1.0000
  H   H2        1.0  0.567176361591322  0.95762480328208  0.2725651942310846  1.0000
  H   H3        1.0  0.9328290338691545  0.4576164296593461  0.7725683505298944  1.0000
  H   H4        1.0  0.43283013733550757  0.0423730333655428  0.7274360159999201  1.0000
  H   H5        1.0  0.23450851171006798  0.6338002076507505  0.17368616672498388  1.0000
  H   H6        1.0  0.7345074722993203  0.8662079023209583  0.3263124846716891  1.0000
  H   H7        1.0  0.7654994624887337  0.3662009158545914  0.8263225510982293  1.0000
  H   H8        1.0  0.26550050469517567  0.1338030865152433  0.673695294010798  1.0000
  H   H9        1.0  0.8924739574770868  0.08441515780824457  0.2057559387001929  1.0000
  H   H10       1.0  0.39247160828590916  0.4156319593996044  0.2942340350990519  1.0000
  H   H11       1.0  0.1075192551681425  0.9155867820535801  0.794237253127697  1.0000
  H   H12       1.0  0.6075097878710523  0.5843635256224784  0.7057652740729236  1.0000
  H   H13       1.0  0.8631938437184841  0.2957222199941113  0.22875881854507432  1.0000
  H   H14       1.0  0.36319000400909834  0.20428525979097145  0.2712376648404201  1.0000
  H   H15       1.0  0.13679493957729252  0.70428333326803  0.7712356704768834  1.0000
  H   H16       1.0  0.636797298195823  0.7957101431235002  0.7287631971269019  1.0000
  C   C1        1.0  0.8005420496128864  0.8815992233325929  0.038447628498623446  1.0000
  C   C2        1.0  0.3005423314736149  0.6184186075775955  0.4615477408256366  1.0000
  C   C3        1.0  0.1994674045453735  0.11840247036370496  0.9615502216500215  1.0000
  C   C4        1.0  0.6994523557303224  0.38158649692446994  0.5384552873958339  1.0000
  C   C5        1.0  0.6790862753534269  0.0286996512418796  0.9075274458481102  1.0000
  C   C6        1.0  0.1790991434616771  0.4712850492469798  0.5924765992178533  1.0000
  C   C7        1.0  0.32091727050432445  0.97129587215953  0.09247108803579346  1.0000
  C   C8        1.0  0.8208984959853394  0.5287163605337638  0.4075266842785437  1.0000
  C   C9        1.0  0.7508583756185772  0.03086421947232049  0.010406979152328693  1.0000
  C   C10       1.0  0.2508619825394334  0.4691386145286599  0.4895864460031445  1.0000
  C   C11       1.0  0.2491510772381673  0.96913138477813  0.9895900024583991  1.0000
  C   C12       1.0  0.7491312272301797  0.5308616593132028  0.510415111055593  1.0000
  C   C13       1.0  0.7732528191658614  0.18211410664816438  0.08233829091767568  1.0000
  C   C14       1.0  0.2732567101113332  0.3178857436790068  0.41764642000030955  1.0000
  C   C15       1.0  0.2267507298729114  0.817886654962393  0.9176539513923881  1.0000
  C   C16       1.0  0.7267335456381757  0.6821120539599974  0.5823555657798491  1.0000
  S   S1        1.0  0.6821567568286327  0.35769259795215186  0.04810118882996758  1.0000
  S   S2        1.0  0.18215422874568082  0.1422890682113973  0.4518904401689594  1.0000
  S   S3        1.0  0.3178482690336608  0.6423058499402289  0.9518883773288064  1.0000
  S   S4        1.0  0.8178375036797974  0.8577110835703009  0.5481134456259011  1.0000
  N   N1        1.0  0.8428733470372761  0.7592251983579174  0.06536476835109538  1.0000
  N   N2        1.0  0.3428795754187419  0.7408042344652159  0.43463884910037354  1.0000
  N   N3        1.0  0.1571449645286407  0.24077608700282133  0.9346408448604887  1.0000
  N   N4        1.0  0.6571180637228691  0.2591936031263342  0.5653623607390087  1.0000
  N   N5        1.0  0.6226034109364845  0.019721649338308108  0.8198943512692406  1.0000
  N   N6        1.0  0.12260940947877687  0.4802750059578144  0.68010625265574  1.0000
  N   N7        1.0  0.377410470794203  0.980270260033492  0.1801028856816841  1.0000
  N   N8        1.0  0.8773867540506329  0.5197265261977364  0.31989470197399317  1.0000
  N   N9        1.0  0.8588310591782856  0.18687628981712123  0.17692433642294955  1.0000
  N   N10       1.0  0.3588362449266498  0.31314998387533416  0.3230586682323987  1.0000
  N   N11       1.0  0.14116510677376937  0.8131280040300765  0.8230707554849059  1.0000
  N   N12       1.0  0.6411525341694501  0.6868466367709869  0.6769423675077773  1.0000
  O   O1        1.0  0.17077010679530247  0.5282849281698533  0.17112720784257354  1.0000
  O   O2        1.0  0.6707712820653953  0.9717240953917421  0.3288733869837797  1.0000
  O   O3        1.0  0.829234915828607  0.4717176579742881  0.8288770259548951  1.0000
  O   O4        1.0  0.3292263581850746  0.028282145206524906  0.671131367610087  1.0000
