data_image0
_chemical_formula_structural       Zn4H44C56S4N8O16
_chemical_formula_sum              "Zn4 H44 C56 S4 N8 O16"
_cell_length_a       10.91927852249265
_cell_length_b       10.968245679874551
_cell_length_c       14.7442
_cell_angle_alpha    90.62364368120109
_cell_angle_beta     90.62644050265858
_cell_angle_gamma    98.94353687973332

_space_group_name_H-M_alt    "P 1"
_space_group_IT_number       1

loop_
  _space_group_symop_operation_xyz
  'x, y, z'

loop_
  _atom_site_type_symbol
  _atom_site_label
  _atom_site_symmetry_multiplicity
  _atom_site_fract_x
  _atom_site_fract_y
  _atom_site_fract_z
  _atom_site_occupancy
  Zn  Zn1       1.0  0.4548677738302871  0.1254179579894483  0.5041905462162646  1.0000
  Zn  Zn2       1.0  0.8743393638197432  0.5443254569497  0.9959119153496234  1.0000
  Zn  Zn3       1.0  0.5451319729758168  0.8745825315797616  0.4958105408701314  1.0000
  Zn  Zn4       1.0  0.1256620704541334  0.4556741096006363  0.0040871432280838  1.0000
  H   H1        1.0  0.8900102306000406  0.9745722427253369  0.6862013164100489  1.0000
  H   H2        1.0  0.0263900176730019  0.11085733531849938  0.8145837007597692  1.0000
  H   H3        1.0  0.10999134793839  0.0254282468438731  0.3137991072749884  1.0000
  H   H4        1.0  0.9736136811268707  0.8891450002884511  0.18541607680738537  1.0000
  H   H5        1.0  0.4719732498941197  0.3105515447788889  0.6689518697224983  1.0000
  H   H6        1.0  0.6886866764744966  0.527635429746141  0.8313016767275911  1.0000
  H   H7        1.0  0.5280264969119841  0.6894489447903211  0.3310478608983018  1.0000
  H   H8        1.0  0.3113144692702576  0.47236229076645486  0.1687000774978245  1.0000
  H   H9        1.0  0.13117731688771533  0.0043104981219244  0.6878640375075804  1.0000
  H   H10       1.0  0.994955493567673  0.8682801587368302  0.8129419474694475  1.0000
  H   H11       1.0  0.8688250332523211  0.9956890684284119  0.3121357067186352  1.0000
  H   H12       1.0  0.005043964709315699  0.1317184847946393  0.18705640940228113  1.0000
  H   H13       1.0  0.29865948507200807  0.5951514910147395  0.4242126284069769  1.0000
  H   H14       1.0  0.4042930242504709  0.7025751961376159  0.0756447449678248  1.0000
  H   H15       1.0  0.7013392016033747  0.40484807553559676  0.5757870861563674  1.0000
  H   H16       1.0  0.5957064340265106  0.2974234473938537  0.9243549683694994  1.0000
  H   H17       1.0  0.3007395777771293  0.6497775937667072  0.5363950293329154  1.0000
  H   H18       1.0  0.34939609539561184  0.7006654700960198  0.963489338171833  1.0000
  H   H19       1.0  0.6992591088982536  0.3502219727836362  0.46360536346322323  1.0000
  H   H20       1.0  0.6506045672766518  0.2993350194731903  0.0365110780974831  1.0000
  H   H21       1.0  0.3787554600855287  0.5349291248552319  0.6602968222625805  1.0000
  H   H22       1.0  0.4642833423838225  0.6223731635226102  0.8395822298696843  1.0000
  H   H23       1.0  0.6212439981914527  0.46506951867623775  0.3397035693075381  1.0000
  H   H24       1.0  0.5357194908287113  0.377623633971119  0.16041817407983675  1.0000
  H   H25       1.0  0.39105535241802863  0.3219065229150573  0.3395318516815351  1.0000
  H   H26       1.0  0.6782165149476711  0.6092626034961057  0.16037852983527048  1.0000
  H   H27       1.0  0.6089427069203026  0.6780948896730195  0.660467872749564  1.0000
  H   H28       1.0  0.3217820274631507  0.39073604003536394  0.8396218543191339  1.0000
  H   H29       1.0  0.26960141113026026  0.4128857238537407  0.35124437823929355  1.0000
  H   H30       1.0  0.586752201946311  0.7301476158160085  0.1488188881691741  1.0000
  H   H31       1.0  0.7303971312805614  0.5871129196777289  0.6487553276823093  1.0000
  H   H32       1.0  0.4132472563306778  0.2698510277154611  0.8511808251681501  1.0000
  H   H33       1.0  0.24426020336971987  0.2527659484356306  0.3773420377559304  1.0000
  H   H34       1.0  0.7475838534173603  0.7554623313388973  0.1226494596298693  1.0000
  H   H35       1.0  0.7557403150379899  0.7472336181147057  0.6226576916388494  1.0000
  H   H36       1.0  0.2524145447289001  0.24453538917370568  0.8773502376499991  1.0000
  H   H37       1.0  0.1322727117926803  0.3727925532066294  0.5831856734533858  1.0000
  H   H38       1.0  0.6276755767496808  0.8683844598691125  0.9166359745087362  1.0000
  H   H39       1.0  0.8677261191472639  0.6272079363625807  0.4168160844500832  1.0000
  H   H40       1.0  0.37232585752418856  0.1316151066812239  0.08336444053456661  1.0000
  H   H41       1.0  0.0949989357032948  0.6808667153390005  0.41133972470655783  1.0000
  H   H42       1.0  0.3185388466960717  0.9052729090003098  0.08877540448653322  1.0000
  H   H43       1.0  0.9049997509720882  0.3191328512113358  0.5886613463223823  1.0000
  H   H44       1.0  0.6814625875777978  0.0947266575500336  0.9112250105567697  1.0000
  C   C1        1.0  0.7657450646182157  0.110189992675636  0.6910766101209235  1.0000
  C   C2        1.0  0.8900141166231139  0.234468945379767  0.8091686331839725  1.0000
  C   C3        1.0  0.2342536220571603  0.8898095738747004  0.308923104442421  1.0000
  C   C4        1.0  0.10998760617987098  0.7655324672083097  0.1908290862116147  1.0000
  C   C5        1.0  0.3520657806281661  0.3665215630052714  0.4763450789357861  1.0000
  C   C6        1.0  0.6332277468634615  0.6481743099898765  0.023654563947403104  1.0000
  C   C7        1.0  0.6479330503117707  0.6334789265639387  0.5236546442692926  1.0000
  C   C8        1.0  0.36676925234415597  0.3518261795793336  0.9763444661934387  1.0000
  C   C9        1.0  0.3471598518754675  0.9137766818476933  0.6240402589632197  1.0000
  C   C10       1.0  0.0859133151298579  0.6526620277347988  0.8758625995413284  1.0000
  C   C11       1.0  0.6528424982645689  0.08622288470265  0.3759608417285989  1.0000
  C   C12       1.0  0.9140844556793581  0.3473375388155375  0.12413642937350033  1.0000
  C   C13       1.0  0.2545675381958716  0.8681869338309767  0.6924884223717812  1.0000
  C   C14       1.0  0.1315053431522983  0.745230667167263  0.8076211239077083  1.0000
  C   C15       1.0  0.7454344731362282  0.1318163247948405  0.3075127054712611  1.0000
  C   C16       1.0  0.8684944036537983  0.254769822401947  0.1923786067130919  1.0000
  C   C17       1.0  0.8691131974913587  0.059618711818664794  0.7166841742196368  1.0000
  C   C18       1.0  0.9410307202400433  0.1315246508319845  0.7839051883360711  1.0000
  C   C19       1.0  0.1308873209163508  0.9403808547316714  0.2833155551751432  1.0000
  C   C20       1.0  0.05897008669677459  0.8684767617560921  0.2160932018765891  1.0000
  C   C21       1.0  0.1302129935457899  0.5309666048472224  0.49682950611053667  1.0000
  C   C22       1.0  0.46894637752935614  0.8703154153447129  0.003113433798965601  1.0000
  C   C23       1.0  0.8697849215279874  0.4690338847219877  0.5031729226100126  1.0000
  C   C24       1.0  0.5310541408783535  0.1296841512056233  0.9968869738286159  1.0000
  C   C25       1.0  0.4274595801527852  0.352280304863271  0.6138791990540611  1.0000
  C   C26       1.0  0.6470450030756822  0.5724923007802403  0.8862591406753993  1.0000
  C   C27       1.0  0.5725391065225978  0.6477192616870724  0.38611983727648896  1.0000
  C   C28       1.0  0.35295691427067766  0.4275044967134889  0.11374057762561311  1.0000
  C   C29       1.0  0.1515934699816057  0.9192695671418178  0.7176247502042088  1.0000
  C   C30       1.0  0.08020162550955232  0.8479552832240317  0.7829170898546778  1.0000
  C   C31       1.0  0.8484081085568249  0.0807309224273922  0.28237431701523263  1.0000
  C   C32       1.0  0.9197990371627114  0.1520452063451785  0.21708400464743252  1.0000
  C   C33       1.0  0.2695720044303727  0.5681522660544829  0.49318647580630437  1.0000
  C   C34       1.0  0.4314241431851471  0.7315662958188796  0.006678645676238699  1.0000
  C   C35       1.0  0.7304269707741256  0.4318491465335939  0.5068139342733105  1.0000
  C   C36       1.0  0.5685754593563956  0.2684332707314638  0.9933210763028202  1.0000
  C   C37       1.0  0.3830565692167056  0.4623567662179227  0.6105965722266546  1.0000
  C   C38       1.0  0.537078489432588  0.61778668275862  0.8893369100291437  1.0000
  C   C39       1.0  0.6169422617232314  0.5376437233512874  0.38940450744402  1.0000
  C   C40       1.0  0.46292111310895473  0.3822128837917163  0.110662811949922  1.0000
  C   C41       1.0  0.3118710392209961  0.3380362776646564  0.3808777611000806  1.0000
  C   C42       1.0  0.6619392505283627  0.6881382579952131  0.1191204882733601  1.0000
  C   C43       1.0  0.6881277917189408  0.6619642119045537  0.6191226403377997  1.0000
  C   C44       1.0  0.3380591476179049  0.3118594625173827  0.8808792090065083  1.0000
  C   C45       1.0  0.6711250035363676  0.0646528567345044  0.6214965456445756  1.0000
  C   C46       1.0  0.9354524895060761  0.3290488429295024  0.8785671628552336  1.0000
  C   C47       1.0  0.3288772023391147  0.9353457867969652  0.3785031899399129  1.0000
  C   C48       1.0  0.06454556983225498  0.6709525696585814  0.1214325615758653  1.0000
  C   C49       1.0  0.0749704039579697  0.4290920891695293  0.5462226836733778  1.0000
  C   C50       1.0  0.5711706183379022  0.9254141037580155  0.953667664157976  1.0000
  C   C51       1.0  0.925028282717406  0.570907477380814  0.45377770912276116  1.0000
  C   C52       1.0  0.428831587537573  0.0745845397734541  0.046332749659306706  1.0000
  C   C53       1.0  0.05373403885123909  0.6014160200840095  0.4505726848174803  1.0000
  C   C54       1.0  0.39826490346663956  0.9464257053099346  0.04948136887369971  1.0000
  C   C55       1.0  0.9462631046209324  0.3985853925040672  0.5494290668962876  1.0000
  C   C56       1.0  0.6017374466733969  0.0535738612404018  0.9505197318181189  1.0000
  S   S1        1.0  0.7555382623150351  0.244236331059895  0.7499603973278255  1.0000
  S   S2        1.0  0.2444604243603479  0.7557632354904484  0.2500393172355189  1.0000
  S   S3        1.0  0.2650754215819759  0.734906701108649  0.7498454216405863  1.0000
  S   S4        1.0  0.7349256738839572  0.2650965575171682  0.2501543423211388  1.0000
  N   N1        1.0  0.4080633138960152  0.2938929002169033  0.5302309815866195  1.0000
  N   N2        1.0  0.7056063596154161  0.5915129506300261  0.9699409933814707  1.0000
  N   N3        1.0  0.5919364329100816  0.7061075893523068  0.46976942726697496  1.0000
  N   N4        1.0  0.2943914111938  0.4084866159203174  0.0300607484645496  1.0000
  N   N5        1.0  0.3368225673110885  0.4707645451028455  0.5234541156686205  1.0000
  N   N6        1.0  0.5289311310667202  0.6642385303997216  0.9763842170951875  1.0000
  N   N7        1.0  0.6631759750997404  0.5292340984286241  0.47654559025298243  1.0000
  N   N8        1.0  0.4710683272102613  0.335760113131748  0.0236154962421367  1.0000
  O   O1        1.0  0.3472869893191017  0.023572055896721605  0.5981717736733786  1.0000
  O   O2        1.0  0.9755933618065598  0.6521719047149404  0.9017489928794475  1.0000
  O   O3        1.0  0.6527133345452255  0.9764321257479693  0.4018279915143737  1.0000
  O   O4        1.0  0.024408072467309694  0.3478276618353959  0.09825006569825942  1.0000
  O   O5        1.0  0.599508345003038  0.1406043874541183  0.5980641118771431  1.0000
  O   O6        1.0  0.8590424055387162  0.40030220760188234  0.9018681473359393  1.0000
  O   O7        1.0  0.4004906302014605  0.8593970251339584  0.4019369764352732  1.0000
  O   O8        1.0  0.1409573412673879  0.5996982819673278  0.098130226819265  1.0000
  O   O9        1.0  0.6706147428934273  0.9553771423091675  0.5919056842169255  1.0000
  O   O10       1.0  0.045245091573193  0.3299386331199798  0.9082039417944047  1.0000
  O   O11       1.0  0.3293859197788436  0.0446233472600426  0.4080947320523904  1.0000
  O   O12       1.0  0.9547570640234682  0.6700655485247111  0.0917951599919888  1.0000
  O   O13       1.0  0.4174521636605134  0.8377079277316142  0.5973070615693389  1.0000
  O   O14       1.0  0.16243667472400597  0.5827018124989962  0.9024780502177238  1.0000
  O   O15       1.0  0.5825495591424711  0.1622934848564626  0.4026933707574329  1.0000
  O   O16       1.0  0.8375658196805844  0.4172986770702067  0.0975217026502335  1.0000
