data_image0
_chemical_formula_structural       Ag4H28C20N4Cl4O24
_chemical_formula_sum              "Ag4 H28 C20 N4 Cl4 O24"
_cell_length_a       7.475558454253203
_cell_length_b       10.565675648969851
_cell_length_c       11.669760628125438
_cell_angle_alpha    80.90939165913228
_cell_angle_beta     88.23945278985524
_cell_angle_gamma    77.1781677806132

_space_group_name_H-M_alt    "P 1"
_space_group_IT_number       1

loop_
  _space_group_symop_operation_xyz
  'x, y, z'

loop_
  _atom_site_type_symbol
  _atom_site_label
  _atom_site_symmetry_multiplicity
  _atom_site_fract_x
  _atom_site_fract_y
  _atom_site_fract_z
  _atom_site_occupancy
  Ag  Ag1       1.0  0.0829252078845571  0.8184425927431532  0.028308552008908822  1.0000
  Ag  Ag2       1.0  0.9170734068991993  0.18155602141733598  0.9716903260824805  1.0000
  Ag  Ag3       1.0  0.49999932478818476  0.5000009577803368  6.794325316009272e-07  1.0000
  Ag  Ag4       1.0  1.4971129762827436e-07  0.5000008014883405  4.478627105085058e-07  1.0000
  H   H1        1.0  0.9176290840788116  0.9443860887738889  0.23697821265160005  1.0000
  H   H2        1.0  0.08237323397920453  0.05561352097705449  0.763020444590495  1.0000
  H   H3        1.0  0.8944804416753273  0.902618876352633  0.45450734020378286  1.0000
  H   H4        1.0  0.10552156873745842  0.09738171591713038  0.5454911759568688  1.0000
  H   H5        1.0  0.7303207161201545  0.7291977197855954  0.5477524739572813  1.0000
  H   H6        1.0  0.26967830979502594  0.270803853841457  0.45224681016745893  1.0000
  H   H7        1.0  0.5892239168125715  0.6087939387216463  0.4174331149528142  1.0000
  H   H8        1.0  0.4107737750354803  0.39120762299532424  0.5825653398942308  1.0000
  H   H9        1.0  0.6168247839290616  0.6661927086733567  0.2020147464405326  1.0000
  H   H10       1.0  0.3831748572765862  0.33380689991604123  0.7979848198471019  1.0000
  H   H11       1.0  0.08178465429044489  0.5472425728076685  0.7651341301936796  1.0000
  H   H12       1.0  0.9182170455710622  0.4527590095337997  0.23486510075249353  1.0000
  H   H13       1.0  0.10722686027683892  0.6083260169473519  0.5489345184786814  1.0000
  H   H14       1.0  0.8927738073506931  0.3916745860709553  0.45106573600519784  1.0000
  H   H15       1.0  0.27590998276365053  0.7844518032473641  0.4707948801196906  1.0000
  H   H16       1.0  0.7240930540710195  0.2155497834513155  0.5292043242371918  1.0000
  H   H17       1.0  0.4170454664973493  0.8897715977762245  0.6143107586357885  1.0000
  H   H18       1.0  0.5829578692644191  0.11022902906224626  0.38569115440347446  1.0000
  H   H19       1.0  0.3837545692338724  0.8138721236222249  0.8283931482253166  1.0000
  H   H20       1.0  0.6162447585144478  0.18612848259174794  0.17160798871482538  1.0000
  H   H21       1.0  0.368781348952446  0.9243161058492433  0.07948991562573575  1.0000
  H   H22       1.0  0.6312172600192271  0.07568252341699376  0.9205106741996045  1.0000
  H   H23       1.0  0.2961483813744649  0.0030491365290146  0.9599436800748363  1.0000
  H   H24       1.0  0.7038515616643296  0.996949504647304  0.04005773902819953  1.0000
  H   H25       1.0  0.2792449004126995  0.29775831049474266  0.11227070945031412  1.0000
  H   H26       1.0  0.7207547378868997  0.7022413056475328  0.887729712704292  1.0000
  H   H27       1.0  0.27562488424465675  0.27402946803265127  0.9816975446476446  1.0000
  H   H28       1.0  0.7243747569609841  0.7259701405567468  0.018302021639989632  1.0000
  C   C1        1.0  0.8449703244726126  0.8733199160711889  0.28300511991007943  1.0000
  C   C2        1.0  0.15503065661224016  0.12667968932254325  0.7169935639212992  1.0000
  C   C3        1.0  0.83136948509587  0.8475552869033365  0.4024487588430645  1.0000
  C   C4        1.0  0.1686304637550081  0.15244333916724168  0.5975509485260204  1.0000
  C   C5        1.0  0.7394526031047663  0.7518184289423429  0.45374306789055646  1.0000
  C   C6        1.0  0.26054642281040696  0.2481831446847095  0.546256216234184  1.0000
  C   C7        1.0  0.6618379586480216  0.6846476833120433  0.3819396027053443  1.0000
  C   C8        1.0  0.3381600379392253  0.31535290343897765  0.6180598490901231  1.0000
  C   C9        1.0  0.6763562945228119  0.7136658010883534  0.26254395449604573  1.0000
  C   C10       1.0  0.32364200970966556  0.28633380314384027  0.7374556383808724  1.0000
  C   C11       1.0  0.155071231092201  0.6210813838772393  0.7254799003189021  1.0000
  C   C12       1.0  0.8449297412745198  0.37891824417511794  0.27452135111340675  1.0000
  C   C13       1.0  0.1699615639345994  0.6572935697912995  0.606936157178545  1.0000
  C   C14       1.0  0.830040133020859  0.3427080201030464  0.3930639296346001  1.0000
  C   C15       1.0  0.26458178379503755  0.7544924346370862  0.56390143850993  1.0000
  C   C16       1.0  0.7354202149935747  0.24550818784418024  0.4361005011186164  1.0000
  C   C17       1.0  0.34237884226658394  0.8131355546244091  0.6429839606744068  1.0000
  C   C18       1.0  0.6576218253609484  0.18686504839389775  0.3570162938094723  1.0000
  C   C19       1.0  0.3263565475926741  0.7741076287885418  0.7610610131703408  1.0000
  C   C20       1.0  0.6736441200348579  0.22589297422976523  0.23893924131353828  1.0000
  N   N1        1.0  0.7675379276203389  0.8066093165012089  0.21572673938299408  1.0000
  N   N2        1.0  0.23246202413658787  0.19338930201649154  0.784272112119119  1.0000
  N   N3        1.0  0.23398291945699168  0.678798393027371  0.8000742051718105  1.0000
  N   N4        1.0  0.7660167217486561  0.32120121556202713  0.19992536111582374  1.0000
  Cl  Cl1       1.0  0.7682282727376092  0.9245486160739558  0.7469556866047142  1.0000
  Cl  Cl2       1.0  0.2317727025351601  0.07545100442552408  0.2530447089606156  1.0000
  Cl  Cl3       1.0  0.24387144935666077  0.588823628395417  0.26211609448814943  1.0000
  Cl  Cl4       1.0  0.7561295259161015  0.4111759921040629  0.737884301077173  1.0000
  O   O1        1.0  0.7813203783896584  0.8339031144050608  0.09930366058070207  1.0000
  O   O2        1.0  0.21867957046121947  0.16609551166551023  0.9006960467883899  1.0000
  O   O3        1.0  0.2223451620782769  0.6403404879677125  0.9148650477719186  1.0000
  O   O4        1.0  0.7776555084552967  0.35966010749772437  0.0851343508449887  1.0000
  O   O5        1.0  0.33301568711029034  0.9114658734004447  0.0024183519808290304  1.0000
  O   O6        1.0  0.6669826142161455  0.0885337383846263  0.997582096763068  1.0000
  O   O7        1.0  0.2806216568064103  0.34234432478346116  0.031175653147009496  1.0000
  O   O8        1.0  0.7193766445200256  0.657655287001603  0.9688247955968804  1.0000
  O   O9        1.0  0.9151815970941615  0.9226697756630099  0.8285007626355211  1.0000
  O   O10       1.0  0.08481670713832302  0.07732982856918368  0.1714988302413971  1.0000
  O   O11       1.0  0.594810606803762  0.9998326318045226  0.7865313265998493  1.0000
  O   O12       1.0  0.4051893391410744  0.00016600181892559903  0.21346923663621445  1.0000
  O   O13       1.0  0.8117066222516416  0.9828835462348878  0.6315312403536808  1.0000
  O   O14       1.0  0.18829167616875256  0.017116073103061097  0.3684700642571882  1.0000
  O   O15       1.0  0.750681292194287  0.7888877462096672  0.7451232209923403  1.0000
  O   O16       1.0  0.24931937543324523  0.21111285680863995  0.25487703349153884  1.0000
  O   O17       1.0  0.41855472688322964  0.5197372574181357  0.21805429985376887  1.0000
  O   O18       1.0  0.5814486117845876  0.4802633618674576  0.7819467573185149  1.0000
  O   O19       1.0  0.2045624170225225  0.5190039551979594  0.37427683024863256  1.0000
  O   O20       1.0  0.7954382506050095  0.4809966478203478  0.6257234242352466  1.0000
  O   O21       1.0  0.25332318333671844  0.7233673583553324  0.2708446856699851  1.0000
  O   O22       1.0  0.7466761473176433  0.27663324030577024  0.7291555954031779  1.0000
  O   O23       1.0  0.09554611118019814  0.5930943585055033  0.1792935877798314  1.0000
  O   O24       1.0  0.9044548640925641  0.4069052619939767  0.8207068077854914  1.0000
