data_image0
_chemical_formula_structural       AlH15C30O12
_chemical_formula_sum              "Al1 H15 C30 O12"
_cell_length_a       4.089148522391433
_cell_length_b       16.0405554946108
_cell_length_c       16.012672655833835
_cell_angle_alpha    119.98794138514374
_cell_angle_beta     89.41373771045376
_cell_angle_gamma    90.19589939840768

_space_group_name_H-M_alt    "P 1"
_space_group_IT_number       1

loop_
  _space_group_symop_operation_xyz
  'x, y, z'

loop_
  _atom_site_type_symbol
  _atom_site_label
  _atom_site_symmetry_multiplicity
  _atom_site_fract_x
  _atom_site_fract_y
  _atom_site_fract_z
  _atom_site_occupancy
  Al  Al1       1.0  0.9821395904293554  0.5001246829488224  0.49682666423581884  1.0000
  H   H1        1.0  0.5194884794324891  0.9235884764807876  0.07973378510080649  1.0000
  H   H2        1.0  0.4907379318848655  0.6535369106964027  0.07534903143683638  1.0000
  H   H3        1.0  0.5498432595724123  0.9185618320774437  0.3453068765745826  1.0000
  H   H4        1.0  0.7051538033968895  0.23823227795082863  0.2552308976567161  1.0000
  H   H5        1.0  0.7449872144163051  0.0616190600767439  0.1629196489881011  1.0000
  H   H6        1.0  0.2936257794875273  0.0487731437946763  0.4014098830425184  1.0000
  H   H7        1.0  0.2934491540345051  0.8504603624169959  0.949682885749901  1.0000
  H   H8        1.0  0.7026798508425857  0.5154577324757312  0.7592751530442501  1.0000
  H   H9        1.0  0.7364187435270183  0.5998087384643185  0.9361589136214976  1.0000
  H   H10       1.0  0.7819737107194912  0.6029202332921597  0.1571234098040079  1.0000
  H   H11       1.0  0.2385045751960106  0.7408302149547481  0.47763003854841907  1.0000
  H   H12       1.0  0.24955309616707672  0.8342138106556122  0.39267363261162563  1.0000
  H   H13       1.0  0.9805036686734492  0.3292918259483886  0.5231612258214612  1.0000
  H   H14       1.0  0.991868428845379  0.6940296290357679  0.6692386582874549  1.0000
  H   H15       1.0  0.3717503444130514  0.4200371851131451  0.20104092269133392  1.0000
  C   C1        1.0  0.47651645692651107  0.5800682233898725  0.6469764862479864  1.0000
  C   C2        1.0  0.4850813492401755  0.5671604570037873  0.41915103707709994  1.0000
  C   C3        1.0  0.4776818010268542  0.3508214214915951  0.43201643933139183  1.0000
  C   C4        1.0  0.5156047728361843  0.7823134447554665  0.06470433382898481  1.0000
  C   C5        1.0  0.5208880690921448  0.8832523167654714  0.1178658892430917  1.0000
  C   C6        1.0  0.5241676778213603  0.9336175989962286  0.21884410828928227  1.0000
  C   C7        1.0  0.5309121089812905  0.8807675077153759  0.26700972792248484  1.0000
  C   C8        1.0  0.5224313727270201  0.7799479507533675  0.21614330027738043  1.0000
  C   C9        1.0  0.5127296542051879  0.7317064610809962  0.11507447945656678  1.0000
  C   C10       1.0  0.6120201084482773  0.19597334056594212  0.2865566812595262  1.0000
  C   C11       1.0  0.6314616136164518  0.09605995512222171  0.23437060011291785  1.0000
  C   C12       1.0  0.5149850933176551  0.0401719859519218  0.2736457126544281  1.0000
  C   C13       1.0  0.3860974925922562  0.08853139556498493  0.36744662104405285  1.0000
  C   C14       1.0  0.37005874099362757  0.1889413927791921  0.422119542007728  1.0000
  C   C15       1.0  0.4803902072277566  0.24318659152550026  0.380382194175688  1.0000
  C   C16       1.0  0.3829845191828554  0.7766567297592601  0.9098799107125118  1.0000
  C   C17       1.0  0.3717216018339967  0.7310742090779245  0.8093737358309598  1.0000
  C   C18       1.0  0.47832581270314023  0.6350213049757729  0.7548036979207142  1.0000
  C   C19       1.0  0.6071579147946194  0.58855074227251  0.8017059515788322  1.0000
  C   C20       1.0  0.6228913272713115  0.6362623529003602  0.9017859103137414  1.0000
  C   C21       1.0  0.5051562088934247  0.7310020929631165  0.9580874396736406  1.0000
  C   C22       1.0  0.6574586910248358  0.6334849507558292  0.22675325320300754  1.0000
  C   C23       1.0  0.6432198384052586  0.5793414935572091  0.27280209943155154  1.0000
  C   C24       1.0  0.49282296385491253  0.6187149932903111  0.3643280304913432  1.0000
  C   C25       1.0  0.35358304850548444  0.710955202663847  0.4066714094836429  1.0000
  C   C26       1.0  0.365269602613651  0.7635202898384534  0.35930431592719  1.0000
  C   C27       1.0  0.5166374696536239  0.7255265061409232  0.26816447820230127  1.0000
  C   C28       1.0  0.2601493586774524  0.22980606166930073  0.525480465940433  1.0000
  C   C29       1.0  0.27592387036781924  0.7938441082807728  0.7682521124299271  1.0000
  C   C30       1.0  0.790274431105317  0.4802286161079508  0.2205999783549188  1.0000
  O   O1        1.0  0.2460654019431132  0.3912720687439732  0.4133568290091248  1.0000
  O   O2        1.0  0.24347575221194254  0.5217590703182964  0.6059083597172759  1.0000
  O   O3        1.0  0.2474465986182182  0.5855461958383826  0.4782836149255373  1.0000
  O   O4        1.0  0.7153143531875942  0.39529327585420754  0.4889689810771145  1.0000
  O   O5        1.0  0.7175258060143578  0.5081266897698311  0.4055187067234344  1.0000
  O   O6        1.0  0.7179419894157563  0.593326245169017  0.6030083999084824  1.0000
  O   O7        1.0  0.0894647295824242  0.31334146407283486  0.5684053486261649  1.0000
  O   O8        1.0  0.33213697915588364  0.18966704850326005  0.5702364447416884  1.0000
  O   O9        1.0  0.107391428798266  0.7543518499656444  0.6848609600903616  1.0000
  O   O10       1.0  0.3586177529924086  0.87791209110096  0.807888767195685  1.0000
  O   O11       1.0  0.6138892282056433  0.4035932018314484  0.1998927872955535  1.0000
  O   O12       1.0  0.08001881037480271  0.4723533046600749  0.19492119032714328  1.0000
