data_image0
_chemical_formula_structural       K2CaZrH16C8O24
_chemical_formula_sum              "K2 Ca1 Zr1 H16 C8 O24"
_cell_length_a       8.77501343375419
_cell_length_b       9.196935912559479
_cell_length_c       9.19694690693846
_cell_angle_alpha    76.84531129484955
_cell_angle_beta     61.505890951979595
_cell_angle_gamma    61.50550541565896

_space_group_name_H-M_alt    "P 1"
_space_group_IT_number       1

loop_
  _space_group_symop_operation_xyz
  'x, y, z'

loop_
  _atom_site_type_symbol
  _atom_site_label
  _atom_site_symmetry_multiplicity
  _atom_site_fract_x
  _atom_site_fract_y
  _atom_site_fract_z
  _atom_site_occupancy
  K   K1        1.0  0.49999921430968197  0.9999964451932256  2.4451932887000004e-06  1.0000
  K   K2        1.0  0.7500025452888718  0.4999975887400653  0.4999954673437799  1.0000
  Ca  Ca1       1.0  0.2499969096283721  0.5000015986785654  0.4999999028775548  1.0000
  Zr  Zr1       1.0  8.029827362743108e-06  0.9999983199000083  0.9999955808712572  1.0000
  H   H1        1.0  0.3816756497004403  0.8436057639025734  0.3463350069248747  1.0000
  H   H2        1.0  0.5716129828770417  0.15639409767032222  0.6536704439495296  1.0000
  H   H3        1.0  0.2719914187050632  0.3463320835003216  0.1563927991832728  1.0000
  H   H4        1.0  0.7747174233475032  0.6536649899979494  0.8436060993518737  1.0000
  H   H5        1.0  0.45360879824867334  0.9242944793432954  0.42172425091115423  1.0000
  H   H6        1.0  0.7996256092501425  0.07570530640646927  0.5782800235061598  1.0000
  H   H7        1.0  0.12466838918420109  0.42172159165656353  0.0757077083061972  1.0000
  H   H8        1.0  0.6220958227909107  0.5782796453411195  0.92429484107884  1.0000
  H   H9        1.0  0.6295196746299465  0.9225701375025538  0.575448048989614  1.0000
  H   H10       1.0  0.12753244802151897  0.07743454019271206  0.4245507485374986  1.0000
  H   H11       1.0  0.79503330421646  0.5754481398500675  0.0774336197122096  1.0000
  H   H12       1.0  0.44791041394196884  0.4245552939053495  0.9225682207426402  1.0000
  H   H13       1.0  0.4737348178338506  0.8521402134343959  0.6620542791296415  1.0000
  H   H14       1.0  0.987923903871717  0.14786061576815981  0.3379479406297606  1.0000
  H   H15       1.0  0.8642135887838476  0.6620533710838714  0.1478606027874179  1.0000
  H   H16       1.0  0.6741264926253191  0.33794853383105317  0.8521376046815448  1.0000
  C   C1        1.0  0.19861514819198337  0.7815354580070633  0.22448038454117383  1.0000
  C   C2        1.0  0.2046268615708228  0.2184626522711213  0.7755210378287387  1.0000
  C   C3        1.0  0.5769066961870378  0.2244775135900384  0.2184634713741289  1.0000
  C   C4        1.0  0.019855104249117343  0.7755174372550541  0.7815371919370548  1.0000
  C   C5        1.0  0.04398360378986155  0.7264648945485063  0.2617245281464591  1.0000
  C   C6        1.0  0.03216768212833182  0.27353630409708524  0.7382781771774702  1.0000
  C   C7        1.0  0.6942929866470138  0.26172085328822453  0.2735326941997727  1.0000
  C   C8        1.0  0.22955100106913287  0.7382813416816345  0.7264654491080121  1.0000
  O   O1        1.0  0.20651721729004166  0.895397714684499  0.1153646593631521  1.0000
  O   O2        1.0  0.21727993195246836  0.10460017769656824  0.8846354452032088  1.0000
  O   O3        1.0  0.6781259838450138  0.11536050993095165  0.10459576202067211  1.0000
  O   O4        1.0  0.8980834885747698  0.8846375727194629  0.8953973481619711  1.0000
  O   O5        1.0  0.9422931930903286  0.8065554017001945  0.1791647646002303  1.0000
  O   O6        1.0  0.9280109506562152  0.1934482598762771  0.82083708956376  1.0000
  O   O7        1.0  0.8785472943722608  0.17916070694781913  0.1934423828805976  1.0000
  O   O8        1.0  0.25115119038309774  0.8208345205471446  0.8065537157737593  1.0000
  O   O9        1.0  0.3011533212153523  0.7146134767873137  0.3012512942852723  1.0000
  O   O10       1.0  0.31701453252248524  0.2853876501888378  0.6987492851242151  1.0000
  O   O11       1.0  0.39759905129159984  0.3012485178413371  0.28538764467365496  1.0000
  O   O12       1.0  0.9842300937054489  0.698748371488712  0.7146148881588701  1.0000
  O   O13       1.0  0.027827811329764463  0.6136175948685717  0.36285182702690133  1.0000
  O   O14       1.0  0.004293958093903315  0.38638548495051595  0.637147339469962  1.0000
  O   O15       1.0  0.6093199081364773  0.36285100507189605  0.3863857779073783  1.0000
  O   O16       1.0  0.3585666929747403  0.637140780027586  0.6136121925577527  1.0000
  O   O17       1.0  0.3790124053990737  0.948796150195854  0.3579407453375012  1.0000
  O   O18       1.0  0.6857477865736353  0.05120678778632032  0.6420605568100016  1.0000
  O   O19       1.0  0.2630455258143981  0.3579398172590018  0.051206702827450094  1.0000
  O   O20       1.0  0.6721934435820315  0.6420576662012537  0.9487963444606037  1.0000
  O   O21       1.0  0.5745633152782827  0.8609829172205751  0.5542832583275015  1.0000
  O   O22       1.0  0.989824825340072  0.13902653785987712  0.4457148470456076  1.0000
  O   O23       1.0  0.8711446501410051  0.5542858514135318  0.13902610565270382  1.0000
  O   O24       1.0  0.5644550013821356  0.4457177601635751  0.8609799278809618  1.0000
