data_image0
_chemical_formula_structural       Cd4H24C28N24O8
_chemical_formula_sum              "Cd4 H24 C28 N24 O8"
_cell_length_a       6.774389012141021
_cell_length_b       9.855519942181045
_cell_length_c       13.230470021070806
_cell_angle_alpha    89.99980394954196
_cell_angle_beta     89.99967813239552
_cell_angle_gamma    89.99933456454356

_space_group_name_H-M_alt    "P 1"
_space_group_IT_number       1

loop_
  _space_group_symop_operation_xyz
  'x, y, z'

loop_
  _atom_site_type_symbol
  _atom_site_label
  _atom_site_symmetry_multiplicity
  _atom_site_fract_x
  _atom_site_fract_y
  _atom_site_fract_z
  _atom_site_occupancy
  Cd  Cd1       1.0  0.7499940983949287  0.8684452247936816  0.49999969454437837  1.0000
  Cd  Cd2       1.0  0.2500007688794597  0.13155573575294  9.818172373000005e-07  1.0000
  Cd  Cd3       1.0  0.25000690110029217  0.1315556037745864  0.4999998472683417  1.0000
  Cd  Cd4       1.0  0.7499972783371617  0.8684430635074705  0.9999985600023394  1.0000
  H   H1        1.0  0.4306594352218411  0.8758439595642784  0.6844561792890717  1.0000
  H   H2        1.0  0.5693422786083744  0.12415716961366742  0.18445656082529646  1.0000
  H   H3        1.0  0.0693476804518198  0.8758462460040588  0.31554539443213514  1.0000
  H   H4        1.0  0.9306496523882756  0.12415326729261979  0.8155469957328665  1.0000
  H   H5        1.0  0.569340088121379  0.12415686900813937  0.3155441183568258  1.0000
  H   H6        1.0  0.43065576858283805  0.8758436589629002  0.8155444926537855  1.0000
  H   H7        1.0  0.9306518428914006  0.12415458256835882  0.6844549032137621  1.0000
  H   H8        1.0  0.06934987096352781  0.8758465466199891  0.18445330191432427  1.0000
  H   H9        1.0  0.8722301056895887  0.34801421406855587  0.6505178880816517  1.0000
  H   H10       1.0  0.1277690257599531  0.6519870707905044  0.1505121540992604  1.0000
  H   H11       1.0  0.627780180517334  0.3480097909807967  0.34949189948034853  1.0000
  H   H12       1.0  0.3722212108434206  0.6519885519621339  0.8494862119414535  1.0000
  H   H13       1.0  0.12776941765362443  0.6519866145038619  0.34948240956424576  1.0000
  H   H14       1.0  0.8722319737356088  0.3480127431144808  0.8494888993768442  1.0000
  H   H15       1.0  0.3722193428344696  0.6519900229318126  0.6505083981668494  1.0000
  H   H16       1.0  0.6277783125001476  0.3480112619470077  0.15051559736783562  1.0000
  H   H17       1.0  0.8646981547764199  0.6024980407312768  0.6446485460947003  1.0000
  H   H18       1.0  0.1353010406215134  0.397502256375418  0.1446479749234655  1.0000
  H   H19       1.0  0.6353033979253342  0.6024945453787114  0.35535454519838794  1.0000
  H   H20       1.0  0.3647008818075079  0.3975047853152205  0.8553525523956156  1.0000
  H   H21       1.0  0.1353028447273843  0.39750177317718277  0.3553509957193128  1.0000
  H   H22       1.0  0.8646984827306311  0.6024965428739149  0.855353834387117  1.0000
  H   H23       1.0  0.3646916969697712  0.39750729787290606  0.6446449966215795  1.0000
  H   H24       1.0  0.6353030699924105  0.6024940139181824  0.144648501077512  1.0000
  C   C1        1.0  0.7500368565470907  0.17629807862082467  0.5000096478921918  1.0000
  C   C2        1.0  0.249974248296688  0.8237018671735186  3.1217439584e-06  1.0000
  C   C3        1.0  0.24997152368788997  0.823701735254744  0.4999914055732263  1.0000
  C   C4        1.0  0.7500233436736821  0.17629719600172677  0.9999964216631909  1.0000
  C   C5        1.0  0.7500089987457488  0.32847269853206024  0.5000049187148363  1.0000
  C   C6        1.0  0.24999518066664453  0.6715269834028774  0.9999965118787344  1.0000
  C   C7        1.0  0.24999200075393455  0.6715271153746655  0.49999537893022256  1.0000
  C   C8        1.0  0.7500043426724545  0.3284738451678066  4.541598215699999e-06  1.0000
  C   C9        1.0  0.8175343121874333  0.40109651289199644  0.5839027302408013  1.0000
  C   C10       1.0  0.18246554528309392  0.5989020335042384  0.08390075255334038  1.0000
  C   C11       1.0  0.6824765521528919  0.4010974361302431  0.4161031426527941  1.0000
  C   C12       1.0  0.3175255893471132  0.598903645274838  0.9160992606605023  1.0000
  C   C13       1.0  0.1824666873036662  0.5989043156745383  0.41609756740295734  1.0000
  C   C14       1.0  0.8175369303864457  0.4010937217521615  0.9161018125878968  1.0000
  C   C15       1.0  0.31752297118998024  0.5989044071054579  0.5838956433297113  1.0000
  C   C16       1.0  0.6824754101700776  0.4010931246489875  0.0839025486505349  1.0000
  C   C17       1.0  0.8133054484612146  0.5421139572479419  0.5808558014243701  1.0000
  C   C18       1.0  0.1866973945095864  0.45788764710005125  0.08084963647939963  1.0000
  C   C19       1.0  0.6867000780102759  0.5421107741656003  0.41915424648707506  1.0000
  C   C20       1.0  0.3133035064121755  0.45788826392467297  0.9191484692020355  1.0000
  C   C21       1.0  0.1866925987382402  0.45788687133209294  0.4191437403926202  1.0000
  C   C22       1.0  0.8133080334169309  0.5421131814453587  0.9191521728200487  1.0000
  C   C23       1.0  0.31329944534599014  0.45788802508546655  0.5808468069924616  1.0000
  C   C24       1.0  0.6866974930662267  0.5421135792999365  0.08085258427148291  1.0000
  C   C25       1.0  0.6982509473297469  0.8510809844265097  0.749999980178089  1.0000
  C   C26       1.0  0.30174709986112447  0.14892085881333364  0.2499995616376083  1.0000
  C   C27       1.0  0.8017833037794445  0.8510827329514186  0.24999945316821484  1.0000
  C   C28       1.0  0.19822064800742814  0.1489180956033422  0.7500008444712735  1.0000
  N   N1        1.0  0.7499977398949156  0.6124475691670597  0.4999992654562675  1.0000
  N   N2        1.0  0.25000007967970106  0.3875523767062461  2.1667334167000003e-06  1.0000
  N   N3        1.0  0.2500003073086532  0.387553259414709  0.499999520529677  1.0000
  N   N4        1.0  0.7500019407391322  0.6124446571265241  0.9999996441630474  1.0000
  N   N5        1.0  0.49816651847426396  0.8468323868302366  0.7499934727874448  1.0000
  N   N6        1.0  0.5018330048940101  0.1531674270893078  0.2500038015355628  1.0000
  N   N7        1.0  0.0018130412785951  0.8468294242905828  0.24999759340481387  1.0000
  N   N8        1.0  0.998185005929095  0.1531714042929266  0.750000436750085  1.0000
  N   N9        1.0  0.8142456542452052  0.8475476669598336  0.6669596830192078  1.0000
  N   N10       1.0  0.1857547740902419  0.1524555717823546  0.1669633704645079  1.0000
  N   N11       1.0  0.6857502768257717  0.8475459010107044  0.3330390035756636  1.0000
  N   N12       1.0  0.31424686536497143  0.1524525173926321  0.8330408057276915  1.0000
  N   N13       1.0  0.18575386909766683  0.1524541762758673  0.33303910296330497  1.0000
  N   N14       1.0  0.8142462254049719  0.8475452567859065  0.8330361713482048  1.0000
  N   N15       1.0  0.3142492465215625  0.152454927563447  0.6669605382391879  1.0000
  N   N16       1.0  0.6857526579909461  0.8475472965217109  0.1669587360884606  1.0000
  N   N17       1.0  0.0043909638028338995  0.8381469505246388  0.7009536129395146  1.0000
  N   N18       1.0  0.9956090940621748  0.16185410298766098  0.20095719899996575  1.0000
  N   N19       1.0  0.4956108850499986  0.8381459138515834  0.299043522038076  1.0000
  N   N20       1.0  0.5043895799447071  0.16185266045891922  0.7990447496525946  1.0000
  N   N21       1.0  0.9956085595445004  0.16185387804952  0.29904592887533715  1.0000
  N   N22       1.0  0.0043904292937427  0.8381457109266818  0.7990423428161791  1.0000
  N   N23       1.0  0.5043901144496842  0.1618539000551422  0.7009567756069757  1.0000
  N   N24       1.0  0.49560994340708936  0.83814715345369  0.20095554799459592  1.0000
  O   O1        1.0  0.8958938704976945  0.11378117339755531  0.5387367876812164  1.0000
  O   O2        1.0  0.10411238377229641  0.8862226534254135  0.0387343034205188  1.0000
  O   O3        1.0  0.6041115214738753  0.1137652650913381  0.4612645278669092  1.0000
  O   O4        1.0  0.3958945563153904  0.8862305358683361  0.961260441320235  1.0000
  O   O5        1.0  0.10410860513236031  0.8862216844861808  0.4612619982957256  1.0000
  O   O6        1.0  0.8958841872964384  0.1137761458408875  0.9612652384012038  1.0000
  O   O7        1.0  0.395889478059793  0.886231504839415  0.5387342581199378  1.0000
  O   O8        1.0  0.6041020147275945  0.113771307377398  0.0387391004975939  1.0000
