data_image0
_chemical_formula_structural       K2Cu2H48C24Br4O12
_chemical_formula_sum              "K2 Cu2 H48 C24 Br4 O12"
_cell_length_a       8.003215433043378
_cell_length_b       8.736985469321832
_cell_length_c       13.804084887243464
_cell_angle_alpha    103.22788469654954
_cell_angle_beta     89.99968936988272
_cell_angle_gamma    89.9998748061503

_space_group_name_H-M_alt    "P 1"
_space_group_IT_number       1

loop_
  _space_group_symop_operation_xyz
  'x, y, z'

loop_
  _atom_site_type_symbol
  _atom_site_label
  _atom_site_symmetry_multiplicity
  _atom_site_fract_x
  _atom_site_fract_y
  _atom_site_fract_z
  _atom_site_occupancy
  K   K1        1.0  0.9999885659778869  0.9999979335689417  0.9999989516125538  1.0000
  K   K2        1.0  0.4999986562340766  0.5000001375053104  0.4999985566608133  1.0000
  Cu  Cu1       1.0  0.49999153879518576  7.416387823900002e-06  7.504919928200001e-06  1.0000
  Cu  Cu2       1.0  8.699004183999994e-07  0.4999998124583344  0.5000000350320875  1.0000
  H   H1        1.0  0.9281839505331604  0.695276358927906  0.7454727707345656  1.0000
  H   H2        1.0  0.42818099762887835  0.8047219789818814  0.7545300766258265  1.0000
  H   H3        1.0  0.07182210840258559  0.3047204122532392  0.2545289122461583  1.0000
  H   H4        1.0  0.5718150653123998  0.19527597801062774  0.2454739493093427  1.0000
  H   H5        1.0  0.13358859577801496  0.6616874807809978  0.6943209776142679  1.0000
  H   H6        1.0  0.633585665298554  0.8383118322046389  0.805677881512679  1.0000
  H   H7        1.0  0.86641621366995  0.33830928035815333  0.3056785306531467  1.0000
  H   H8        1.0  0.3664141461518327  0.16168845619389324  0.19432213142516733  1.0000
  H   H9        1.0  0.18669917111677845  0.954955028309421  0.7459990314564706  1.0000
  H   H10       1.0  0.6867023941313732  0.5450452603129534  0.7539954506422433  1.0000
  H   H11       1.0  0.8133006403557701  0.0450440642505754  0.2539964638297363  1.0000
  H   H12       1.0  0.3133036648258524  0.4549561837370675  0.2460003810732587  1.0000
  H   H13       1.0  0.029556580108717898  0.8964776581330656  0.6522959566250109  1.0000
  H   H14       1.0  0.5295625543916103  0.6035196492506714  0.8477014997756029  1.0000
  H   H15       1.0  0.9704432313635675  0.10351791387208921  0.3477004838103923  1.0000
  H   H16       1.0  0.47044725304751706  0.39647711188001017  0.15229800848258893  1.0000
  H   H17       1.0  0.906138617574939  0.16148973801484354  0.7048155274070282  1.0000
  H   H18       1.0  0.40613771147717154  0.33850762905393594  0.7951843083610868  1.0000
  H   H19       1.0  0.09386369287864228  0.8385081955308068  0.2951834241801948  1.0000
  H   H20       1.0  0.5938658484739392  0.6614867839347625  0.20481558837301617  1.0000
  H   H21       1.0  0.0707151827615959  0.20838506647450572  0.794268921140663  1.0000
  H   H22       1.0  0.5707170280881826  0.29160872778864194  0.7057300285567936  1.0000
  H   H23       1.0  0.9292858781884588  0.7916105256167685  0.20573186872366023  1.0000
  H   H24       1.0  0.4292865318683994  0.7083845061017087  0.2942689750517006  1.0000
  H   H25       1.0  0.8041862576781682  0.37088091526767647  0.8340895287837995  1.0000
  H   H26       1.0  0.3041832774468105  0.129119148866252  0.66591101930306  1.0000
  H   H27       1.0  0.19581480328189824  0.6291146667794794  0.16590908636491264  1.0000
  H   H28       1.0  0.6958165340133319  0.8708776089333343  0.3340877640683574  1.0000
  H   H29       1.0  0.7017687818975276  0.19879560254226186  0.853665113791827  1.0000
  H   H30       1.0  0.20176933093203078  0.3012071635718314  0.6463368732234258  1.0000
  H   H31       1.0  0.2982310295580746  0.8011999862030948  0.14633495116959955  1.0000
  H   H32       1.0  0.7982329795039291  0.698793134866584  0.3536653144254275  1.0000
  H   H33       1.0  0.6700026997866074  0.33275248668717694  0.026199951746946195  1.0000
  H   H34       1.0  0.16999929916373444  0.1672459423825146  0.4738072337053794  1.0000
  H   H35       1.0  0.3299996106436182  0.6672454702947449  0.9738040741767051  1.0000
  H   H36       1.0  0.8299967637820771  0.8327531836642239  0.5261955106397878  1.0000
  H   H37       1.0  0.7848564209546609  0.5006564951661403  0.009010742849120809  1.0000
  H   H38       1.0  0.2848595888996286  0.9993425466373438  0.4909896882494849  1.0000
  H   H39       1.0  0.21514089151229135  0.49934260744220893  0.9909869271573087  1.0000
  H   H40       1.0  0.7151402225574373  0.0006577350651114005  0.5090088748779494  1.0000
  H   H41       1.0  0.0106359071110802  0.4381185328657581  0.12168103484436442  1.0000
  H   H42       1.0  0.5106279520257644  0.061885082459788486  0.3783150876569721  1.0000
  H   H43       1.0  0.9893689023386045  0.5618864417853403  0.8783160264398617  1.0000
  H   H44       1.0  0.48936436244601816  0.9381198922124838  0.6216819736502899  1.0000
  H   H45       1.0  0.8129693434239301  0.4876717375739475  0.18147737256265373  1.0000
  H   H46       1.0  0.3129602329244108  0.012332058896319602  0.31852432767657035  1.0000
  H   H47       1.0  0.18703796501345948  0.5123320713667212  0.8185216952121763  1.0000
  H   H48       1.0  0.6870320815340276  0.9876729291681062  0.681475633251509  1.0000
  C   C1        1.0  0.057288909109622886  0.7414509417347833  0.7511098596010158  1.0000
  C   C2        1.0  0.5572866858182549  0.7585497989168034  0.7488879992334248  1.0000
  C   C3        1.0  0.9427171498330579  0.2585493433051269  0.2488894284201066  1.0000
  C   C4        1.0  0.44271062663989363  0.24145048613792847  0.2511112888038198  1.0000
  C   C5        1.0  0.0601289203374265  0.9039074945828816  0.7312753137809056  1.0000
  C   C6        1.0  0.5601306400392474  0.5960932364359907  0.7687225345758223  1.0000
  C   C7        1.0  0.9398721406250417  0.09609043226880941  0.2687221879982076  1.0000
  C   C8        1.0  0.43987291991118826  0.4039070452601194  0.23127602854469836  1.0000
  C   C9        1.0  0.9433145756739376  0.15891709560031592  0.7815227111136807  1.0000
  C   C10       1.0  0.44331561838196615  0.3410836794066229  0.7184789420635482  1.0000
  C   C11       1.0  0.05668648527517919  0.8410808446435356  0.21847769028624953  1.0000
  C   C12       1.0  0.5566866920616034  0.6589142641831459  0.28152218423928593  1.0000
  C   C13       1.0  0.8246380740323999  0.2573213470435435  0.8547971204154764  1.0000
  C   C14       1.0  0.32464001875101905  0.24267747535964193  0.6452039089461152  1.0000
  C   C15       1.0  0.1753617374232022  0.7426742417018063  0.14520294454594312  1.0000
  C   C16       1.0  0.675361042198098  0.7573204648842025  0.3547964924538149  1.0000
  C   C17       1.0  0.7965967625821688  0.38317075139147516  0.025517093940045817  1.0000
  C   C18       1.0  0.296595971660409  0.11683074905790392  0.4744843302048452  1.0000
  C   C19       1.0  0.20340429836934246  0.6168295336569045  0.9744821940902925  1.0000
  C   C20       1.0  0.7034013407901298  0.8831718908454819  0.5255160191784115  1.0000
  C   C21       1.0  0.8798365796567463  0.3989640445416853  0.1251213536956968  1.0000
  C   C22       1.0  0.3798292442036484  0.1010430424901472  0.3748784299622585  1.0000
  C   C23       1.0  0.1201694792743098  0.601044467402332  0.8748783869630614  1.0000
  C   C24       1.0  0.6201643197549771  0.8989642903766963  0.6251204175939193  1.0000
  Br  Br1       1.0  0.3470284260041152  0.18381273102027518  0.9523273606396502  1.0000
  Br  Br2       1.0  0.8470229210856032  0.3161965972576155  0.5476751001714248  1.0000
  Br  Br3       1.0  0.6529626388727009  0.816201730009496  0.04768844415807649  1.0000
  Br  Br4       1.0  0.15297564086579735  0.6838025187407698  0.4523254694535198  1.0000
  O   O1        1.0  0.1240878542023367  0.7496591857529753  0.8482894512020351  1.0000
  O   O2        1.0  0.6240802959750055  0.750344862443889  0.6517101158420361  1.0000
  O   O3        1.0  0.8759207037283119  0.25034345413135384  0.15171089816049496  1.0000
  O   O4        1.0  0.37590951949332657  0.24965894652643067  0.3482889519650385  1.0000
  O   O5        1.0  0.9421988941294045  0.0013915185841356  0.7951683892549823  1.0000
  O   O6        1.0  0.4422009463793373  0.49860807775623794  0.7048316500028236  1.0000
  O   O7        1.0  0.057802166829461  0.9986028910607561  0.20483078257852588  1.0000
  O   O8        1.0  0.5578013640642323  0.501389865833531  0.29516947630001067  1.0000
  O   O9        1.0  0.8969260449134707  0.2825168152595055  0.9516072421332212  1.0000
  O   O10       1.0  0.39692643921070914  0.21748293788115092  0.5483936889430723  1.0000
  O   O11       1.0  0.10307251704340098  0.7174811216405389  0.04839243436610731  1.0000
  O   O12       1.0  0.6030721227385525  0.7825173538675404  0.4516070489022753  1.0000
