data_image0
_chemical_formula_structural       Zn4H34C46O13
_chemical_formula_sum              "Zn4 H34 C46 O13"
_cell_length_a       15.176586784715282
_cell_length_b       15.11980850390702
_cell_length_c       19.635241826858966
_cell_angle_alpha    88.38474945449387
_cell_angle_beta     88.97519661736945
_cell_angle_gamma    88.90119012325609

_space_group_name_H-M_alt    "P 1"
_space_group_IT_number       1

loop_
  _space_group_symop_operation_xyz
  'x, y, z'

loop_
  _atom_site_type_symbol
  _atom_site_label
  _atom_site_symmetry_multiplicity
  _atom_site_fract_x
  _atom_site_fract_y
  _atom_site_fract_z
  _atom_site_occupancy
  Zn  Zn1       1.0  0.43263061882850434  0.42777390129741377  0.5664170024697697  1.0000
  Zn  Zn2       1.0  0.41717152799044754  0.5663238661488563  0.4417927593288835  1.0000
  Zn  Zn3       1.0  0.5762319220639112  0.4287717167064713  0.441504639156399  1.0000
  Zn  Zn4       1.0  0.5729906967725  0.5808276770490011  0.5524612294313727  1.0000
  H   H1        1.0  0.4200195071667209  0.408702388076243  0.775597641216464  1.0000
  H   H2        1.0  0.9993752325663292  0.4355998699908596  0.6325979595491802  1.0000
  H   H3        1.0  0.8524719652364751  0.47330284501877157  0.5828683347352166  1.0000
  H   H4        1.0  0.3528481567422118  0.5412030395670585  0.23621759602497144  1.0000
  H   H5        1.0  0.40544391845410394  0.4789888645200974  0.0014448493365079964  1.0000
  H   H6        1.0  0.6085955533813346  0.42646702513831497  0.1010663853491778  1.0000
  H   H7        1.0  0.621402435815952  0.6044439506789913  0.7619396277993642  1.0000
  H   H8        1.0  0.604005560830849  0.5155742292853986  0.9988218579843814  1.0000
  H   H9        1.0  0.4320449689590759  0.40219047453204126  0.9019119791975143  1.0000
  H   H10       1.0  0.3442141696660386  0.5355564597501399  0.10968601737195627  1.0000
  H   H11       1.0  0.3125317821414057  0.2570443815652723  0.3120859257184562  1.0000
  H   H12       1.0  0.5758377295470679  0.8553812547312346  0.5569389692555546  1.0000
  H   H13       1.0  0.23346572924398853  0.24794271570630846  0.3796673982973857  1.0000
  H   H14       1.0  0.2830180691069016  0.3513722794114428  0.36010090211142637  1.0000
  H   H15       1.0  0.3503124860190282  0.2811712807073831  0.4639427899364604  1.0000
  H   H16       1.0  0.42911328490342254  0.2909345490493108  0.39650082104397905  1.0000
  H   H17       1.0  0.4044969122471897  0.1341625310951073  0.3665911895526078  1.0000
  H   H18       1.0  0.32353838089717607  0.12492034324389321  0.4308040013402774  1.0000
  H   H19       1.0  0.14597191887455097  0.5416286413940555  0.4167745688154198  1.0000
  H   H20       1.0  0.7593493102600205  0.5858531950938898  0.22390347474736663  1.0000
  H   H21       1.0  0.7566592056014867  0.6944325879240763  0.2558146478541801  1.0000
  H   H22       1.0  0.8352486185069878  0.6654889665214938  0.1917791216283433  1.0000
  H   H23       1.0  0.3771304029231714  0.8351648565976005  0.40537283795235607  1.0000
  H   H24       1.0  0.9075571864346941  0.6681197359722616  0.3056985877347458  1.0000
  H   H25       1.0  0.9108787126393452  0.5602207983476858  0.2735322249583304  1.0000
  H   H26       1.0  0.77682476351967  0.5215958190173141  0.34447368185859517  1.0000
  H   H27       1.0  0.772068551010669  0.6287674641638433  0.3756752426021491  1.0000
  H   H28       1.0  0.6350705066842579  0.5978172249269206  0.888414865770784  1.0000
  H   H29       1.0  0.6232429293147632  0.00043316044875039994  0.5927814016304892  1.0000
  H   H30       1.0  0.3633569490313633  0.9970997097854523  0.3955174819389383  1.0000
  H   H31       1.0  0.6107847259495356  0.1644760215160588  0.5838977305387515  1.0000
  H   H32       1.0  0.16313043195629007  0.43034369765535263  0.6202094832801848  1.0000
  H   H33       1.0  0.00023640777146739713  0.5698394046889846  0.36555823464451  1.0000
  H   H34       1.0  0.6142793786524761  0.42748113354350886  0.22781732288820675  1.0000
  C   C1        1.0  0.48445045242505097  0.7369980212455329  0.4878390672374592  1.0000
  C   C2        1.0  0.5397263610329546  0.4997779385426212  0.9783675864340609  1.0000
  C   C3        1.0  0.47144077461991424  0.4853586582318954  0.022170792635336094  1.0000
  C   C4        1.0  0.5108008750705366  0.26494790463756596  0.5083667398891051  1.0000
  C   C5        1.0  0.4845348809495675  0.48579576991203055  0.2395161083886848  1.0000
  C   C6        1.0  0.4774049599528567  0.8352959454094273  0.4822605638539557  1.0000
  C   C7        1.0  0.5091149165378325  0.1656742158308546  0.5077036613805318  1.0000
  C   C8        1.0  0.5767883727375531  0.03295543376142259  0.5579762088099185  1.0000
  C   C9        1.0  0.5697948690755508  0.1234008152473436  0.5530095742442924  1.0000
  C   C10       1.0  0.45445318199143964  0.11777323311850549  0.46696868832665206  1.0000
  C   C11       1.0  0.46192747021627406  0.022783173936438996  0.47149351875057016  1.0000
  C   C12       1.0  0.5329582588053865  0.501233407427982  0.904285466856379  1.0000
  C   C13       1.0  0.5231748896085974  0.9804262745873373  0.5173980709314634  1.0000
  C   C14       1.0  0.5293828621247628  0.8870586645204667  0.5217656950824932  1.0000
  C   C15       1.0  0.41731685735588536  0.8766544557942879  0.43641577804977755  1.0000
  C   C16       1.0  0.2615655874962144  0.48737837844482357  0.5116905556437459  1.0000
  C   C17       1.0  0.409977978702244  0.9674689518923714  0.4313397751691852  1.0000
  C   C18       1.0  0.1635521162190585  0.4866719861109274  0.5175298343904939  1.0000
  C   C19       1.0  0.8356797263453897  0.5197437292074197  0.4797096350954391  1.0000
  C   C20       1.0  0.9669536711802208  0.5475488407749793  0.41248516043247463  1.0000
  C   C21       1.0  0.876003698994239  0.5474352872539329  0.4163240501414477  1.0000
  C   C22       1.0  0.8853604276515978  0.493249484174541  0.5351220131531632  1.0000
  C   C23       1.0  0.5875207426863653  0.5565836612886558  0.8637082629809282  1.0000
  C   C24       1.0  0.9785026739338106  0.4896404648868824  0.5305781651801666  1.0000
  C   C25       1.0  0.0200805981766692  0.518603847506334  0.4679710640870382  1.0000
  C   C26       1.0  0.1131539345292367  0.517806416926831  0.4634580355975046  1.0000
  C   C27       1.0  0.12204750285592778  0.45535787899382996  0.5787500512560084  1.0000
  C   C28       1.0  0.7373954973659307  0.5150522637948426  0.4868580366310196  1.0000
  C   C29       1.0  0.0316041501676452  0.4581690943871023  0.5852625215858183  1.0000
  C   C30       1.0  0.48912860531191177  0.48887487058336615  0.31511525638143206  1.0000
  C   C31       1.0  0.512116395595946  0.5092260589028327  0.6856780363878342  1.0000
  C   C32       1.0  0.5191483926098427  0.5076538867359303  0.7612652695049673  1.0000
  C   C33       1.0  0.4657077745955788  0.4509214124254868  0.801108796533029  1.0000
  C   C34       1.0  0.5801097243820194  0.5606550063596885  0.7932113051686115  1.0000
  C   C35       1.0  0.47230326320568833  0.448014414253599  0.871525090027205  1.0000
  C   C36       1.0  0.3868150009630185  0.1568369524693409  0.4181572578491951  1.0000
  C   C37       1.0  0.3690935989325723  0.25662349641499554  0.41345223115825297  1.0000
  C   C38       1.0  0.2954223931546451  0.27954806681914596  0.3635389441112976  1.0000
  C   C39       1.0  0.8187048246534161  0.5771773227309679  0.35754840179352937  1.0000
  C   C40       1.0  0.8659740072524541  0.6120110789065972  0.2932819185108925  1.0000
  C   C41       1.0  0.8008858769969007  0.6410295856366447  0.23810207862884875  1.0000
  C   C42       1.0  0.5528760263881694  0.4527580344778741  0.13049783479119265  1.0000
  C   C43       1.0  0.5563048290934987  0.45291649929883687  0.20116808936249694  1.0000
  C   C44       1.0  0.40826817744213867  0.5159410959871877  0.2060338299129113  1.0000
  C   C45       1.0  0.40392531924185693  0.5129042199472168  0.13556354261762488  1.0000
  C   C46       1.0  0.476789686676021  0.48337705979286477  0.09630714961411259  1.0000
  O   O1        1.0  0.5004091512779353  0.5007953080311793  0.5007998279466362  1.0000
  O   O2        1.0  0.4314717926366995  0.5372977742366629  0.3451840332022016  1.0000
  O   O3        1.0  0.5605516088592635  0.5635266145858252  0.6516864185174285  1.0000
  O   O4        1.0  0.5504738573128733  0.4432122398825413  0.34393971243547833  1.0000
  O   O5        1.0  0.4580394180181528  0.4555442082134816  0.6607437498184437  1.0000
  O   O6        1.0  0.3045934499441927  0.4416527029340429  0.5561976627089675  1.0000
  O   O7        1.0  0.7000475740776011  0.5622422124736773  0.5320962643201597  1.0000
  O   O8        1.0  0.43260907323285386  0.6936671876706908  0.4510527144144233  1.0000
  O   O9        1.0  0.562812380415039  0.30244345849221327  0.46535653008012895  1.0000
  O   O10       1.0  0.5415572995888525  0.7039131940983551  0.5288052474047759  1.0000
  O   O11       1.0  0.46395668187392397  0.3019360247132923  0.554241844659522  1.0000
  O   O12       1.0  0.2949569421736129  0.5339512621213558  0.4628073768983325  1.0000
  O   O13       1.0  0.700140650151738  0.4622931753935759  0.44733690951910166  1.0000
