data_image0
_chemical_formula_structural       AlH12C33Cl3O6
_chemical_formula_sum              "Al1 H12 C33 Cl3 O6"
_cell_length_a       3.968014026526758
_cell_length_b       20.441234824917373
_cell_length_c       20.481092232841362
_cell_angle_alpha    60.079624402573806
_cell_angle_beta     87.04928336609672
_cell_angle_gamma    86.99615417512273

_space_group_name_H-M_alt    "P 1"
_space_group_IT_number       1

loop_
  _space_group_symop_operation_xyz
  'x, y, z'

loop_
  _atom_site_type_symbol
  _atom_site_label
  _atom_site_symmetry_multiplicity
  _atom_site_fract_x
  _atom_site_fract_y
  _atom_site_fract_z
  _atom_site_occupancy
  Al  Al1       1.0  0.03353213423805101  0.49949844877506416  0.4999744963256208  1.0000
  H   H1        1.0  0.8244176266658415  0.30763062508406586  0.7067215909369371  1.0000
  H   H2        1.0  0.8042231794792799  0.23502508377310247  0.8476072058307768  1.0000
  H   H3        1.0  0.22995238510580407  0.7086082084819553  0.3079705027455831  1.0000
  H   H4        1.0  0.22819813189234142  0.8497202514162581  0.23601874651505755  1.0000
  H   H5        1.0  0.2713347838071273  0.3090964792836175  0.48454666921259115  1.0000
  H   H6        1.0  0.28580602192676  0.23712682651549952  0.4152956555468139  1.0000
  H   H7        1.0  0.7839831021678805  0.7073059174171306  0.4834604447897066  1.0000
  H   H8        1.0  0.7615617927490491  0.8484402744108975  0.4149954914435274  1.0000
  H   H9        1.0  0.19518928043527953  0.4839042804198785  0.7093462034873713  1.0000
  H   H10       1.0  0.19617434705395453  0.414974014488962  0.8502251297091592  1.0000
  H   H11       1.0  0.8738382756206847  0.48046190650909193  0.3073211772019705  1.0000
  H   H12       1.0  0.8674329897920716  0.4122199911021269  0.2345116610609568  1.0000
  C   C1        1.0  0.5189622012854471  0.4419403538825009  0.6161207740874349  1.0000
  C   C2        1.0  0.5620069727740005  0.44086636400842133  0.44205092975847304  1.0000
  C   C3        1.0  0.5180678429905752  0.6158575739716879  0.44145935656858654  1.0000
  C   C4        1.0  0.682757122546498  0.3298023988057324  0.7388356560888885  1.0000
  C   C5        1.0  0.672521571541921  0.2896507345556002  0.817031836073426  1.0000
  C   C6        1.0  0.35035514866994794  0.7398688774624632  0.330127634463601  1.0000
  C   C7        1.0  0.34832160182387645  0.8182110655021191  0.2903381214469294  1.0000
  C   C8        1.0  0.40681170782900017  0.330215261898779  0.4305163279308817  1.0000
  C   C9        1.0  0.413939248148985  0.29040817627019777  0.39195311894359747  1.0000
  C   C10       1.0  0.6577255941504846  0.7391878619457657  0.4299424932401553  1.0000
  C   C11       1.0  0.6460954058137744  0.8175144693182473  0.3918382618931634  1.0000
  C   C12       1.0  0.33216186929675473  0.4300089986302709  0.740278736899008  1.0000
  C   C13       1.0  0.3315653717098145  0.39158144843749904  0.8184871839108186  1.0000
  C   C14       1.0  0.7413778436092143  0.4278163546061648  0.3297090628096202  1.0000
  C   C15       1.0  0.7389477913307444  0.38975053797184245  0.28944430873750815  1.0000
  C   C16       1.0  0.5105291626674814  0.39988190911449106  0.6998615266383584  1.0000
  C   C17       1.0  0.49963803513686866  0.32044745810841857  0.8580260692937647  1.0000
  C   C18       1.0  0.49735989177884943  0.2806674715768763  0.9376578153645528  1.0000
  C   C19       1.0  0.4994962965082195  0.2463405318334325  0.0063286005620994705  1.0000
  C   C20       1.0  0.5060953301510692  0.20680438656047784  0.08566021138976512  1.0000
  C   C21       1.0  0.5079745708082514  0.6997574347655161  0.3997649087854002  1.0000
  C   C22       1.0  0.4943192735174549  0.8582057356318628  0.3209449474003494  1.0000
  C   C23       1.0  0.4918039487295829  0.937963303697032  0.2809936466906465  1.0000
  C   C24       1.0  0.49476379798246484  0.0067660699929704  0.24658850369652202  1.0000
  C   C25       1.0  0.5032999778395252  0.08615598860564688  0.20666865014029417  1.0000
  C   C26       1.0  0.5719549102219902  0.3988935055550158  0.40002968607547035  1.0000
  C   C27       1.0  0.5763207228615886  0.32022594448584846  0.3202147830519025  1.0000
  C   C28       1.0  0.5703931882740534  0.28108281505946303  0.2796650813336613  1.0000
  C   C29       1.0  0.5575836467487392  0.24688801830122734  0.24525160055446824  1.0000
  C   C30       1.0  0.5385627490923357  0.20708685652768108  0.2058893569787657  1.0000
  C   C31       1.0  0.49143495125655084  0.127197954926018  0.12712335030076363  1.0000
  C   C32       1.0  0.5265600312105149  0.12740324696547128  0.24475880527765545  1.0000
  C   C33       1.0  0.5296822152079841  0.24546789617583897  0.12632771391385242  1.0000
  Cl  Cl1       1.0  0.5416637177198779  0.07929576677965139  0.3410664432396617  1.0000
  Cl  Cl2       1.0  0.5487679092121526  0.34187450170927036  0.07764748765175268  1.0000
  Cl  Cl3       1.0  0.45811302353593664  0.07896593769047659  0.07942233813147943  1.0000
  O   O1        1.0  0.2958170126035212  0.5823316755215728  0.4268546544143066  1.0000
  O   O2        1.0  0.27947914395556234  0.489977228471652  0.5829516138033387  1.0000
  O   O3        1.0  0.3215057091403892  0.426682875560509  0.4908213257466019  1.0000
  O   O4        1.0  0.7492598512309031  0.5824193959493301  0.48951273641854726  1.0000
  O   O5        1.0  0.7917481399636017  0.48824827582860314  0.42710060573710973  1.0000
  O   O6        1.0  0.7664922572908139  0.42720418821596706  0.5825790930978559  1.0000
