data_image0
_chemical_formula_structural       Ca2Ag4H12C24N8O18
_chemical_formula_sum              "Ca2 Ag4 H12 C24 N8 O18"
_cell_length_a       8.094323541913068
_cell_length_b       8.094318392893575
_cell_length_c       11.463032102684897
_cell_angle_alpha    93.00373512431888
_cell_angle_beta     93.00364460336577
_cell_angle_gamma    103.82258046475431

_space_group_name_H-M_alt    "P 1"
_space_group_IT_number       1

loop_
  _space_group_symop_operation_xyz
  'x, y, z'

loop_
  _atom_site_type_symbol
  _atom_site_label
  _atom_site_symmetry_multiplicity
  _atom_site_fract_x
  _atom_site_fract_y
  _atom_site_fract_z
  _atom_site_occupancy
  Ca  Ca1       1.0  0.2103514542913985  0.7896476913482928  0.7500011584311821  1.0000
  Ca  Ca2       1.0  0.7896485010252333  0.21035377769481298  0.2499990653471896  1.0000
  Ag  Ag1       1.0  0.2020734277185809  0.34638325833796557  0.048960472696613494  1.0000
  Ag  Ag2       1.0  0.6536175927870715  0.7979295579854763  0.45103801020834294  1.0000
  Ag  Ag3       1.0  0.7979302439723098  0.6536182321811879  0.9510399145257861  1.0000
  Ag  Ag4       1.0  0.34637966092622463  0.20207069957439933  0.5489576800914762  1.0000
  H   H1        1.0  0.22397826941679708  0.2281813777415138  0.7968137592662641  1.0000
  H   H2        1.0  0.7718162996388783  0.7760242151279542  0.7031848445319394  1.0000
  H   H3        1.0  0.7760257353029373  0.7718214189464376  0.20318495468503525  1.0000
  H   H4        1.0  0.2281805743277161  0.22397468954758182  0.29681513237625257  1.0000
  H   H5        1.0  0.43231385748347867  0.5103989855998349  0.859988538420488  1.0000
  H   H6        1.0  0.48959805858675043  0.5676895540335563  0.6400118623516277  1.0000
  H   H7        1.0  0.5676907043973641  0.48960119033736754  0.14001444766677199  1.0000
  H   H8        1.0  0.5104003872001003  0.4323106639694671  0.35998649576680447  1.0000
  H   H9        1.0  0.9461508034097861  0.9925810145810843  0.8109318017935221  1.0000
  H   H10       1.0  0.007418101655325396  0.05384824700264799  0.689069354571373  1.0000
  H   H11       1.0  0.053851915800663605  0.007421728232642997  0.1890694710137097  1.0000
  H   H12       1.0  0.9925799955300646  0.9461506492597207  0.3109315479305792  1.0000
  C   C1        1.0  0.859977769913918  0.26657460653708404  0.9545634740626098  1.0000
  C   C2        1.0  0.7334236867006821  0.14002212973946365  0.5454347267302352  1.0000
  C   C3        1.0  0.1400284883681593  0.7334270073023744  0.04543092433548419  1.0000
  C   C4        1.0  0.266572792058369  0.8599702823944851  0.45457192878994573  1.0000
  C   C5        1.0  0.6784231891197835  0.24749306484422823  0.906980899472735  1.0000
  C   C6        1.0  0.7525041815388106  0.32157887542084757  0.5930174363669776  1.0000
  C   C7        1.0  0.3215801962601289  0.752507166221683  0.09301854768347788  1.0000
  C   C8        1.0  0.24749388450133838  0.6784199896978366  0.4069852083598349  1.0000
  C   C9        1.0  0.3549888596275679  0.23444285744938037  0.8268537615749806  1.0000
  C   C10       1.0  0.765553653912981  0.6450132668745567  0.6731455819019201  1.0000
  C   C11       1.0  0.6450145101797274  0.7655573580446814  0.17314655669366627  1.0000
  C   C12       1.0  0.2344435063645918  0.35498689725423554  0.32685533507245157  1.0000
  C   C13       1.0  0.5642182991432493  0.09225138346700132  0.8668041215633975  1.0000
  C   C14       1.0  0.9077443132672229  0.43578173761350314  0.633194908558657  1.0000
  C   C15       1.0  0.435782593081207  0.9077488177096882  0.13319608774256145  1.0000
  C   C16       1.0  0.09225100445173239  0.564215869306409  0.3668058160268685  1.0000
  C   C17       1.0  0.4676758977433693  0.3890882658225507  0.8647429500910133  1.0000
  C   C18       1.0  0.6109099009525069  0.5323270122128817  0.6352565222800874  1.0000
  C   C19       1.0  0.5323287108553386  0.6109119568301935  0.13525742265896665  1.0000
  C   C20       1.0  0.3890881962328904  0.46767188404949417  0.3647443802218645  1.0000
  C   C21       1.0  0.6088561447606509  0.9209334927219431  0.8681212324170883  1.0000
  C   C22       1.0  0.07906282018840469  0.3911395337507528  0.6318763048963375  1.0000
  C   C23       1.0  0.39113920410354547  0.0790641453416541  0.1318777499435839  1.0000
  C   C24       1.0  0.920934657545388  0.6088619209749807  0.3681238099193606  1.0000
  N   N1        1.0  0.628597404693032  0.395389104934722  0.903830554746136  1.0000
  N   N2        1.0  0.6046083755871907  0.371405014837606  0.5961687841786086  1.0000
  N   N3        1.0  0.371407235050917  0.6046111488617143  0.09616807577899066  1.0000
  N   N4        1.0  0.3953893885693632  0.628592575255972  0.4038337915944439  1.0000
  N   N5        1.0  0.4039952928219464  0.08779178619002441  0.8272613367348496  1.0000
  N   N6        1.0  0.9122049372102906  0.596004390575459  0.6727378054282835  1.0000
  N   N7        1.0  0.5960046624946925  0.9122096828530813  0.17273888704352905  1.0000
  N   N8        1.0  0.08779222306728937  0.4039957735533334  0.32726311154608817  1.0000
  O   O1        1.0  0.758740104066547  0.9215737769597823  0.9084557072042682  1.0000
  O   O2        1.0  0.07842239140651228  0.24125972228726772  0.5915427984944086  1.0000
  O   O3        1.0  0.24126078815790913  0.07842642421690729  0.09154450210169779  1.0000
  O   O4        1.0  0.9215754038952823  0.7587378989500098  0.40845803505379047  1.0000
  O   O5        1.0  0.023126855287088754  0.9768737921360043  0.7500004509090984  1.0000
  O   O6        1.0  0.9768730844569261  0.023127661335252  0.25000064398169997  1.0000
  O   O7        1.0  0.8848759376495962  0.2668639837002401  0.06537812829751738  1.0000
  O   O8        1.0  0.7331319618966248  0.11512525945961018  0.4346196576427913  1.0000
  O   O9        1.0  0.1151289728327143  0.7331375139776029  0.9346223134062226  1.0000
  O   O10       1.0  0.26686151326372  0.8848697902514145  0.565380874553888  1.0000
  O   O11       1.0  0.49291179049570377  0.790719370243295  0.8320583189811044  1.0000
  O   O12       1.0  0.20927778426529636  0.5070874618909754  0.6679428937384839  1.0000
  O   O13       1.0  0.5070894036123477  0.2092821059585006  0.16794195927860756  1.0000
  O   O14       1.0  0.7907196778958719  0.4929139772629155  0.3320580921896408  1.0000
  O   O15       1.0  0.9751685248345793  0.29438275169146516  0.8837533287645485  1.0000
  O   O16       1.0  0.7056205548405003  0.024833331309380906  0.6162451304571873  1.0000
  O   O17       1.0  0.024832398535110673  0.7056174806289234  0.11624513831656455  1.0000
  O   O18       1.0  0.2943815450301344  0.9751668458822991  0.38375687555496535  1.0000
