data_image0
_chemical_formula_structural       Mg2H8C8O12
_chemical_formula_sum              "Mg2 H8 C8 O12"
_cell_length_a       5.809569612474663
_cell_length_b       5.809535564973126
_cell_length_c       9.367871648472892
_cell_angle_alpha    100.77884781353113
_cell_angle_beta     100.77840351493276
_cell_angle_gamma    107.85946734106037

_space_group_name_H-M_alt    "P 1"
_space_group_IT_number       1

loop_
  _space_group_symop_operation_xyz
  'x, y, z'

loop_
  _atom_site_type_symbol
  _atom_site_label
  _atom_site_symmetry_multiplicity
  _atom_site_fract_x
  _atom_site_fract_y
  _atom_site_fract_z
  _atom_site_occupancy
  Mg  Mg1       1.0  0.853864024267594  0.14614048330705734  0.7499992602224168  1.0000
  Mg  Mg2       1.0  0.14613424103985304  0.8538534825844619  0.24999627295349575  1.0000
  H   H1        1.0  0.5700190960545939  0.27874011457127773  0.08049173430440251  1.0000
  H   H2        1.0  0.7212660467691093  0.4299860895710948  0.4195114227100376  1.0000
  H   H3        1.0  0.4299841579735215  0.7212632602108896  0.9195086507211555  1.0000
  H   H4        1.0  0.2787336869614307  0.5700172396072601  0.5804885538111719  1.0000
  H   H5        1.0  0.9358729869171042  0.26617170288942293  0.060707101809669  1.0000
  H   H6        1.0  0.7338304722494088  0.06413010305812607  0.4392935176828986  1.0000
  H   H7        1.0  0.06412913625391072  0.7338335098746709  0.9392912292521914  1.0000
  H   H8        1.0  0.2661662048504567  0.9358694438262346  0.560703540399146  1.0000
  C   C1        1.0  0.40101213912211625  0.14731231204692816  0.840799194286042  1.0000
  C   C2        1.0  0.8526899512880489  0.5990062016622344  0.6592069190317318  1.0000
  C   C3        1.0  0.5990125284171484  0.8526819958731761  0.15919940267248475  1.0000
  C   C4        1.0  0.1473165044209068  0.4009860364171941  0.34079469192158746  1.0000
  C   C5        1.0  0.5616844464117534  0.13065718072301988  0.9853213012362828  1.0000
  C   C6        1.0  0.8693449649508197  0.43831862909834735  0.5146805524629343  1.0000
  C   C7        1.0  0.438317066416829  0.8693461902194526  0.014682086342105468  1.0000
  C   C8        1.0  0.1306539612304078  0.5616772291806881  0.4853184756764861  1.0000
  O   O1        1.0  0.46809704941040314  0.08625653915986216  0.7206341838541023  1.0000
  O   O2        1.0  0.9137509807988026  0.5318955176078785  0.7793714521185606  1.0000
  O   O3        1.0  0.531895389897798  0.9137560772202276  0.27937562836155655  1.0000
  O   O4        1.0  0.0862589699420582  0.46809674079241137  0.22062629159908914  1.0000
  O   O5        1.0  0.21590476264005792  0.2122596331402632  0.8480837553253551  1.0000
  O   O6        1.0  0.787747487834352  0.7840865971905088  0.6519288744068561  1.0000
  O   O7        1.0  0.7840699032390575  0.7877471514260177  0.15192228521025433  1.0000
  O   O8        1.0  0.21225080905519175  0.2159074003046938  0.34807200344408074  1.0000
  O   O9        1.0  0.8043700027181583  0.15771424294216974  0.9652682906134231  1.0000
  O   O10       1.0  0.8422853130637903  0.19562818664573453  0.5347301310484198  1.0000
  O   O11       1.0  0.1956286001552742  0.8422909242181121  0.03472963194408863  1.0000
  O   O12       1.0  0.15771055648676213  0.8043638893393062  0.46526597865183555  1.0000
