data_image0
_chemical_formula_structural       Ag4B4H40C64N8F16
_chemical_formula_sum              "Ag4 B4 H40 C64 N8 F16"
_cell_length_a       5.491024912200041
_cell_length_b       13.514290121681006
_cell_length_c       18.836415894258394
_cell_angle_alpha    89.99900303444812
_cell_angle_beta     89.9991522319526
_cell_angle_gamma    90.00055079695699

_space_group_name_H-M_alt    "P 1"
_space_group_IT_number       1

loop_
  _space_group_symop_operation_xyz
  'x, y, z'

loop_
  _atom_site_type_symbol
  _atom_site_label
  _atom_site_symmetry_multiplicity
  _atom_site_fract_x
  _atom_site_fract_y
  _atom_site_fract_z
  _atom_site_occupancy
  Ag  Ag1       1.0  0.06135879706729241  0.1941726517179134  0.7051641296915252  1.0000
  Ag  Ag2       1.0  0.4386370375205075  0.6941737147283149  0.7051570404328447  1.0000
  Ag  Ag3       1.0  0.5613745536578634  0.3058303649893404  0.20515802642839284  1.0000
  Ag  Ag4       1.0  0.9386272977991866  0.8058306879240644  0.20515677698013235  1.0000
  B   B1        1.0  0.5827551541867065  0.1390531711126641  0.6059274048804967  1.0000
  B   B2        1.0  0.9172763492572996  0.6390378759990867  0.605921998403467  1.0000
  B   B3        1.0  0.0827458618957593  0.3609553000147868  0.10592325231120722  1.0000
  B   B4        1.0  0.41725613016471635  0.860958503766213  0.10592209283460362  1.0000
  H   H1        1.0  0.9653720256720605  0.0016465794545084001  0.6187117330910966  1.0000
  H   H2        1.0  0.5346371771519359  0.5016431889328244  0.6187079377023893  1.0000
  H   H3        1.0  0.46537344286747384  0.4983578154117652  0.11870534051170271  1.0000
  H   H4        1.0  0.034611276950862205  0.9983559047028407  0.11870579226376785  1.0000
  H   H5        1.0  0.1562439145954428  0.8311123082740008  0.6143443904758217  1.0000
  H   H6        1.0  0.343778263964488  0.3311048899299537  0.6143391420055836  1.0000
  H   H7        1.0  0.6562435099686256  0.668893260951002  0.11433627434333002  1.0000
  H   H8        1.0  0.8437614689505821  0.1688932421061864  0.11433474206749142  1.0000
  H   H9        1.0  0.9119557873159108  0.13103891191946807  0.8202292076409565  1.0000
  H   H10       1.0  0.588047990032493  0.6310349788871434  0.8202278417758182  1.0000
  H   H11       1.0  0.41194669469195594  0.36896334003193937  0.3202254863114505  1.0000
  H   H12       1.0  0.0880316127801137  0.8689571871201807  0.320223589588892  1.0000
  H   H13       1.0  0.9040864130936727  0.21442846576647406  0.9368384689591099  1.0000
  H   H14       1.0  0.5959388792509089  0.7144179022187841  0.9368397243864952  1.0000
  H   H15       1.0  0.404046103502779  0.2855797980516783  0.43683843932832656  1.0000
  H   H16       1.0  0.0959149601163816  0.785570714475078  0.43683757116576793  1.0000
  H   H17       1.0  0.22950698503294836  0.17860068892148462  0.025581829273456008  1.0000
  H   H18       1.0  0.27049827877179683  0.6785885509150018  0.025582349637268506  1.0000
  H   H19       1.0  0.7294698301967061  0.3213969611513078  0.5255815902511147  1.0000
  H   H20       1.0  0.7704939048533391  0.8214003622930193  0.5255837031089428  1.0000
  H   H21       1.0  0.5438590829779102  0.0552506695628097  5.3723550003300005e-05  1.0000
  H   H22       1.0  0.9561326114190648  0.5552399578549937  5.399309763020001e-05  1.0000
  H   H23       1.0  0.043842287526295806  0.4447417358764624  0.5000529938499625  1.0000
  H   H24       1.0  0.45614131232608196  0.9447532229077423  0.5000559176386474  1.0000
  H   H25       1.0  0.7922903486570546  0.9596744409665233  0.9787088085190803  1.0000
  H   H26       1.0  0.7076860674999564  0.45967095930175367  0.9787036020957348  1.0000
  H   H27       1.0  0.29228763404736924  0.5403272018273171  0.4787033351475787  1.0000
  H   H28       1.0  0.20771066997416204  0.040323720109668684  0.4787066228516466  1.0000
  H   H29       1.0  0.09562897869641772  0.8331784799124405  0.9526434701955115  1.0000
  H   H30       1.0  0.40434835482741255  0.33317720528808076  0.9526347812259818  1.0000
  H   H31       1.0  0.595613953465147  0.6668260301690335  0.45263007093480223  1.0000
  H   H32       1.0  0.9043916060114584  0.16682549537080854  0.45264102464062733  1.0000
  H   H33       1.0  0.0960352829604716  0.7478065860349897  0.8344038842987944  1.0000
  H   H34       1.0  0.4039478882457956  0.2478149294116463  0.8343914807621149  1.0000
  H   H35       1.0  0.5960242067467689  0.7521830447581693  0.3343846452484271  1.0000
  H   H36       1.0  0.9039695921215555  0.2521869481598245  0.3343961315654554  1.0000
  H   H37       1.0  0.7813509270263951  0.7874477064699262  0.7463573136801218  1.0000
  H   H38       1.0  0.7186514820750531  0.28745536470552213  0.746348344863364  1.0000
  H   H39       1.0  0.2813306513408165  0.7125403127848529  0.2463449202159965  1.0000
  H   H40       1.0  0.21865670209430021  0.212544271092824  0.24635134707875753  1.0000
  C   C1        1.0  0.0797651239201826  0.9744006563693617  0.6616594557257687  1.0000
  C   C2        1.0  0.42024541940649845  0.4744016602656487  0.6616560087385326  1.0000
  C   C3        1.0  0.5797593265115069  0.5256012584553815  0.16165577634649964  1.0000
  C   C4        1.0  0.9202286950346802  0.02560448217158749  0.16165498380124893  1.0000
  C   C5        1.0  0.1934951219029841  0.882184454192803  0.6577153026670006  1.0000
  C   C6        1.0  0.3065351815182352  0.382176158117467  0.6577155199073277  1.0000
  C   C7        1.0  0.6934879807616453  0.6178216769106301  0.15771047623682224  1.0000
  C   C8        1.0  0.8065134712492182  0.11782152034059118  0.15771069345720434  1.0000
  C   C9        1.0  0.24937023230979352  0.9995492928182584  0.7727257190516711  1.0000
  C   C10       1.0  0.2506515567764467  0.49954744982902355  0.7727208626820002  1.0000
  C   C11       1.0  0.7493619868551917  0.5004505455340151  0.2727234142738838  1.0000
  C   C12       1.0  0.7506414901268955  0.00045092238153899986  0.2727212123270348  1.0000
  C   C13       1.0  0.3979336737524194  0.9143361830938302  0.7629878840927519  1.0000
  C   C14       1.0  0.10209013962190738  0.41433009104303403  0.7629847150863044  1.0000
  C   C15       1.0  0.8979093407618635  0.5856696212139454  0.2629861120515785  1.0000
  C   C16       1.0  0.6020840181358125  0.0856709287134123  0.26298772093979045  1.0000
  C   C17       1.0  0.24496399776267452  0.0494785742860273  0.8409149903505908  1.0000
  C   C18       1.0  0.2550484932675658  0.549471558899647  0.8409113286609371  1.0000
  C   C19       1.0  0.7449469376203695  0.45051959689151744  0.34091292716737354  1.0000
  C   C20       1.0  0.7550368966233022  0.9505222009236505  0.34091245072574594  1.0000
  C   C21       1.0  0.058154095680201606  0.1171685891377976  0.8581459476941192  1.0000
  C   C22       1.0  0.44185008137342413  0.6171637443004695  0.8581430920527781  1.0000
  C   C23       1.0  0.5581389906196179  0.38283069180219087  0.35814631911907924  1.0000
  C   C24       1.0  0.9418276918455178  0.8828288068329967  0.358139216382206  1.0000
  C   C25       1.0  0.05003060691097261  0.16276469186984602  0.9240292339688808  1.0000
  C   C26       1.0  0.44998585217426523  0.6627569172205128  0.9240295294330354  1.0000
  C   C27       1.0  0.5499997960694641  0.3372336952509514  0.42403176523743014  1.0000
  C   C28       1.0  0.9499732531131003  0.8372333202811149  0.4240262208650806  1.0000
  C   C29       1.0  0.23077670866916117  0.1412560694902822  0.9743602182202697  1.0000
  C   C30       1.0  0.2692384200217716  0.6412454067225966  0.9743607439006683  1.0000
  C   C31       1.0  0.730755539786557  0.3587454605751645  0.4743608892551663  1.0000
  C   C32       1.0  0.7692318205157561  0.8587444172945168  0.47436035307194413  1.0000
  C   C33       1.0  0.4111269134760462  0.07264033070297418  0.9591992069241687  1.0000
  C   C34       1.0  0.08887636590748832  0.5726319609699786  0.9591994302571368  1.0000
  C   C35       1.0  0.9111165606556353  0.4273585354477092  0.4591969009325255  1.0000
  C   C36       1.0  0.588875118901612  0.9273605250974413  0.4592003095012416  1.0000
  C   C37       1.0  0.4198385888112526  0.0233229830626911  0.8933037321634817  1.0000
  C   C38       1.0  0.0801650645801644  0.5233219807482498  0.8932997450403307  1.0000
  C   C39       1.0  0.919833107603246  0.4766745594995072  0.39329815830517845  1.0000
  C   C40       1.0  0.5801614044569874  0.9766779968751321  0.3932989491296014  1.0000
  C   C41       1.0  0.6003905459870112  0.9466135764907833  0.8784991470683113  1.0000
  C   C42       1.0  0.8996071421625517  0.4466108042684525  0.8785000340731985  1.0000
  C   C43       1.0  0.10037176647105642  0.5533934957587832  0.3784988201054064  1.0000
  C   C44       1.0  0.3996138588159893  0.05339220349853239  0.3784997070474106  1.0000
  C   C45       1.0  0.7843527972447362  0.9221969404881066  0.9277365163244086  1.0000
  C   C46       1.0  0.7156326181001235  0.42219348817356206  0.9277323382317634  1.0000
  C   C47       1.0  0.28434191099457  0.5778059136714263  0.42773163857331314  1.0000
  C   C48       1.0  0.21565997588326982  0.07780246133712862  0.4277348928119623  1.0000
  C   C49       1.0  0.9577771065943139  0.8505673371313804  0.9129837901170962  1.0000
  C   C50       1.0  0.5422109323640852  0.35056620349745055  0.9129782187098602  1.0000
  C   C51       1.0  0.45775890005098324  0.6494342974705702  0.41297430522115525  1.0000
  C   C52       1.0  0.0422400754338028  0.14943464365174464  0.41298412941521434  1.0000
  C   C53       1.0  0.9558914985711767  0.8021097999965362  0.8471286796988837  1.0000
  C   C54       1.0  0.5441042182892845  0.30211163322981355  0.8471188532246787  1.0000
  C   C55       1.0  0.455872678660505  0.6978934306164105  0.3471207156034169  1.0000
  C   C56       1.0  0.0441072516978025  0.19788638420654792  0.3471268157351731  1.0000
  C   C57       1.0  0.7752801285430309  0.8235821491631086  0.7980750084481587  1.0000
  C   C58       1.0  0.7247223146870851  0.3235824302106635  0.7980707920934338  1.0000
  C   C59       1.0  0.275271700331686  0.6764208677916557  0.29806784230165567  1.0000
  C   C60       1.0  0.22471934972526952  0.17642410856291244  0.2980731818750685  1.0000
  C   C61       1.0  0.5915425873247315  0.8932574989908135  0.8133841376356659  1.0000
  C   C62       1.0  0.908462618067162  0.3932547595142139  0.8133833947080478  1.0000
  C   C63       1.0  0.09152513778888502  0.6067489057040873  0.3133804925739057  1.0000
  C   C64       1.0  0.4084633800495041  0.10675134592471383  0.31338293489507413  1.0000
  N   N1        1.0  0.106710438383729  0.0321781212331445  0.7186368189876975  1.0000
  N   N2        1.0  0.3933116178921452  0.532175316805862  0.7186320442098693  1.0000
  N   N3        1.0  0.6067047364324551  0.4678239951576515  0.21863454056504858  1.0000
  N   N4        1.0  0.8932858832416954  0.9678226705953604  0.21863082759330152  1.0000
  N   N5        1.0  0.3552465366417223  0.853615878082003  0.7067600326868587  1.0000
  N   N6        1.0  0.14478050622827246  0.3536114237480845  0.7067588074635226  1.0000
  N   N7        1.0  0.8552237171232165  0.646387437305229  0.20675644361779186  1.0000
  N   N8        1.0  0.6447777193677879  0.14638816266544552  0.206758934525972  1.0000
  F   F1        1.0  0.8223269977877125  0.16243581698684306  0.582367071391822  1.0000
  F   F2        1.0  0.6776953856310114  0.662413716412402  0.5823663899665166  1.0000
  F   F3        1.0  0.32231712270779406  0.3375718934998487  0.08236161701292133  1.0000
  F   F4        1.0  0.1776855107726476  0.8375742114833356  0.08236412075509493  1.0000
  F   F5        1.0  0.4095742503936251  0.19159550173236545  0.565642178034203  1.0000
  F   F6        1.0  0.0904524449515947  0.6915834380991298  0.5656339006179892  1.0000
  F   F7        1.0  0.9095591116580336  0.3084158982272172  0.0656381662744323  1.0000
  F   F8        1.0  0.5904409485745106  0.8084223334535989  0.0656367902607613  1.0000
  F   F9        1.0  0.5625242436313441  0.16816735106571912  0.679007517332302  1.0000
  F   F10       1.0  0.9375151149432385  0.6681536107046783  0.6789999020949297  1.0000
  F   F11       1.0  0.0625142256312259  0.3318377864830708  0.17900319603427314  1.0000
  F   F12       1.0  0.43749052781125647  0.8318440248758634  0.17900142045546374  1.0000
  F   F13       1.0  0.5439379364113961  0.036435117493312  0.6009330131861574  1.0000
  F   F14       1.0  0.9561076591455661  0.5364207058514623  0.6009295667694446  1.0000
  F   F15       1.0  0.04392209609333969  0.4635725917188651  0.10092917688454862  1.0000
  F   F16       1.0  0.45606632291633525  0.9635774189242451  0.10092573040186181  1.0000
