data_image0
_chemical_formula_structural       Ag2H28C20S4N2O6
_chemical_formula_sum              "Ag2 H28 C20 S4 N2 O6"
_cell_length_a       7.6705235101428
_cell_length_b       9.288940022539549
_cell_length_c       9.288912453918678
_cell_angle_alpha    109.54666927778028
_cell_angle_beta     89.99930312883603
_cell_angle_gamma    90.00025033743074

_space_group_name_H-M_alt    "P 1"
_space_group_IT_number       1

loop_
  _space_group_symop_operation_xyz
  'x, y, z'

loop_
  _atom_site_type_symbol
  _atom_site_label
  _atom_site_symmetry_multiplicity
  _atom_site_fract_x
  _atom_site_fract_y
  _atom_site_fract_z
  _atom_site_occupancy
  Ag  Ag1       1.0  0.5004554581734696  0.41447382743611183  0.5855265573130451  1.0000
  Ag  Ag2       1.0  0.00045348026668529996  0.5855208253126278  0.41447731529928683  1.0000
  H   H1        1.0  0.49262237612995813  0.9121740896835605  0.29875470998740644  1.0000
  H   H2        1.0  0.9926261566676045  0.0878230032021605  0.7012439553558991  1.0000
  H   H3        1.0  0.9926277683034357  0.2987568935590447  0.9121739807851694  1.0000
  H   H4        1.0  0.492620764494717  0.7012447688122947  0.08782623486381884  1.0000
  H   H5        1.0  0.6438512268455765  0.0262932149126556  0.43600602287181545  1.0000
  H   H6        1.0  0.1438529997856932  0.97370153270775  0.5639867481153827  1.0000
  H   H7        1.0  0.1438529307411613  0.43601262252029466  0.02629536643710402  1.0000
  H   H8        1.0  0.6438525995280885  0.5639923665774588  0.9737084151657669  1.0000
  H   H9        1.0  0.6074274509648205  0.0664142444584002  0.2626435151238624  1.0000
  H   H10       1.0  0.1074277713614649  0.9335816173692704  0.7373532305558114  1.0000
  H   H11       1.0  0.10743093873803389  0.26264615613441583  0.06641435238960723  1.0000
  H   H12       1.0  0.60742819465689  0.7373542694843992  0.9335850182097261  1.0000
  H   H13       1.0  0.15298898467155914  0.26442421056148646  0.3500271063946627  1.0000
  H   H14       1.0  0.6529890924056758  0.7355750580680082  0.6499767954885485  1.0000
  H   H15       1.0  0.6529870014288263  0.3500277337765781  0.26442842822177687  1.0000
  H   H16       1.0  0.15299759413293404  0.6499784061675484  0.7355745751870018  1.0000
  H   H17       1.0  0.33391357508694597  0.2202163228021093  0.2219516286283323  1.0000
  H   H18       1.0  0.8339133375026362  0.7797864051915653  0.7780559303871399  1.0000
  H   H19       1.0  0.8339133635920104  0.22194795776668746  0.2202133791479639  1.0000
  H   H20       1.0  0.3339226749043931  0.7780525310461287  0.7797848076012953  1.0000
  H   H21       1.0  0.9589502563651705  0.04097721301036471  0.361103002069413  1.0000
  H   H22       1.0  0.45895215602485706  0.9590244505090625  0.6388954000915419  1.0000
  H   H23       1.0  0.4589523713043632  0.3611088937234399  0.040976535820199424  1.0000
  H   H24       1.0  0.9589552558777611  0.6388962139962048  0.959019805143562  1.0000
  H   H25       1.0  0.8250707195826693  0.7938253530562136  0.20617276582356683  1.0000
  H   H26       1.0  0.32507421875344983  0.20617973102708487  0.7938216862694674  1.0000
  H   H27       1.0  0.3541256074114401  0.9828250725692625  0.017177779591314474  1.0000
  H   H28       1.0  0.8541079344942873  0.017174245845410503  0.9828262659657696  1.0000
  C   C1        1.0  0.546626425913594  0.027493870033055104  0.3498116909367255  1.0000
  C   C2        1.0  0.046626926744025396  0.9725042466539833  0.6501885854537619  1.0000
  C   C3        1.0  0.0466285626787624  0.34981271785108004  0.027493631217289836  1.0000
  C   C4        1.0  0.5466273973710186  0.6501876892742332  0.9725063456795483  1.0000
  C   C5        1.0  0.2487779445371956  0.17595788412869948  0.29236290172872254  1.0000
  C   C6        1.0  0.7487737582929981  0.8240391459778637  0.7076360459401769  1.0000
  C   C7        1.0  0.7487736608495794  0.2923632153515996  0.17595938973430236  1.0000
  C   C8        1.0  0.24878586414086357  0.7076372475654368  0.8240396459913697  1.0000
  C   C9        1.0  0.16521810303322576  0.028349667484114605  0.1993309395438132  1.0000
  C   C10       1.0  0.665213324556987  0.9716507472356711  0.8006732279946078  1.0000
  C   C11       1.0  0.6652117557792252  0.19932891066664382  0.02834948705405081  1.0000
  C   C12       1.0  0.16522488661829723  0.800670390157876  0.971648919714532  1.0000
  C   C13       1.0  0.015916178932137405  0.9740518815547647  0.2514780453272111  1.0000
  C   C14       1.0  0.5159124223178609  0.025953102799455497  0.7485205642436269  1.0000
  C   C15       1.0  0.5159113576574512  0.2514811724320652  0.9740469607711263  1.0000
  C   C16       1.0  0.015922458391799  0.7485215499604152  0.02594657508694101  1.0000
  C   C17       1.0  0.9414034766279684  0.8350129172502534  0.16498711286514833  1.0000
  C   C18       1.0  0.44140485127352486  0.1649887295419035  0.835013613537292  1.0000
  C   C19       1.0  0.238577663472185  0.940688320513459  0.05931389486861609  1.0000
  C   C20       1.0  0.7385582228912283  0.05931211651725483  0.9406895412205785  1.0000
  S   S1        1.0  0.3774589547717254  0.15683014640648452  0.45040424917014116  1.0000
  S   S2        1.0  0.8774611007374488  0.8431691961935215  0.5495963397136449  1.0000
  S   S3        1.0  0.8774603475357524  0.4504044720516589  0.15682903697112494  1.0000
  S   S4        1.0  0.3774636190735308  0.5495983147483586  0.8431694907219693  1.0000
  N   N1        1.0  0.8941257189113898  0.37509379171171986  0.6249059978468879  1.0000
  N   N2        1.0  0.39412974057037087  0.6249044021964139  0.3750961865214819  1.0000
  O   O1        1.0  0.8160494877705915  0.3022622524165826  0.697736654581341  1.0000
  O   O2        1.0  0.31604844236578333  0.6977336273051122  0.3022666078486722  1.0000
  O   O3        1.0  0.05780867464827819  0.3809843566711777  0.6190164208116968  1.0000
  O   O4        1.0  0.5578134250667119  0.6190183499885435  0.38098207045636906  1.0000
  O   O5        1.0  0.8031235246959268  0.44744325171816973  0.5525553457854357  1.0000
  O   O6        1.0  0.3031313192821941  0.5525514873969612  0.44744658328492193  1.0000
