data_image0
_chemical_formula_structural       Cd2H16C4N4Cl4
_chemical_formula_sum              "Cd2 H16 C4 N4 Cl4"
_cell_length_a       4.1527931821103525
_cell_length_b       7.815424789004723
_cell_length_c       9.590817547247338
_cell_angle_alpha    89.99988390470959
_cell_angle_beta     89.99917550285525
_cell_angle_gamma    90.0000462738525

_space_group_name_H-M_alt    "P 1"
_space_group_IT_number       1

loop_
  _space_group_symop_operation_xyz
  'x, y, z'

loop_
  _atom_site_type_symbol
  _atom_site_label
  _atom_site_symmetry_multiplicity
  _atom_site_fract_x
  _atom_site_fract_y
  _atom_site_fract_z
  _atom_site_occupancy
  Cd  Cd1       1.0  0.9999998159014108  4.535855419999983e-08  0.5000003446531239  1.0000
  Cd  Cd2       1.0  4.010447796000001e-07  0.49999969361800123  6.297158990000002e-07  1.0000
  H   H1        1.0  0.7876491011799089  0.39019853883858974  0.4030233165525275  1.0000
  H   H2        1.0  0.7876509085182235  0.6098012043945716  0.5969784461707023  1.0000
  H   H3        1.0  0.21235017340489995  0.890199775733173  0.09697677222894192  1.0000
  H   H4        1.0  0.21234835187785  0.10979973430639943  0.9030202762075921  1.0000
  H   H5        1.0  0.2123537783191196  0.609799808276229  0.5969771316810084  1.0000
  H   H6        1.0  0.2123471549633038  0.39019842224155366  0.40302095941297733  1.0000
  H   H7        1.0  0.7876502980773309  0.10979985090214234  0.903023676011124  1.0000
  H   H8        1.0  0.7876497115865602  0.8901998923284256  0.09698017204006254  1.0000
  H   H9        1.0  0.8043519096532988  0.2913974723672866  0.642963266025035  1.0000
  H   H10       1.0  0.8043545313113825  0.7085997185947336  0.3570383913936724  1.0000
  H   H11       1.0  0.19565005005458147  0.79139933560775  0.8570372417113749  1.0000
  H   H12       1.0  0.19564445195923236  0.20859888813921407  0.14296095468924366  1.0000
  H   H13       1.0  0.19565096984572958  0.7086008747475392  0.3570371822085009  1.0000
  H   H14       1.0  0.19564834818866927  0.2913999080410719  0.6429620568388048  1.0000
  H   H15       1.0  0.8043504214286726  0.20860157054854517  0.14296320652763944  1.0000
  H   H16       1.0  0.8043536115051706  0.791400738495611  0.8570394935584108  1.0000
  C   C1        1.0  7.066047473399999e-06  0.409563846559749  0.46956964133259776  1.0000
  C   C2        1.0  0.9999934054155872  0.5904332210323062  0.5304318495735674  1.0000
  C   C3        1.0  0.9999946476051916  0.9095655681334167  0.03043145811737701  1.0000
  C   C4        1.0  5.823877032199996e-06  0.0904340585018986  0.9695689901226887  1.0000
  N   N1        1.0  0.9999851421862543  0.2756057443746017  0.5783383488627722  1.0000
  N   N2        1.0  1.2921277125599999e-05  0.7243926027392436  0.4216620993859409  1.0000
  N   N3        1.0  7.160098135699996e-06  0.7756060881589022  0.9216632276539021  1.0000
  N   N4        1.0  0.9999909033662675  0.22439353847592267  0.07833722059375253  1.0000
  Cl  Cl1       1.0  0.499997992034629  0.0744383926258649  0.32255897672684614  1.0000
  Cl  Cl2       1.0  0.5000024794647189  0.9255612340107506  0.6774404288492379  1.0000
  Cl  Cl3       1.0  0.5000031840262551  0.5744382665985625  0.1774405909546816  1.0000
  Cl  Cl4       1.0  0.4999996954909207  0.4255613600385361  0.8225588146138139  1.0000
