data_image0
_chemical_formula_structural       In6H66C108O42
_chemical_formula_sum              "In6 H66 C108 O42"
_cell_length_a       7.3414539750151455
_cell_length_b       32.26324110719428
_cell_length_c       32.2632128726689
_cell_angle_alpha    120.00002746372431
_cell_angle_beta     90.00023355929443
_cell_angle_gamma    89.99988395138868

_space_group_name_H-M_alt    "P 1"
_space_group_IT_number       1

loop_
  _space_group_symop_operation_xyz
  'x, y, z'

loop_
  _atom_site_type_symbol
  _atom_site_label
  _atom_site_symmetry_multiplicity
  _atom_site_fract_x
  _atom_site_fract_y
  _atom_site_fract_z
  _atom_site_occupancy
  In  In1       1.0  4.912521447000001e-07  0.4999999303477409  4.1261117185068416e-08  1.0000
  In  In2       1.0  0.9999989952266333  0.5000000032699674  0.5000000404016235  1.0000
  In  In3       1.0  4.0755042360000015e-07  2.302989086784865e-08  0.5000002038232481  1.0000
  In  In4       1.0  0.49999953946487363  0.5000001102691272  9.389505341695566e-08  1.0000
  In  In5       1.0  0.49999994701530426  0.500000133299018  0.5000002977183016  1.0000
  In  In6       1.0  0.4999994557631595  2.0295127702165202e-07  0.5000002564571844  1.0000
  H   H1        1.0  0.7499987957027513  0.4374843821147679  0.999996326295481  1.0000
  H   H2        1.0  0.7499997537982781  0.5625139059821223  0.5625138642791185  1.0000
  H   H3        1.0  0.7499994005055015  0.9999960945253787  0.4374842492269124  1.0000
  H   H4        1.0  0.24999973619604532  0.5625157534825931  3.7802398011313194e-06  1.0000
  H   H5        1.0  0.2500001402271153  0.4374859196648019  0.4374859323061813  1.0000
  H   H6        1.0  0.2500004935237001  3.862122220407599e-06  0.5625160362590834  1.0000
  H   H7        1.0  0.04260306623771729  0.6242469887707003  0.13514130823641315  1.0000
  H   H8        1.0  0.04260573505894881  0.5108938827591558  0.37575297086667087  1.0000
  H   H9        1.0  0.04260517305112899  0.8648577873681802  0.4891056018842832  1.0000
  H   H10       1.0  0.5426070585685707  0.3757525261197472  0.8648579862805407  1.0000
  H   H11       1.0  0.5426043897631844  0.4891048683831444  0.6242477073013647  1.0000
  H   H12       1.0  0.5426035896319803  0.13514136962274395  0.510894050532194  1.0000
  H   H13       1.0  0.4573945981937939  0.375752811649555  0.510894471435968  1.0000
  H   H14       1.0  0.45739454907420213  0.4891056128163387  0.8648573872326041  1.0000
  H   H15       1.0  0.4573980536941988  0.13514185381267643  0.6242474921975116  1.0000
  H   H16       1.0  0.9573964271790985  0.6242481236044809  0.4891062681694578  1.0000
  H   H17       1.0  0.9573951141612795  0.510893951635282  0.13514162366904253  1.0000
  H   H18       1.0  0.9573943338072937  0.8648577936905326  0.3757526754568516  1.0000
  H   H19       1.0  0.9573968277838676  0.3757527058755485  0.8648579994481908  1.0000
  H   H20       1.0  0.9573955211020647  0.4891062048891114  0.624247803520646  1.0000
  H   H21       1.0  0.9573947209756638  0.13514234822918073  0.5108945046516312  1.0000
  H   H22       1.0  0.45739283546023296  0.6242466316772166  0.1351418582542933  1.0000
  H   H23       1.0  0.4573941421380141  0.5108950882644477  0.37575257818399876  1.0000
  H   H24       1.0  0.4573963043920132  0.8648581460737501  0.489105436102484  1.0000
  H   H25       1.0  0.5426052958301923  0.6242467040469322  0.4891050151987172  1.0000
  H   H26       1.0  0.5426053449491803  0.5108951906309828  0.13514267135377614  1.0000
  H   H27       1.0  0.5426045645871868  0.8648579718342547  0.37575230438904567  1.0000
  H   H28       1.0  0.04260346684288411  0.3757523698924104  0.5108934804663079  1.0000
  H   H29       1.0  0.042603417742334705  0.4891058260625486  0.8648588407663952  1.0000
  H   H30       1.0  0.042606922348497306  0.13514185300662981  0.624247300079155  1.0000
  H   H31       1.0  0.04242518185236581  0.6799842387338444  0.22451796433422527  1.0000
  H   H32       1.0  0.042428007221389015  0.5445333572540464  0.32001518542422497  1.0000
  H   H33       1.0  0.0424254689672949  0.7754809319084403  0.4554662420802842  1.0000
  H   H34       1.0  0.5424253411636499  0.32001478725570826  0.7754811990156371  1.0000
  H   H35       1.0  0.5424238779302328  0.4554659307368568  0.6799849557276547  1.0000
  H   H36       1.0  0.5424277783109231  0.22451804613202597  0.5445335891216061  1.0000
  H   H37       1.0  0.4575735882360235  0.32001621975512506  0.5445347686877683  1.0000
  H   H38       1.0  0.4575750590246771  0.4554657513019009  0.7754803161932246  1.0000
  H   H39       1.0  0.45757659426181624  0.22451861717302524  0.6799845761849141  1.0000
  H   H40       1.0  0.9575729525493629  0.6799851564507051  0.45546676993362906  1.0000
  H   H41       1.0  0.957571481748495  0.544533634200647  0.22451887382378288  1.0000
  H   H42       1.0  0.9575740328991531  0.7754808993302047  0.32001510273468625  1.0000
  H   H43       1.0  0.957576074297215  0.32001545591241853  0.775481343351018  1.0000
  H   H44       1.0  0.9575718868078129  0.4554665993935529  0.6799851000617637  1.0000
  H   H45       1.0  0.9575744250594981  0.22451920368892087  0.5445338644556302  1.0000
  H   H46       1.0  0.45757455286656074  0.6799846804916854  0.22451895546981138  1.0000
  H   H47       1.0  0.4575746539685568  0.5445342048605042  0.32001515080763443  1.0000
  H   H48       1.0  0.4575721157154717  0.7754812906146994  0.45546607646315335  1.0000
  H   H49       1.0  0.5424263057921693  0.6799842257926728  0.4554656477987678  1.0000
  H   H50       1.0  0.5424234728689044  0.5445339433443479  0.224518991490747  1.0000
  H   H51       1.0  0.5424260240195693  0.7754812084739059  0.3200152204016504  1.0000
  H   H52       1.0  0.04242557934842489  0.3200154680468471  0.5445334676021929  1.0000
  H   H53       1.0  0.0424270501585298  0.4554654756472161  0.775481638561189  1.0000
  H   H54       1.0  0.042427223258044905  0.22451905731739435  0.6799851827519349  1.0000
  H   H55       1.0  0.7499998856317588  0.7555209759274533  0.3699819210368958  1.0000
  H   H56       1.0  0.7500007497326493  0.6144604221817646  0.24447883768966955  1.0000
  H   H57       1.0  0.7500019480857034  0.6300179807118198  0.3855393893922852  1.0000
  H   H58       1.0  0.249998646265631  0.24447884971947073  0.6300178755477788  1.0000
  H   H59       1.0  0.2499991442951455  0.38553922451539796  0.7555211378457045  1.0000
  H   H60       1.0  0.2500006701984887  0.3699824648359851  0.6144610270955084  1.0000
  H   H61       1.0  0.7500002789073151  0.2444787918991481  0.6144604956464194  1.0000
  H   H62       1.0  0.7500025130125537  0.38553936703120684  0.6300178110805633  1.0000
  H   H63       1.0  0.7500009862413749  0.36998199005336824  0.7555209618157619  1.0000
  H   H64       1.0  0.2499982529890801  0.7555215226479745  0.38553943193878837  1.0000
  H   H65       1.0  0.2499987431436352  0.6144610785165912  0.36998260540659794  1.0000
  H   H66       1.0  0.24999890778401831  0.6300178355935628  0.24447883476953783  1.0000
  C   C1        1.0  0.7500062001937877  0.5839069028159044  0.07796197472280393  1.0000
  C   C2        1.0  0.7500055541668615  0.49405633069882526  0.4160938304135371  1.0000
  C   C3        1.0  0.7499962775960329  0.9220377909566719  0.505944557036578  1.0000
  C   C4        1.0  0.24999233170360918  0.41609292283101235  0.9220378218618636  1.0000
  C   C5        1.0  0.24999433986614863  0.505943756949442  0.5839069439731476  1.0000
  C   C6        1.0  0.2500036164307602  0.0779623446406887  0.49405554949933633  1.0000
  C   C7        1.0  0.7500052409250416  0.4160931211212002  0.49405469684304393  1.0000
  C   C8        1.0  0.750004599916224  0.5059439446581209  0.9220372719200114  1.0000
  C   C9        1.0  0.749999385831572  0.07796228435378096  0.5839068588310569  1.0000
  C   C10       1.0  0.2499946530941344  0.5839067524748173  0.5059444318914926  1.0000
  C   C11       1.0  0.24999393198257283  0.49405619093924  0.07796283461527752  1.0000
  C   C12       1.0  0.2500032324488117  0.9220380301933488  0.41609306875604096  1.0000
  C   C13       1.0  0.749996968327608  0.620793690759541  0.130006204738855  1.0000
  C   C14       1.0  0.7500010685521659  0.5092131770189566  0.3792063072210609  1.0000
  C   C15       1.0  0.7499990980573515  0.8699929999427312  0.49078776715695227  1.0000
  C   C16       1.0  0.2500015635673805  0.3792063138371446  0.8699934128957381  1.0000
  C   C17       1.0  0.2499974633514483  0.49078660067888075  0.6207941572143767  1.0000
  C   C18       1.0  0.249999433836237  0.13000669470351775  0.5092115405270193  1.0000
  C   C19       1.0  0.7500000933822761  0.37920595976656557  0.5092118923188238  1.0000
  C   C20       1.0  0.7499987513250161  0.49078696314817455  0.8699926079679231  1.0000
  C   C21       1.0  0.7500035713207326  0.13000678511787814  0.6207939694040548  1.0000
  C   C22       1.0  0.2500011627676955  0.6207945337303258  0.4907878563175671  1.0000
  C   C23       1.0  0.24999978056896313  0.5092135303487098  0.13000714066721022  1.0000
  C   C24       1.0  0.249999046959644  0.8699935294292515  0.3792059581830498  1.0000
  C   C25       1.0  0.9152545753058945  0.6368870088094453  0.15491074713653313  1.0000
  C   C26       1.0  0.91525561532697  0.5180243129789304  0.3631144884915543  1.0000
  C   C27       1.0  0.9152552229678791  0.8450896077482211  0.4819766918657748  1.0000
  C   C28       1.0  0.41525614235709446  0.3631131753792689  0.8450888446309508  1.0000
  C   C29       1.0  0.41525374022145906  0.481975286411398  0.6368863079762974  1.0000
  C   C30       1.0  0.4152554947061375  0.1549101705918758  0.518023925652635  1.0000
  C   C31       1.0  0.5847427894324114  0.36311342024279725  0.5180230190350983  1.0000
  C   C32       1.0  0.5847451982165597  0.4819754967956129  0.8450888050435523  1.0000
  C   C33       1.0  0.5847461497310745  0.1549110520321407  0.6368873937890883  1.0000
  C   C34       1.0  0.08474491882537902  0.6368870246627266  0.4819772443684655  1.0000
  C   C35       1.0  0.08474387216883632  0.5180241492592828  0.15491101740948918  1.0000
  C   C36       1.0  0.08474428278511678  0.8450892139236288  0.36311304856581456  1.0000
  C   C37       1.0  0.0847453187170899  0.3631129957872403  0.8450888704986924  1.0000
  C   C38       1.0  0.08474427870984873  0.48197590567000503  0.6368867747958263  1.0000
  C   C39       1.0  0.0847446710589139  0.15491052784913967  0.5180234146701396  1.0000
  C   C40       1.0  0.5847437516682988  0.6368866502676553  0.15491095195434917  1.0000
  C   C41       1.0  0.5847461538025341  0.5180242292850892  0.3631131786583807  1.0000
  C   C42       1.0  0.584744399325473  0.8450896071059545  0.48197653878343516  1.0000
  C   C43       1.0  0.4152557424577595  0.6368869422534118  0.4819762406993391  1.0000
  C   C44       1.0  0.4152519715504327  0.5180245078010657  0.15491081259040837  1.0000
  C   C45       1.0  0.4152551064237215  0.8450890835652274  0.3631127127474584  1.0000
  C   C46       1.0  0.9152549752018116  0.3631139097852697  0.5180233031186036  1.0000
  C   C47       1.0  0.9152560218617651  0.4819761173387534  0.8450895780271211  1.0000
  C   C48       1.0  0.9152583354966596  0.15491141057393068  0.6368871889718974  1.0000
  C   C49       1.0  0.9160544520660281  0.6673847235167542  0.2042916389859214  1.0000
  C   C50       1.0  0.9160548260069206  0.5369067933537792  0.3326150195864201  1.0000
  C   C51       1.0  0.9160534807897776  0.7957079108676411  0.46309305242804294  1.0000
  C   C52       1.0  0.41605404174257643  0.3326151027755415  0.7957083114217555  1.0000
  C   C53       1.0  0.41605366780549263  0.4630931639391848  0.6673854197219456  1.0000
  C   C54       1.0  0.4160550130164182  0.2042920943744164  0.5369067190295597  1.0000
  C   C55       1.0  0.5839462504838622  0.3326152373728064  0.5369067786695682  1.0000
  C   C56       1.0  0.5839452695772139  0.46309331691038136  0.7957074541888504  1.0000
  C   C57       1.0  0.583947996298754  0.20429190368291464  0.667385114900739  1.0000
  C   C58       1.0  0.083945043762526  0.6673855174800565  0.4630937939451981  1.0000
  C   C59       1.0  0.08394602466496791  0.536906508091171  0.20429218857407247  1.0000
  C   C60       1.0  0.0839460222046355  0.7957083622697567  0.3326153267147517  1.0000
  C   C61       1.0  0.08394680408736119  0.33261510213017687  0.7957081576000107  1.0000
  C   C62       1.0  0.08394643015409291  0.463093294294488  0.6673857548008967  1.0000
  C   C63       1.0  0.08394641323460658  0.20429240367948145  0.536906875157797  1.0000
  C   C64       1.0  0.5839472144142305  0.6673840550214222  0.2042915331137109  1.0000
  C   C65       1.0  0.5839462262251089  0.5369071026588443  0.3326151757146576  1.0000
  C   C66       1.0  0.5839462431355713  0.7957074213220778  0.463092767605758  1.0000
  C   C67       1.0  0.41605364354052204  0.6673850771743162  0.46309314891627196  1.0000
  C   C68       1.0  0.416053262320581  0.536907307587171  0.20429278334697176  1.0000
  C   C69       1.0  0.41605325985603514  0.7957082319144533  0.33261499163580766  1.0000
  C   C70       1.0  0.9160534881376706  0.33261492806773413  0.5369066225406981  1.0000
  C   C71       1.0  0.9160525072334309  0.4630928286555546  0.7957074770100618  1.0000
  C   C72       1.0  0.9160552339501608  0.2042917733276043  0.667384779821795  1.0000
  C   C73       1.0  0.7500003068461679  0.6813975610402138  0.22846339802550367  1.0000
  C   C74       1.0  0.7500030790577626  0.5470655613569662  0.31860222836628077  1.0000
  C   C75       1.0  0.7499991975461812  0.7715362564238503  0.4529345217270729  1.0000
  C   C76       1.0  0.2500009493058215  0.3186019546562803  0.7715360886098139  1.0000
  C   C77       1.0  0.24999681497524762  0.4529345262913012  0.6813985460204038  1.0000
  C   C78       1.0  0.25000069648061196  0.22846387917351044  0.5470655848088485  1.0000
  C   C79       1.0  0.7499993421302948  0.3186024146624505  0.5470651550347158  1.0000
  C   C80       1.0  0.750000759717615  0.45293450329447194  0.7715362126017311  1.0000
  C   C81       1.0  0.7500023141843287  0.2284637199269993  0.6813980319061983  1.0000
  C   C82       1.0  0.24999918976369168  0.6813980788344339  0.45293459360041777  1.0000
  C   C83       1.0  0.24999777218359037  0.5470654533531274  0.22846407288362505  1.0000
  C   C84       1.0  0.24999894197286923  0.7715362367205998  0.3186022535804227  1.0000
  C   C85       1.0  0.7500009656960245  0.6870786800688933  0.30459068227698777  1.0000
  C   C86       1.0  0.7500013512561383  0.6175114524351244  0.3129210528129462  1.0000
  C   C87       1.0  0.7500016286245528  0.69540893636659  0.38248810307893416  1.0000
  C   C88       1.0  0.24999892833177742  0.31292096662826924  0.6954092932583933  1.0000
  C   C89       1.0  0.2499985427716567  0.38248819426203795  0.6870789227224279  1.0000
  C   C90       1.0  0.2499996275288368  0.30459088928034106  0.617511693506998  1.0000
  C   C91       1.0  0.7500054491770101  0.31292141784057753  0.617511620530948  1.0000
  C   C92       1.0  0.7500058386212417  0.3824881224300397  0.6954088448186866  1.0000
  C   C93       1.0  0.7500047495125487  0.3045907876628887  0.6870786242487057  1.0000
  C   C94       1.0  0.24999580697677  0.6870792066569891  0.3824886170061388  1.0000
  C   C95       1.0  0.24999541753354748  0.6175120131673211  0.30459126171785994  1.0000
  C   C96       1.0  0.2499951445142443  0.695409347934465  0.3129214822872085  1.0000
  C   C97       1.0  0.7499985550788538  0.7168702115792414  0.3542896997890139  1.0000
  C   C98       1.0  0.750000994583516  0.6374189727139736  0.2831291667901469  1.0000
  C   C99       1.0  0.7500016716559444  0.6457100635271473  0.36258079263836857  1.0000
  C   C100      1.0  0.24999861469053997  0.2831296140676755  0.6457100967950282  1.0000
  C   C101      1.0  0.24999753731388105  0.36258085293295045  0.716870629794528  1.0000
  C   C102      1.0  0.24999958450125356  0.3542898931204519  0.6374194928482524  1.0000
  C   C103      1.0  0.7500043990247179  0.28312926824501966  0.6374188714695778  1.0000
  C   C104      1.0  0.7500054808427093  0.3625806272723011  0.6457101045526272  1.0000
  C   C105      1.0  0.7500034331907983  0.35428976456622496  0.7168701615244117  1.0000
  C   C106      1.0  0.24999549500067533  0.7168705574019113  0.3625809251157221  1.0000
  C   C107      1.0  0.24999577531588807  0.637419639325735  0.3542904908846153  1.0000
  C   C108      1.0  0.2499950987065986  0.6457100610806987  0.28312963506025557  1.0000
  O   O1        1.0  0.9048895736936159  0.5692903978976176  0.05793909614914828  1.0000
  O   O2        1.0  0.9048878357436508  0.4886487633393557  0.4307101174389487  1.0000
  O   O3        1.0  0.9048987947360628  0.9420614231863027  0.5113505649533606  1.0000
  O   O4        1.0  0.4049018150253048  0.43070977340423866  0.9420629784747874  1.0000
  O   O5        1.0  0.40490491508622745  0.5113497751587488  0.5692892506810807  1.0000
  O   O6        1.0  0.4048925939579888  0.0579389399119208  0.48864883826750133  1.0000
  O   O7        1.0  0.5950957584330396  0.4307110446009331  0.4886484133988346  1.0000
  O   O8        1.0  0.5950940249992273  0.511348908102093  0.9420605903083655  1.0000
  O   O9        1.0  0.595109045061818  0.057938990678408686  0.5692906343984206  1.0000
  O   O10       1.0  0.0951112787854527  0.5692902471445862  0.5113516327016612  1.0000
  O   O11       1.0  0.095111650102119  0.4886490923427047  0.057939027688419624  1.0000
  O   O12       1.0  0.09510344067107471  0.9420621221173562  0.430709590654672  1.0000
  O   O13       1.0  0.0951103203341859  0.43070924879954486  0.9420608793862258  1.0000
  O   O14       1.0  0.09511069615755471  0.5113511933082435  0.5692901680464147  1.0000
  O   O15       1.0  0.09509973716132689  0.057938402460621305  0.4886492316313068  1.0000
  O   O16       1.0  0.5950980790024972  0.5692898732929237  0.05793699706058647  1.0000
  O   O17       1.0  0.5950949789477846  0.4886498235893201  0.43071139270507086  1.0000
  O   O18       1.0  0.5951059379432166  0.9420610167356714  0.5113514472178621  1.0000
  O   O19       1.0  0.404904135587536  0.5692891389455212  0.5113510252863165  1.0000
  O   O20       1.0  0.40490314477257533  0.4886507385950623  0.057939385225750886  1.0000
  O   O21       1.0  0.40489357321615665  0.9420615028184898  0.4307091142386027  1.0000
  O   O22       1.0  0.9048886152413402  0.4307098884527746  0.4886484738342531  1.0000
  O   O23       1.0  0.9048868817980775  0.511351353205093  0.9420613887974838  1.0000
  O   O24       1.0  0.9048991776079022  0.05793788247933662  0.5692900269818112  1.0000
  O   O25       1.0  0.7499978465169689  0.4675178473340366  9.262927206308855e-07  1.0000
  O   O26       1.0  0.7499982558762213  0.53248262940307  0.5324829280786929  1.0000
  O   O27       1.0  0.7500000500452445  7.700903808140847e-07  0.46751758202567834  1.0000
  O   O28       1.0  0.2500020475098239  0.5324822882633246  0.9999991802431939  1.0000
  O   O29       1.0  0.2500016381529804  0.46751732724452927  0.4675173574073028  1.0000
  O   O30       1.0  0.2499998439801416  0.9999990555565431  0.5324822145596214  1.0000
  O   O31       1.0  0.7500019872996546  0.7103297125942164  0.278256838434224  1.0000
  O   O32       1.0  0.7500027258514878  0.5679267504454656  0.2896698840240504  1.0000
  O   O33       1.0  0.7500005945549688  0.7217429157813625  0.4320734256618336  1.0000
  O   O34       1.0  0.24999790672433866  0.2896698031022709  0.7217426482004542  1.0000
  O   O35       1.0  0.2499985303057102  0.4320732062021335  0.7103304014625708  1.0000
  O   O36       1.0  0.2500033858558197  0.2782572198160053  0.5679266808759778  1.0000
  O   O37       1.0  0.7500010209695277  0.2896704262017947  0.5679266952967836  1.0000
  O   O38       1.0  0.7500017674762277  0.43207291361880346  0.7217426950288797  1.0000
  O   O39       1.0  0.7500023518410757  0.27825698811288646  0.7103296992676249  1.0000
  O   O40       1.0  0.24999887305625634  0.7103301982957645  0.4320735422396709  1.0000
  O   O41       1.0  0.24999948868097022  0.5679270430287958  0.27825759045774123  1.0000
  O   O42       1.0  0.2499975421843175  0.7217428375340377  0.28967009731767474  1.0000
