data_image0
_chemical_formula_structural       Cu4H56C24N32
_chemical_formula_sum              "Cu4 H56 C24 N32"
_cell_length_a       6.82190391
_cell_length_b       11.92108844924039
_cell_length_c       13.295
_cell_angle_alpha    94.05712846341856
_cell_angle_beta     90.0
_cell_angle_gamma    90.0

_space_group_name_H-M_alt    "P 1"
_space_group_IT_number       1

loop_
  _space_group_symop_operation_xyz
  'x, y, z'

loop_
  _atom_site_type_symbol
  _atom_site_label
  _atom_site_symmetry_multiplicity
  _atom_site_fract_x
  _atom_site_fract_y
  _atom_site_fract_z
  _atom_site_occupancy
  Cu  Cu1       1.0  0.8499005668345774  0.025393537984264504  0.0995026454864316  1.0000
  Cu  Cu2       1.0  0.3499023192779021  0.9745968565206269  0.4005005059567637  1.0000
  Cu  Cu3       1.0  0.1500959282787662  0.9745943336495912  0.9004950807694672  1.0000
  Cu  Cu4       1.0  0.6500985734347611  0.0254120390385637  0.5994993062118327  1.0000
  H   H1        1.0  0.6960857353969985  0.2449447084096903  0.21852754534892685  1.0000
  H   H2        1.0  0.1960772267752446  0.7550532547083292  0.281471573269549  1.0000
  H   H3        1.0  0.3039092938499053  0.7550431632241654  0.7814694287445008  1.0000
  H   H4        1.0  0.8039104731394531  0.2449581637219111  0.7185344162488152  1.0000
  H   H5        1.0  0.8409895647445469  0.25459469014136  0.0024575253483192  1.0000
  H   H6        1.0  0.340986919588552  0.7454007501056168  0.4975444418699979  1.0000
  H   H7        1.0  0.1590113279681162  0.745404954890688  0.9975454607825116  1.0000
  H   H8        1.0  0.6590125072576712  0.2546014177974669  0.5024534391735928  1.0000
  H   H9        1.0  0.0803074929268561  0.3953599617856867  0.0755583642398605  1.0000
  H   H10       1.0  0.5803116039492835  0.604645569945454  0.4244344650664972  1.0000
  H   H11       1.0  0.9196948656522466  0.6046413651603828  0.9244499937282598  1.0000
  H   H12       1.0  0.4196863570304998  0.3953591208286724  0.5755560544024476  1.0000
  H   H13       1.0  0.9774895817903726  0.3853550961942602  0.1966363331164445  1.0000
  H   H14       1.0  0.4774928001001442  0.6146529584079232  0.30336192137721  1.0000
  H   H15       1.0  0.022501049857211807  0.6146462307518092  0.8033705205267411  1.0000
  H   H16       1.0  0.5224948998145607  0.3853525733232175  0.6966316600916117  1.0000
  H   H17       1.0  0.7674016035796073  0.4717499740348856  0.01257601207974801  1.0000
  H   H18       1.0  0.2674136170880175  0.5282488300401482  0.4874201512388724  1.0000
  H   H19       1.0  0.2325978232666159  0.5282521938681981  0.9874211168013717  1.0000
  H   H20       1.0  0.7325858097582056  0.47175081499189986  0.5125835870544293  1.0000
  H   H21       1.0  0.8447157972355583  0.5554352883775167  0.12049197331901243  1.0000
  H   H22       1.0  0.34472487901108206  0.44456940239660975  0.3795030591247368  1.0000
  H   H23       1.0  0.1552850954771046  0.44456351569751007  0.8795087029744053  1.0000
  H   H24       1.0  0.6552818771673401  0.5554319245494668  0.6204917599189771  1.0000
  H   H25       1.0  0.4869696266360961  0.5130283490500389  0.1284839037562477  1.0000
  H   H26       1.0  0.9869839987236092  0.4869662502399237  0.3715074798375256  1.0000
  H   H27       1.0  0.513029800210127  0.4869687731109593  0.8715136571872864  1.0000
  H   H28       1.0  0.0130124963897345  0.5130325538351101  0.6284931964558994  1.0000
  H   H29       1.0  0.6153868561306055  0.456485763280071  0.2283477839280437  1.0000
  H   H30       1.0  0.1153900744403771  0.5435180865370413  0.2716524603029669  1.0000
  H   H31       1.0  0.3846125707156176  0.5435189274940555  0.7716540179779088  1.0000
  H   H32       1.0  0.8846064206729665  0.456479035623957  0.728345100640567  1.0000
  H   H33       1.0  0.38061955053248653  0.3143102067238388  0.15460162900767932  1.0000
  H   H34       1.0  0.8806134004898354  0.6856835516091095  0.34539496637334816  1.0000
  H   H35       1.0  0.6193857397794957  0.6856902792652164  0.8453938888484913  1.0000
  H   H36       1.0  0.1193830946235082  0.31431441150891  0.6546056565700624  1.0000
  H   H37       1.0  0.4843281353108324  0.3243360962406143  0.032956359056200306  1.0000
  H   H38       1.0  0.9843175876688692  0.6756559801783056  0.4670438904371395  1.0000
  H   H39       1.0  0.5156844843333488  0.6756643897484479  0.9670444239372316  1.0000
  H   H40       1.0  0.0156847709102337  0.3243386191116571  0.5329565191062288  1.0000
  H   H41       1.0  0.5353857292897573  0.1212172258619688  0.037292835262036306  1.0000
  H   H42       1.0  0.0354124014625725  0.8787891468261861  0.46271132983133617  1.0000
  H   H43       1.0  0.4645799826283366  0.8787899877832004  0.9627031093942052  1.0000
  H   H44       1.0  0.9645547763219682  0.12120797533481918  0.5372945048993358  1.0000
  H   H45       1.0  0.5143388189412335  0.0926726219475427  0.15628077243544422  1.0000
  H   H46       1.0  0.014336173785245904  0.9073270230844984  0.34372221369538636  1.0000
  H   H47       1.0  0.4856532785727837  0.907326182127484  0.8437146387207053  1.0000
  H   H48       1.0  0.9856529919958987  0.0926734629045569  0.656284586597785  1.0000
  H   H49       1.0  0.0597853627639253  0.1893322210968194  0.17937709479049604  1.0000
  H   H50       1.0  0.5597792127212742  0.8106691058492572  0.3206297588526823  1.0000
  H   H51       1.0  0.9402243251473764  0.810661537236129  0.8206247657278001  1.0000
  H   H52       1.0  0.4402290093235877  0.1893330620538336  0.6793703786783069  1.0000
  H   H53       1.0  0.11472603694296173  0.1654986583728757  0.0566450946544919  1.0000
  H   H54       1.0  0.6147110917016718  0.8345077143152723  0.443354557464076  1.0000
  H   H55       1.0  0.8852777875025809  0.8344967818740942  0.9433508552640931  1.0000
  H   H56       1.0  0.38528833514455135  0.1654936126307973  0.5566485353667687  1.0000
  C   C1        1.0  0.6696722880108723  0.2416145186356218  0.13640729097050303  1.0000
  C   C2        1.0  0.16965645005691957  0.7583834444823907  0.3635993492726399  1.0000
  C   C3        1.0  0.3303373999004365  0.7583809216113551  0.8635969327352129  1.0000
  C   C4        1.0  0.8303488402550627  0.24162713299082844  0.636398313108572  1.0000
  C   C5        1.0  0.8649960594358461  0.2636324551670839  0.0846766093765723  1.0000
  C   C6        1.0  0.3650051412113768  0.736356257423779  0.4153211702293334  1.0000
  C   C7        1.0  0.134996038078171  0.736356257423779  0.915324931041667  1.0000
  C   C8        1.0  0.6349810928368812  0.2636543200494401  0.584680252964219  1.0000
  C   C9        1.0  0.9423835464138082  0.3812697270219303  0.11560769656728813  1.0000
  C   C10       1.0  0.4423809012578133  0.6187282360960822  0.3843876612388543  1.0000
  C   C11       1.0  0.057610016966656  0.6187248722680323  0.8843949694634858  1.0000
  C   C12       1.0  0.5576170597219701  0.38128570520519384  0.615610966704871  1.0000
  C   C13       1.0  0.7906370525233657  0.4713101535167468  0.09471132928023002  1.0000
  C   C14       1.0  0.2906446684324493  0.5286836048162016  0.4052822574509279  1.0000
  C   C15       1.0  0.2093653060557372  0.5286886505582871  0.9052878426882602  1.0000
  C   C16       1.0  0.7093620877459728  0.4713177221298679  0.5947148180801777  1.0000
  C   C17       1.0  0.595132979526241  0.4486707497521891  0.14584673715408064  1.0000
  C   C18       1.0  0.09514352716821153  0.5513280543228376  0.35415093048946744  1.0000
  C   C19       1.0  0.404860583854223  0.5513280543228376  0.8541561956267428  1.0000
  C   C20       1.0  0.9048588314108914  0.4486749545372604  0.6458454995791955  1.0000
  C   C21       1.0  0.5173790259382329  0.33082323864393  0.11447357985478852  1.0000
  C   C22       1.0  0.0173719831829189  0.6691646329899186  0.385524898563574  1.0000
  C   C23       1.0  0.4826262643737564  0.6691671558609613  0.8855265629385372  1.0000
  C   C24       1.0  0.9826259777968646  0.3308417396982293  0.6144747535549939  1.0000
  N   N1        1.0  0.6092947152050954  0.1252681157967359  0.10536253380266912  1.0000
  N   N2        1.0  0.1092818089840293  0.8747306882782979  0.39463964681569064  1.0000
  N   N3        1.0  0.3907091092404471  0.8747290063642694  0.894634274978401  1.0000
  N   N4        1.0  0.8907161519957543  0.1252714796247858  0.6053650036901034  1.0000
  N   N5        1.0  0.0016578949438752  0.1727636860138304  0.10811012227864582  1.0000
  N   N6        1.0  0.5016620059663097  0.8272393228462745  0.3918863077900171  1.0000
  N   N7        1.0  0.998332736703702  0.8272325951901607  0.8918866331524029  1.0000
  N   N8        1.0  0.4983242280819553  0.1727645269708376  0.6081161929283924  1.0000
  N   N9        1.0  0.0964334896355936  0.9318737173560194  0.09936218498906162  1.0000
  N   N10       1.0  0.5964419982573474  0.0681032218366582  0.40065139529098565  1.0000
  N   N11       1.0  0.9035688689435091  0.0681082675787437  0.900656980528318  1.0000
  N   N12       1.0  0.4035647579210746  0.9319124013786464  0.5993285352910719  1.0000
  N   N13       1.0  0.21816490229631574  0.959853198157262  0.16086039736154595  1.0000
  N   N14       1.0  0.7181704791851901  0.0401397192186721  0.3391376489944022  1.0000
  N   N15       1.0  0.7818330586834676  0.0401371963476294  0.8391517800312513  1.0000
  N   N16       1.0  0.2818260159281536  0.9598658125124686  0.6608469065248103  1.0000
  N   N17       1.0  0.3409165579994209  0.9862415882886851  0.2201493601211197  1.0000
  N   N18       1.0  0.8409030786245708  0.01376142057142  0.279838796160405  1.0000
  N   N19       1.0  0.659091664045441  0.0137546929153061  0.7798579255844731  1.0000
  N   N20       1.0  0.159105143420291  0.9862365425465994  0.720149792183534  1.0000
  N   N21       1.0  0.6913260670656385  0.8860844489196253  0.061281700395056815  1.0000
  N   N22       1.0  0.1912999680466001  0.11388828548798101  0.4387233393478098  1.0000
  N   N23       1.0  0.3086938819107488  0.1138941721870808  0.9387184476606053  1.0000
  N   N24       1.0  0.8087229126626596  0.8861315425123877  0.5612779185333778  1.0000
  N   N25       1.0  0.6802617071749424  0.8179257239200624  0.12374901040435302  1.0000
  N   N26       1.0  0.1802458692209896  0.1820604657997578  0.37625462645125657  1.0000
  N   N27       1.0  0.3197553100685653  0.1820629886708005  0.876254034338821  1.0000
  N   N28       1.0  0.8197696821560783  0.8179484297594328  0.6237406727425352  1.0000
  N   N29       1.0  0.6664034058492023  0.7502715731286997  0.18298921044933542  1.0000
  N   N30       1.0  0.1664080900254135  0.24971377563411323  0.31702039035600654  1.0000
  N   N31       1.0  0.3336033503292199  0.2497213442472415  0.8170148532063523  1.0000
  N   N32       1.0  0.8335942685536893  0.7502883922689705  0.6829737298752506  1.0000
