data_image0
_chemical_formula_structural       Cu6H42C40N16
_chemical_formula_sum              "Cu6 H42 C40 N16"
_cell_length_a       11.427041916129324
_cell_length_b       11.328436644141112
_cell_length_c       13.1199
_cell_angle_alpha    90.17823346591338
_cell_angle_beta     115.77709045334788
_cell_angle_gamma    110.33230254660796

_space_group_name_H-M_alt    "P 1"
_space_group_IT_number       1

loop_
  _space_group_symop_operation_xyz
  'x, y, z'

loop_
  _atom_site_type_symbol
  _atom_site_label
  _atom_site_symmetry_multiplicity
  _atom_site_fract_x
  _atom_site_fract_y
  _atom_site_fract_z
  _atom_site_occupancy
  Cu  Cu1       1.0  0.175646452997249  0.1226299942864628  0.4098712370836211  1.0000
  Cu  Cu2       1.0  0.8243493693809258  0.8773616244876123  0.5901294446922519  1.0000
  Cu  Cu3       1.0  0.8637300659327636  0.9576234986467894  0.9981708573564844  1.0000
  Cu  Cu4       1.0  0.136267642921986  0.042374822580242694  0.0018290325416785026  1.0000
  Cu  Cu5       1.0  0.6476374876280815  0.18445533534770678  0.7032735536789901  1.0000
  Cu  Cu6       1.0  0.3523611930469812  0.8155429858793254  0.2967244177027908  1.0000
  H   H1        1.0  0.4313856843556394  0.6687382012705143  0.593530202335721  1.0000
  H   H2        1.0  0.5686096725303714  0.33125916246324033  0.4064687941595295  1.0000
  H   H3        1.0  0.4080375504840177  0.5076859166618277  0.6113772034045937  1.0000
  H   H4        1.0  0.5919591865504259  0.4923124045652045  0.3886238428090181  1.0000
  H   H5        1.0  0.5168394152959125  0.5919338353438235  0.5498787861487815  1.0000
  H   H6        1.0  0.4831567582463521  0.40806544337648626  0.4501220492085025  1.0000
  H   H7        1.0  0.6253428213720227  0.8390063586949664  0.7742769695574054  1.0000
  H   H8        1.0  0.37465447915460004  0.1609910050387882  0.22572428751253432  1.0000
  H   H9        1.0  0.8806417691394586  0.0925560878687435  0.2851680282245681  1.0000
  H   H10       1.0  0.11935895317623854  0.9074470208246908  0.7148337781113412  1.0000
  H   H11       1.0  0.019302641807357208  0.7188083973385843  0.9979977921195342  1.0000
  H   H12       1.0  0.9806931234067804  0.2811899238884479  0.0019975506011391704  1.0000
  H   H13       1.0  0.9070649037015457  0.5692019873937681  0.00828567545109865  1.0000
  H   H14       1.0  0.09293735392664361  0.4308001638063814  0.9917113744210438  1.0000
  H   H15       1.0  0.9359284896054803  0.716276785107425  0.08400915235777967  1.0000
  H   H16       1.0  0.06407555649927592  0.2837272810792868  0.9159908666637335  1.0000
  H   H17       1.0  0.5859519387475132  0.3976737688134193  0.7048002754069459  1.0000
  H   H18       1.0  0.41404617843536334  0.6023255099068976  0.2951982473194334  1.0000
  H   H19       1.0  0.7233917285768783  0.4140861611183695  0.841364315217163  1.0000
  H   H20       1.0  0.276605825113819  0.5859140750952249  0.1586339966528882  1.0000
  H   H21       1.0  0.8710267948522272  0.6633973037571224  0.7123433000537814  1.0000
  H   H22       1.0  0.1289757159400367  0.336607719922867  0.2876584266277789  1.0000
  H   H23       1.0  0.0188082252649551  0.6420624385019451  0.6227051887636108  1.0000
  H   H24       1.0  0.9811969478241666  0.3579397126982045  0.37729982517615207  1.0000
  H   H25       1.0  0.012789297737612094  0.42434857408869675  0.5755766258207302  1.0000
  H   H26       1.0  0.9872174106640019  0.5756526196181753  0.42443201586550583  1.0000
  H   H27       1.0  0.9118993946045038  0.170006761759133  0.6948020625842092  1.0000
  H   H28       1.0  0.0881043983361778  0.8299944319477389  0.30519861503439927  1.0000
  H   H29       1.0  0.7420644421273791  0.13096210080520618  0.5831422888933275  1.0000
  H   H30       1.0  0.2579357166961458  0.8690419653815055  0.4168547333806671  1.0000
  H   H31       1.0  0.6551163588778977  0.16758909122824409  0.2612199033973752  1.0000
  H   H32       1.0  0.34488160314093363  0.832412102478628  0.7387770413008924  1.0000
  H   H33       1.0  0.6267571348396785  0.1504624089367397  0.3845814570140291  1.0000
  H   H34       1.0  0.3732441509682047  0.8495397422634098  0.6154205601782153  1.0000
  H   H35       1.0  0.5995156915334832  0.014191965389649399  0.2988618400781107  1.0000
  H   H36       1.0  0.40048712958688537  0.9858092283172226  0.7011415182578135  1.0000
  H   H37       1.0  0.2458602692341785  0.1923230576258561  0.653209890460559  1.0000
  H   H38       1.0  0.7541406082455779  0.8076781360810159  0.3467904450997423  1.0000
  H   H39       1.0  0.1411890636044362  0.160375336860028  0.7268592770333485  1.0000
  H   H40       1.0  0.8588118138753202  0.8396258568468369  0.2731380097232262  1.0000
  H   H41       1.0  0.20800145924390984  0.3163471621273643  0.699458657870835  1.0000
  H   H42       1.0  0.7919986015795928  0.6836521165929526  0.30053983882744734  1.0000
  C   C1        1.0  0.4848027571897831  0.6017222891407741  0.6161541007740112  1.0000
  C   C2        1.0  0.5151916278759147  0.3982750745929806  0.3838475764385549  1.0000
  C   C3        1.0  0.6092298977970927  0.648311039644362  0.732622696808754  1.0000
  C   C4        1.0  0.39076781105766406  0.3516872815826702  0.2673779552903355  1.0000
  C   C5        1.0  0.6995700035804618  0.5900724684083584  0.7994466708495551  1.0000
  C   C6        1.0  0.3004292405867872  0.4099248953253961  0.20055379799135406  1.0000
  C   C7        1.0  0.79824305222418  0.6794420186427175  0.9028166947708484  1.0000
  C   C8        1.0  0.20175531812277822  0.32056013255743204  0.0971811693584286  1.0000
  C   C9        1.0  0.9210390706730891  0.6696104776481917  0.0033793944113399564  1.0000
  C   C10       1.0  0.07895889134574217  0.33039071605868026  0.9966190746887874  1.0000
  C   C11       1.0  0.694543745961802  0.46185167086253637  0.766115210043651  1.0000
  C   C12       1.0  0.3054553430413876  0.5381476078577734  0.23388139416634604  1.0000
  C   C13       1.0  0.788084178136593  0.46097843699157437  0.7127389466148345  1.0000
  C   C14       1.0  0.2119172628353496  0.539021799222013  0.28725931319900866  1.0000
  C   C15       1.0  0.8714160361453198  0.5705041782539766  0.6908675798975779  1.0000
  C   C16       1.0  0.12858760163130972  0.4294989304394576  0.30913761730037237  1.0000
  C   C17       1.0  0.9532441194072164  0.55808644791135  0.6409891414228356  1.0000
  C   C18       1.0  0.04676560245533779  0.44191953326191674  0.359018367897427  1.0000
  C   C19       1.0  0.9500515173109677  0.43740590994207196  0.6144395680397424  1.0000
  C   C20       1.0  0.049952683957840804  0.5625962412580847  0.3855650778136095  1.0000
  C   C21       1.0  0.8638530843395743  0.331312782086897  0.6375621731810883  1.0000
  C   C22       1.0  0.13615306056985327  0.6686893691132524  0.36243711123763944  1.0000
  C   C23       1.0  0.8525965583717935  0.19645847110027856  0.6126489339151177  1.0000
  C   C24       1.0  0.14740309412357533  0.8035398501267536  0.3873478811512144  1.0000
  C   C25       1.0  0.6673152374136394  0.11609797513330018  0.33373609774243124  1.0000
  C   C26       1.0  0.33268313293331186  0.8839041760668493  0.6662610041859125  1.0000
  C   C27       1.0  0.8171509311717244  0.136296295865634  0.40839892317995213  1.0000
  C   C28       1.0  0.1828482558314874  0.8637077703210706  0.5916000176104177  1.0000
  C   C29       1.0  0.899950096924215  0.1724569870615298  0.5278775296586531  1.0000
  C   C30       1.0  0.10005062539148923  0.8275461216319044  0.47212503887818963  1.0000
  C   C31       1.0  0.0353287966888445  0.17859260399695387  0.5508984549777622  1.0000
  C   C32       1.0  0.9646738692674788  0.8214105046964731  0.4491002765263233  1.0000
  C   C33       1.0  0.16471287916754562  0.21367707274661998  0.6636792996411599  1.0000
  C   C34       1.0  0.8352886598044122  0.7863279509333692  0.33631901015025534  1.0000
  C   C35       1.0  0.9842871358375406  0.018340783769986  0.15090698484486603  1.0000
  C   C36       1.0  0.01570909486876104  0.9816517924973666  0.8490953785629501  1.0000
  C   C37       1.0  0.705183810442378  0.09460320850044468  0.8185974492534809  1.0000
  C   C38       1.0  0.29481834918579614  0.90539415523331  0.18139878844014853  1.0000
  C   C39       1.0  0.3579361456250822  0.1517090651867292  0.5106414482237227  1.0000
  C   C40       1.0  0.6420621838858976  0.8482815960940682  0.48936018058130776  1.0000
  N   N1        1.0  0.769562312380245  0.7854068423984302  0.8993785044408967  1.0000
  N   N2        1.0  0.23043386116201958  0.21459243632187958  0.10062156871544659  1.0000
  N   N3        1.0  0.6553458089762573  0.7641466616190654  0.7963758796517553  1.0000
  N   N4        1.0  0.3446510832222458  0.2358497446214116  0.2036236957862414  1.0000
  N   N5        1.0  0.784686547508237  0.3440876574227971  0.685728600272469  1.0000
  N   N6        1.0  0.21531821725275796  0.6559135362840749  0.31427320763349087  1.0000
  N   N7        1.0  0.9024198620238479  0.1216102639437366  0.36721480665689643  1.0000
  N   N8        1.0  0.09758183211216218  0.8783928447496975  0.6327850811626305  1.0000
  N   N9        1.0  0.035042321336561606  0.1467281851464506  0.45180574228760406  1.0000
  N   N10       1.0  0.9649584009791425  0.8532749235469763  0.5481930152445855  1.0000
  N   N11       1.0  0.0567087207354575  0.06013632291609379  0.2503198410721907  1.0000
  N   N12       1.0  0.9432881714630383  0.9398600833243832  0.7496804965667394  1.0000
  N   N13       1.0  0.7496908779642624  0.036988922882713396  0.8903478587947619  1.0000
  N   N14       1.0  0.2503101546795462  0.9630103558376034  0.10965024378899808  1.0000
  N   N15       1.0  0.4719256895483995  0.1632966488559688  0.5798878180261795  1.0000
  N   N16       1.0  0.5280746816032149  0.8366987998912235  0.4201138347283262  1.0000
