data_image0
_chemical_formula_structural       Al4H52C64N8O22
_chemical_formula_sum              "Al4 H52 C64 N8 O22"
_cell_length_a       6.670233530063206
_cell_length_b       23.00885743671321
_cell_length_c       26.07932392088051
_cell_angle_alpha    100.95021866597911
_cell_angle_beta     90.00001204792332
_cell_angle_gamma    89.9995059866646

_space_group_name_H-M_alt    "P 1"
_space_group_IT_number       1

loop_
  _space_group_symop_operation_xyz
  'x, y, z'

loop_
  _atom_site_type_symbol
  _atom_site_label
  _atom_site_symmetry_multiplicity
  _atom_site_fract_x
  _atom_site_fract_y
  _atom_site_fract_z
  _atom_site_occupancy
  Al  Al1       1.0  0.8942207315155528  0.499618371282537  0.500393910346496  1.0000
  Al  Al2       1.0  0.3942187357848823  0.5003799855996147  0.4996056519285616  1.0000
  Al  Al3       1.0  0.326461062719801  0.0005721402563380732  0.9998050765410724  1.0000
  Al  Al4       1.0  0.8264614101972043  0.9994244002109408  0.00019333770955399992  1.0000
  H   H1        1.0  0.973268658628001  0.7247673403667533  0.8315284565437153  1.0000
  H   H2        1.0  0.4732747184284777  0.27523021078428656  0.1684702965379827  1.0000
  H   H3        1.0  0.9969330922374979  0.6501981796664892  0.7575237960822535  1.0000
  H   H4        1.0  0.496936963649418  0.3497993946765303  0.24247533917655062  1.0000
  H   H5        1.0  0.44949846691282863  0.7178238679824174  0.7145413847425246  1.0000
  H   H6        1.0  0.949502346825426  0.28217314162821333  0.28545659555655334  1.0000
  H   H7        1.0  0.3516000748426649  0.6695456388321259  0.7533716685365022  1.0000
  H   H8        1.0  0.8516039959364577  0.33045085171425365  0.24662478411604383  1.0000
  H   H9        1.0  0.3499003174355195  0.7488975502255997  0.8244189465786534  1.0000
  H   H10       1.0  0.8499080701608294  0.2510971914720982  0.17557945902178324  1.0000
  H   H11       1.0  0.4230919064350687  0.7986223057865228  0.7840693674635092  1.0000
  H   H12       1.0  0.9230921658329265  0.20137371975028626  0.21592979359503775  1.0000
  H   H13       1.0  0.2436277072359019  0.7779878654172021  0.6761232154110813  1.0000
  H   H14       1.0  0.7436274025837691  0.22201027577403204  0.32387561898992356  1.0000
  H   H15       1.0  0.8989113537480834  0.8298217988446266  0.7426681824915137  1.0000
  H   H16       1.0  0.3989070955022171  0.17017776589870684  0.25733098782801284  1.0000
  H   H17       1.0  0.814974899009684  0.6863171216076366  0.7262297097507328  1.0000
  H   H18       1.0  0.31497236629663666  0.3136810882446639  0.27377027105550417  1.0000
  H   H19       1.0  0.795851512085136  0.7624671111831914  0.7996469243474068  1.0000
  H   H20       1.0  0.2958602103448627  0.2375323823749652  0.2003507202382266  1.0000
  H   H21       1.0  0.1482595922961778  0.8554271388537201  0.7412854743476062  1.0000
  H   H22       1.0  0.6482555690362446  0.14457011145961468  0.2587141746763422  1.0000
  H   H23       1.0  0.4046366259164387  0.8987807406280408  0.10833396638384579  1.0000
  H   H24       1.0  0.9046192039892206  0.10121941203945532  0.8916659831108972  1.0000
  H   H25       1.0  0.41727436332401174  0.8328749923009156  0.17500343962480258  1.0000
  H   H26       1.0  0.9172729349111322  0.16712442659061816  0.8249972863306355  1.0000
  H   H27       1.0  0.7734929261128514  0.822777276449969  0.17331460986292774  1.0000
  H   H28       1.0  0.2734902273601918  0.17722633958476308  0.8266857772354613  1.0000
  H   H29       1.0  0.7626137419288882  0.8890820527587945  0.1068717293834851  1.0000
  H   H30       1.0  0.2625995590929051  0.11091916609795754  0.8931274894637654  1.0000
  H   H31       1.0  0.4472621676471534  0.6778533710153167  0.32733748420049125  1.0000
  H   H32       1.0  0.9472605419384125  0.32214846528887603  0.672666746493597  1.0000
  H   H33       1.0  0.45790597839773983  0.6115054797517486  0.3937455980396933  1.0000
  H   H34       1.0  0.9579128371849847  0.38849348408937334  0.6062555039955412  1.0000
  H   H35       1.0  0.8159175825394983  0.6013575907087798  0.3917810368788039  1.0000
  H   H36       1.0  0.31592167045408814  0.39864356048406774  0.6082205063417803  1.0000
  H   H37       1.0  0.8035422031795181  0.6673706542703356  0.3251861782013705  1.0000
  H   H38       1.0  0.3035452927231717  0.33263123000511996  0.6748145884629722  1.0000
  H   H39       1.0  0.7029580699027633  0.7703889667954084  0.6955122954167763  1.0000
  H   H40       1.0  0.754330562570459  0.7040593935136524  0.6492801694367999  1.0000
  H   H41       1.0  0.6995400151418637  0.7606785496436427  0.576096200743791  1.0000
  H   H42       1.0  0.4822328194793642  0.7587126152800037  0.6150314794615356  1.0000
  H   H43       1.0  0.6313990343249074  0.8243265029987369  0.6232232991694815  1.0000
  H   H44       1.0  0.2029565594230931  0.22961257330598528  0.3044877256659717  1.0000
  H   H45       1.0  0.254334592192798  0.2959421825693908  0.35072061456651943  1.0000
  H   H46       1.0  0.19953977104717782  0.23932161134457888  0.42390343073096665  1.0000
  H   H47       1.0  0.9822304698156473  0.24129029644119265  0.38496805260681555  1.0000
  H   H48       1.0  0.13139766731914904  0.17567470233814925  0.37677635660928394  1.0000
  H   H49       1.0  0.6450753975159244  0.57601798737695  0.5238166687827145  1.0000
  H   H50       1.0  0.1450756687919537  0.4239794537708689  0.47618180978562197  1.0000
  H   H51       1.0  0.5745285518878519  0.9244379245006299  0.9749036799298737  1.0000
  H   H52       1.0  0.07452700472155271  0.07555673946409057  0.025095213566267205  1.0000
  C   C1        1.0  0.6425978314780212  0.43530700901784053  0.5632837166016317  1.0000
  C   C2        1.0  0.1426328673168697  0.5646941528233993  0.4367178879005493  1.0000
  C   C3        1.0  0.6446608791708144  0.4229073128789053  0.42235537462310185  1.0000
  C   C4        1.0  0.1446941130643253  0.5770898626411947  0.577643885112053  1.0000
  C   C5        1.0  0.9588423347101981  0.6927417517749105  0.7466850986116215  1.0000
  C   C6        1.0  0.458845980651951  0.3072560191044004  0.2533124879966095  1.0000
  C   C7        1.0  0.3254144519966857  0.7117723885949372  0.7406536284453367  1.0000
  C   C8        1.0  0.8254211374809372  0.2882230333099614  0.2593436143307812  1.0000
  C   C9        1.0  0.3143361146863839  0.7637769727092445  0.7878557076418461  1.0000
  C   C10       1.0  0.8143413300514342  0.23621854697859124  0.21214388230948342  1.0000
  C   C11       1.0  0.0794371187010583  0.8773961545440297  0.8762494732833589  1.0000
  C   C12       1.0  0.5794231919432208  0.12260737216330847  0.12374824863841381  1.0000
  C   C13       1.0  0.1260077077869539  0.7067622188947735  0.7093485597274523  1.0000
  C   C14       1.0  0.626018756302422  0.2932356071982553  0.2906514878171791  1.0000
  C   C15       1.0  0.9457266252709929  0.7422409723901421  0.7957554079002661  1.0000
  C   C16       1.0  0.4457347222710482  0.25775828939304546  0.20424491742171816  1.0000
  C   C17       1.0  0.1012966880358448  0.7912665097490217  0.7922263225364007  1.0000
  C   C18       1.0  0.6012982233873246  0.2087316464983431  0.20777295273446583  1.0000
  C   C19       1.0  0.0567371488157491  0.8159343314506484  0.7420863748075703  1.0000
  C   C20       1.0  0.5567334467515083  0.18406342066749193  0.25791252559947253  1.0000
  C   C21       1.0  0.0986209361713435  0.7684641089915157  0.6928211976674917  1.0000
  C   C22       1.0  0.598620339600572  0.23153432078400724  0.3071772975253921  1.0000
  C   C23       1.0  0.08773875136775193  0.8382852611192319  0.8377816676466808  1.0000
  C   C24       1.0  0.5877356703250811  0.1617123420268669  0.16221487853027128  1.0000
  C   C25       1.0  0.137933004623207  0.6606285392895045  0.6632060207944833  1.0000
  C   C26       1.0  0.6379546930014044  0.33936928549950096  0.33679011713445567  1.0000
  C   C27       1.0  0.14390487484678968  0.6221092013230275  0.6242735920307753  1.0000
  C   C28       1.0  0.6439104411339187  0.3778897293861192  0.3757237156303219  1.0000
  C   C29       1.0  0.2679909921608612  0.8817998569911152  0.1230312784113963  1.0000
  C   C30       1.0  0.767986549699515  0.11819969349277668  0.8769683287377249  1.0000
  C   C31       1.0  0.2748698636684992  0.8453875380712572  0.15980304642267382  1.0000
  C   C32       1.0  0.7748598203491783  0.15461477053305822  0.8401973399278332  1.0000
  C   C33       1.0  0.09611033185944962  0.8237836994800387  0.1778975241739644  1.0000
  C   C34       1.0  0.5961071317259723  0.17621975502378717  0.822104097232682  1.0000
  C   C35       1.0  0.910613805445827  0.8397728290103784  0.15889770818637322  1.0000
  C   C36       1.0  0.4106071227371332  0.1602301680651123  0.8411034113826972  1.0000
  C   C37       1.0  0.9046494420058052  0.8763635050024943  0.12219744455890691  1.0000
  C   C38       1.0  0.4046513638016904  0.12363898876079558  0.8778032864769474  1.0000
  C   C39       1.0  0.08307369180747061  0.897352589643759  0.10383550064423731  1.0000
  C   C40       1.0  0.5830562294463277  0.10264656670937454  0.8961641718138722  1.0000
  C   C41       1.0  0.11728963988605301  0.7155596029802496  0.2838768692266953  1.0000
  C   C42       1.0  0.6172861607627312  0.2844423105458772  0.7161259160009977  1.0000
  C   C43       1.0  0.10373134931744939  0.7845125161537823  0.21624376502221312  1.0000
  C   C44       1.0  0.6037299583760927  0.21548996550674088  0.7837574629545045  1.0000
  C   C45       1.0  0.31008132185888126  0.6607580319311026  0.3416379850422048  1.0000
  C   C46       1.0  0.810086675606975  0.3392426996216144  0.658363560157639  1.0000
  C   C47       1.0  0.3159467389686839  0.6241176960074312  0.37829527935886637  1.0000
  C   C48       1.0  0.8159344915774795  0.3758826698552794  0.6217066542364195  1.0000
  C   C49       1.0  0.13748104397548394  0.6029151319445204  0.3964449036607577  1.0000
  C   C50       1.0  0.6374906436370085  0.39708984144039033  0.6035602182770461  1.0000
  C   C51       1.0  0.952623183060382  0.6184171252291647  0.37717864176314464  1.0000
  C   C52       1.0  0.4526187913529398  0.3815880063925831  0.6228248066175794  1.0000
  C   C53       1.0  0.9458792385125605  0.6548871101049867  0.34044867304350396  1.0000
  C   C54       1.0  0.44588344772679994  0.3451174215407419  0.6595559492189976  1.0000
  C   C55       1.0  0.124717256642576  0.6765721294414175  0.3224571002993457  1.0000
  C   C56       1.0  0.6247095982184876  0.32343219015115915  0.6775468544044969  1.0000
  C   C57       1.0  0.5767972656341057  0.07704069973085838  0.07751795460760039  1.0000
  C   C58       1.0  0.07678736773780771  0.9229571141953341  0.9224774238626452  1.0000
  C   C59       1.0  0.5780359918940263  0.06464626047422672  0.9366285665698512  1.0000
  C   C60       1.0  0.07799833083387141  0.9353508196703542  0.0633714977962683  1.0000
  C   C61       1.0  0.7609622876314364  0.7528835650448823  0.655801431935714  1.0000
  C   C62       1.0  0.636251161286964  0.775732389160346  0.6152477110190304  1.0000
  C   C63       1.0  0.26096027403060873  0.24711782602300036  0.34419856860723996  1.0000
  C   C64       1.0  0.1362483490707049  0.22426863572792394  0.38475116192874037  1.0000
  N   N1        1.0  0.928044631108719  0.7637286865880453  0.23172239515744053  1.0000
  N   N2        1.0  0.42804314228599344  0.23627416702772303  0.7682802803772121  1.0000
  N   N3        1.0  0.9349684574448247  0.7286938144493431  0.2660879339932763  1.0000
  N   N4        1.0  0.4349644084096127  0.27130954000565305  0.7339151297337736  1.0000
  N   N5        1.0  0.2931017670984915  0.7359629710505398  0.26808594473408226  1.0000
  N   N6        1.0  0.7930989039025393  0.2640368508796626  0.7319152157489127  1.0000
  N   N7        1.0  0.2861614495854425  0.7709977885687563  0.2337161099536971  1.0000
  N   N8        1.0  0.7861611465905867  0.22900231784080916  0.7662842719606148  1.0000
  O   O1        1.0  0.47403839803820363  0.4412433587161856  0.440575416480158  1.0000
  O   O2        1.0  0.9740236664821892  0.5587537558498282  0.5594233362454448  1.0000
  O   O3        1.0  0.814281263384416  0.4493005207082417  0.5479265680420012  1.0000
  O   O4        1.0  0.3142612534347577  0.5507023039391328  0.45207263285909255  1.0000
  O   O5        1.0  0.8149620107707278  0.44012442140474645  0.44154835660316394  1.0000
  O   O6        1.0  0.31494777462754797  0.5598712353333823  0.5584559196339782  1.0000
  O   O7        1.0  0.9737254328780267  0.549898306853187  0.45308307166064304  1.0000
  O   O8        1.0  0.47374744688955434  0.45009775654310846  0.546916852577276  1.0000
  O   O9        1.0  0.6447041899486549  0.5358933748581406  0.5039465515161865  1.0000
  O   O10       1.0  0.1447002758166889  0.46410380059840134  0.4960527082102075  1.0000
  O   O11       1.0  0.7469673350069429  0.049729868330004506  0.9528497340703836  1.0000
  O   O12       1.0  0.24699218785210772  0.9502615514630505  0.04714011538409579  1.0000
  O   O13       1.0  0.4059939034376825  0.05978319432283288  0.058715113754317406  1.0000
  O   O14       1.0  0.9060309450750881  0.9402093140339925  0.9412836620981581  1.0000
  O   O15       1.0  0.4064140219989413  0.05100010902309286  0.952309542205917  1.0000
  O   O16       1.0  0.9064338860139927  0.9490018175323339  0.0476966556445717  1.0000
  O   O17       1.0  0.24688458702402732  0.9415964827785285  0.9408427470985926  1.0000
  O   O18       1.0  0.7468500559546031  0.05840828294044799  0.05915257262877561  1.0000
  O   O19       1.0  0.5758022850359339  0.9640133436892597  0.9958941452016888  1.0000
  O   O20       1.0  0.0758034071498273  0.03598305553533979  0.0041047481917431  1.0000
  O   O21       1.0  0.9639294166324747  0.77141766620322  0.6510854424677675  1.0000
  O   O22       1.0  0.46392795795146924  0.2285822501070028  0.3489140954714429  1.0000
