data_image0
_chemical_formula_structural       Zn2H12C34N6O8
_chemical_formula_sum              "Zn2 H12 C34 N6 O8"
_cell_length_a       9.6591970982575
_cell_length_b       10.971714605965886
_cell_length_c       15.348786382276986
_cell_angle_alpha    90.83769315998545
_cell_angle_beta     87.86654725157332
_cell_angle_gamma    89.8760325224316

_space_group_name_H-M_alt    "P 1"
_space_group_IT_number       1

loop_
  _space_group_symop_operation_xyz
  'x, y, z'

loop_
  _atom_site_type_symbol
  _atom_site_label
  _atom_site_symmetry_multiplicity
  _atom_site_fract_x
  _atom_site_fract_y
  _atom_site_fract_z
  _atom_site_occupancy
  Zn  Zn1       1.0  0.3551850793344328  0.499603795902786  0.5044850912189673  1.0000
  Zn  Zn2       1.0  0.6448130193199686  0.5004069072202952  0.4955173482969143  1.0000
  H   H1        1.0  0.3436585807578182  0.3644137746049765  0.7801183758981691  1.0000
  H   H2        1.0  0.656337503494228  0.6355896247540542  0.21988274245473596  1.0000
  H   H3        1.0  0.26722979466511987  0.2661670420162778  0.08201630380320778  1.0000
  H   H4        1.0  0.7327745594501208  0.733823603607796  0.9179859620409372  1.0000
  H   H5        1.0  0.7223048583489415  0.1129010158548098  0.4842488790702787  1.0000
  H   H6        1.0  0.27768433807860043  0.8871113857966506  0.5157406303447871  1.0000
  H   H7        1.0  0.7215558852302307  0.8841902077898357  0.48689817450723166  1.0000
  H   H8        1.0  0.2784321695218424  0.115822227284248  0.513094605517473  1.0000
  H   H9        1.0  0.8600149568104029  0.6418579600294548  0.5908422297710911  1.0000
  H   H10       1.0  0.1399831180073576  0.35814364106389013  0.4091614645627572  1.0000
  H   H11       1.0  0.8757357532745329  0.35875442952864484  0.4072321216086649  1.0000
  H   H12       1.0  0.12426239884680257  0.6412507914388286  0.5927689846246691  1.0000
  C   C1        1.0  0.5004560729578245  0.2634695509295781  0.49718930879117795  1.0000
  C   C2        1.0  0.4995380694467356  0.7365429191586443  0.502807317025592  1.0000
  C   C3        1.0  0.3308680693514034  0.33187385441465966  0.04614968098869099  1.0000
  C   C4        1.0  0.6691383407147952  0.6681140618029886  0.9538532001448699  1.0000
  C   C5        1.0  0.6255946561371883  0.0625099871765968  0.4910561928683349  1.0000
  C   C6        1.0  0.37438938809115285  0.9374996769338679  0.5089327047245644  1.0000
  C   C7        1.0  0.625254660814633  0.9359030322115133  0.4926497496073451  1.0000
  C   C8        1.0  0.3747415891559172  0.0641021378262607  0.5073461631203171  1.0000
  C   C9        1.0  0.4996187923026054  0.8726942225829432  0.5016227423224108  1.0000
  C   C10       1.0  0.500375387946775  0.12731003735797944  0.49837318742886066  1.0000
  C   C11       1.0  0.9233233143081491  0.5792361175009475  0.5502804049603609  1.0000
  C   C12       1.0  0.0766727929735822  0.4207663638034447  0.449720056559343  1.0000
  C   C13       1.0  0.9326376579023972  0.4214541702753394  0.44829882810863336  1.0000
  C   C14       1.0  0.0673594584323993  0.5785510513995007  0.5517022890885243  1.0000
  C   C15       1.0  0.5050812171463335  0.4987133299110055  0.32842064682163397  1.0000
  C   C16       1.0  0.4949345674206639  0.5012800293807301  0.6715802092742533  1.0000
  C   C17       1.0  0.5877782048734018  0.5820158862537709  0.8139931454731764  1.0000
  C   C18       1.0  0.41223343388860917  0.41796836729463377  0.18600835736680205  1.0000
  C   C19       1.0  0.4983753439639854  0.5032956402692008  0.7695331885029615  1.0000
  C   C20       1.0  0.5016341835282461  0.4966977363528073  0.23046903723418669  1.0000
  C   C21       1.0  0.4122234467549148  0.42398518547749114  0.8161052501744803  1.0000
  C   C22       1.0  0.5877810426415806  0.5760117949262948  0.18389248649377515  1.0000
  C   C23       1.0  0.41409707317385624  0.4185747327878175  0.9071963934426603  1.0000
  C   C24       1.0  0.5859032362766143  0.5814195289967757  0.09280267622710167  1.0000
  C   C25       1.0  0.49990700523007087  0.5006291137736483  0.9536340097092262  1.0000
  C   C26       1.0  0.5000942571476797  0.4993642619642102  0.046367651809333686  1.0000
  C   C27       1.0  0.5864932717715375  0.5844242558319053  0.9066617080495261  1.0000
  C   C28       1.0  0.41351640952086643  0.4155663404539851  0.09333593947135907  1.0000
  C   C29       1.0  0.3309578627136318  0.33251464558553323  0.956463488951371  1.0000
  C   C30       1.0  0.6690455043332973  0.6674832732094131  0.043536871301398584  1.0000
  C   C31       1.0  0.6803797128624183  0.6607829571680882  0.7672313224128471  1.0000
  C   C32       1.0  0.319635991742146  0.3391976736767432  0.23277272467235113  1.0000
  C   C33       1.0  0.2489617549635454  0.24661913127432916  0.910585975594749  1.0000
  C   C34       1.0  0.7510250746848256  0.7533614801183292  0.08941446690247548  1.0000
  N   N1        1.0  0.1423030634696687  0.4995796410267205  0.5016427871048988  1.0000
  N   N2        1.0  0.8576940510132401  0.5004264921597041  0.4983583349962969  1.0000
  N   N3        1.0  0.7594563194718731  0.7264107201790041  0.7326424115065462  1.0000
  N   N4        1.0  0.24056157080922697  0.2735762505738677  0.2673577364042784  1.0000
  N   N5        1.0  0.18341156988485346  0.17686209219275634  0.8714015483745994  1.0000
  N   N6        1.0  0.8165893517964377  0.8231322997455238  0.12861054891462934  1.0000
  O   O1        1.0  0.38299241131122125  0.31686938998704045  0.5024400709114045  1.0000
  O   O2        1.0  0.6169910399391156  0.6831404573288893  0.4975670806980971  1.0000
  O   O3        1.0  0.382330446536983  0.6830631901351294  0.508549427108349  1.0000
  O   O4        1.0  0.6176586707350891  0.3169465031537869  0.49144267531126923  1.0000
  O   O5        1.0  0.38843367376082216  0.49849181199033415  0.3691032454731768  1.0000
  O   O6        1.0  0.6115685746403229  0.5015052221725966  0.6308997285560379  1.0000
  O   O7        1.0  0.37565461593592187  0.4981301022240174  0.639789714627781  1.0000
  O   O8        1.0  0.6243477280497557  0.501882388377517  0.3602094311950664  1.0000
