data_image0
_chemical_formula_structural       Zn6H60C76O50
_chemical_formula_sum              "Zn6 H60 C76 O50"
_cell_length_a       18.37172794681727
_cell_length_b       18.492478209593
_cell_length_c       18.949968295033177
_cell_angle_alpha    109.76679328120633
_cell_angle_beta     109.87144634338854
_cell_angle_gamma    108.49222070645095

_space_group_name_H-M_alt    "P 1"
_space_group_IT_number       1

loop_
  _space_group_symop_operation_xyz
  'x, y, z'

loop_
  _atom_site_type_symbol
  _atom_site_label
  _atom_site_symmetry_multiplicity
  _atom_site_fract_x
  _atom_site_fract_y
  _atom_site_fract_z
  _atom_site_occupancy
  Zn  Zn1       1.0  0.5051151960052067  0.4389190086758745  0.44343406336572144  1.0000
  Zn  Zn2       1.0  0.502381558159165  0.5649387749989856  0.5672643525989686  1.0000
  Zn  Zn3       1.0  0.9387411881679455  0.4308488698033487  0.9963809019768278  1.0000
  Zn  Zn4       1.0  0.06622109664193936  0.5622145065190906  0.004497400744547455  1.0000
  Zn  Zn5       1.0  0.067336828113767  0.9976787137831734  0.5585570563176817  1.0000
  Zn  Zn6       1.0  0.9332074072991217  0.9944327437843015  0.4378038602896551  1.0000
  H   H1        1.0  0.0645130721885891  0.45692344831074655  0.2211247266056304  1.0000
  H   H2        1.0  0.5449724974260091  0.5327967306161836  0.28450139031991734  1.0000
  H   H3        1.0  0.6402352288400549  0.5424658286621166  0.3655548770581234  1.0000
  H   H4        1.0  0.6542555437362906  0.6011552186793878  0.30805965653112827  1.0000
  H   H5        1.0  0.4921638146909189  0.4427098525250486  0.6799985533574501  1.0000
  H   H6        1.0  0.5168891288769047  0.3836248704491325  0.7345576587448905  1.0000
  H   H7        1.0  0.5335359647133231  0.3704871009440468  0.6441220647447354  1.0000
  H   H8        1.0  0.7571110361490057  0.497583411948412  0.9761258846271732  1.0000
  H   H9        1.0  0.6882555851308894  0.4186119895431801  0.8628970424559699  1.0000
  H   H10       1.0  0.6668353991367866  0.5063961009348716  0.9093278714022193  1.0000
  H   H11       1.0  0.953596415265075  0.5562833496699183  0.7064688347835784  1.0000
  H   H12       1.0  0.725588006044795  0.491240835493862  0.5398389886572162  1.0000
  H   H13       1.0  0.19154027077117058  0.4814482020502523  0.4963371429224638  1.0000
  H   H14       1.0  0.14776423106558675  0.37229248384195307  0.41177355844292424  1.0000
  H   H15       1.0  0.2630037012303815  0.4519314796962348  0.4640063231094517  1.0000
  H   H16       1.0  0.9870790816060548  0.2426333205497073  0.48404014481040764  1.0000
  H   H17       1.0  0.023818516018131685  0.2194164820654905  0.4067512993767721  1.0000
  H   H18       1.0  0.0650692102662589  0.3319501964359048  0.4853875578327874  1.0000
  H   H19       1.0  0.3491886917888465  0.06147141631358009  0.5403625652724743  1.0000
  H   H20       1.0  0.3305296338437458  0.1330011988558795  0.6150556103620987  1.0000
  H   H21       1.0  0.4124054548201315  0.1785663570819054  0.5874448607349622  1.0000
  H   H22       1.0  0.449215115499527  0.21344862104610476  0.4248974004091224  1.0000
  H   H23       1.0  0.3546211336446916  0.22325938454036282  0.3702082105391541  1.0000
  H   H24       1.0  0.3402645916068039  0.13424770087582516  0.3932647670350136  1.0000
  H   H25       1.0  0.06538961478194942  0.8306329407935562  0.12645709675868488  1.0000
  H   H26       1.0  0.9613240615374608  0.8262872467217904  0.07116517298177169  1.0000
  H   H27       1.0  0.9950830293936335  0.7579845480952088  0.011964107739835651  1.0000
  H   H28       1.0  0.3055201314503861  0.6009961284460773  0.44667134106399703  1.0000
  H   H29       1.0  0.09823756512032127  0.9487787631646185  0.24468889735991445  1.0000
  H   H30       1.0  0.08453322106522883  0.9545813596504688  0.33520336550967045  1.0000
  H   H31       1.0  0.0380447673845836  0.0009056307987620004  0.2757287219718237  1.0000
  H   H32       1.0  0.9371841230342142  0.7689460674336246  0.41525888293368485  1.0000
  H   H33       1.0  0.9110227114448789  0.4697236711831465  0.25775380460596153  1.0000
  H   H34       1.0  0.843562272348656  0.4694623904766218  0.1627342526213624  1.0000
  H   H35       1.0  0.8527318589677291  0.5301888547588262  0.2661703322767934  1.0000
  H   H36       1.0  0.15251340339565195  0.45955090858683434  0.8579735260709287  1.0000
  H   H37       1.0  0.23150413623598357  0.42036350643358844  0.8640486746495954  1.0000
  H   H38       1.0  0.23593605607979384  0.48805350146194837  0.9611147876430481  1.0000
  H   H39       1.0  0.228894667383301  0.33593033630392455  0.7493212744608401  1.0000
  H   H40       1.0  0.13036782205573158  0.24935599358703084  0.650444033639431  1.0000
  H   H41       1.0  0.21259286071518346  0.22579649468095644  0.704884071625962  1.0000
  H   H42       1.0  0.833466485974391  0.1731631430120544  0.5009295379167469  1.0000
  H   H43       1.0  0.7848627069862743  0.21217867707991192  0.5632853599257147  1.0000
  H   H44       1.0  0.7233015391050088  0.1016836821893961  0.4728723298035292  1.0000
  H   H45       1.0  0.701479225430525  0.17350384173961694  0.7057480956187236  1.0000
  H   H46       1.0  0.7905212670559011  0.17228529062924744  0.7826723296887723  1.0000
  H   H47       1.0  0.7426832509120942  0.1015504756399253  0.6676769084804947  1.0000
  H   H48       1.0  0.4735167279463468  0.6985395766559465  0.2992992123139261  1.0000
  H   H49       1.0  0.44140875187101597  0.7470017505300034  0.3750945769549218  1.0000
  H   H50       1.0  0.44463962766183573  0.7822324674378576  0.29801140089095673  1.0000
  H   H51       1.0  0.38866801546042495  0.5871100690469361  0.13988735497583352  1.0000
  H   H52       1.0  0.34965272854278595  0.4713710057244214  0.07694618940616488  1.0000
  H   H53       1.0  0.4664852395526112  0.5482461317661848  0.13892504590018728  1.0000
  H   H54       1.0  0.23744662877339806  0.33596149448720775  0.05045549755788411  1.0000
  H   H55       1.0  0.19541013038292482  0.338822785970514  0.2850874989886805  1.0000
  H   H56       1.0  0.8654344416127273  0.8250732326315172  0.7668737591016921  1.0000
  H   H57       1.0  0.0633189342941449  0.9142274739595281  0.7839870608612645  1.0000
  H   H58       1.0  0.02569602368204471  0.8410571846320777  0.6728179642113263  1.0000
  H   H59       1.0  0.9795615407498202  0.8013330243390229  0.7309499489070034  1.0000
  H   H60       1.0  0.7950553073576928  0.7598837903670131  0.36346817227963174  1.0000
  C   C1        1.0  0.6362381489385315  0.6400906761129337  0.5453378704280072  1.0000
  C   C2        1.0  0.24145801081897392  0.4396557918101749  0.15785879247471976  1.0000
  C   C3        1.0  0.23755445254539612  0.42501055422508943  0.23370709859531058  1.0000
  C   C4        1.0  0.33702918105827007  0.5019410821094112  0.30029007432182203  1.0000
  C   C5        1.0  0.7943315469435177  0.7664254572630895  0.6249330288579814  1.0000
  C   C6        1.0  0.8633800486388665  0.8256506912976177  0.6229319413224417  1.0000
  C   C7        1.0  0.8492628497394321  0.8248507592918488  0.5448449943393644  1.0000
  C   C8        1.0  0.7651695661448626  0.7672135463773839  0.46941021176125736  1.0000
  C   C9        1.0  0.6970146356870686  0.7070345048543628  0.47121745100998413  1.0000
  C   C10       1.0  0.7117093464266092  0.7070278381265143  0.5488138295280011  1.0000
  C   C11       1.0  0.6927708267419775  0.4942687020537306  0.7468574537502166  1.0000
  C   C12       1.0  0.4026321605392694  0.49586284022361576  0.367622923560404  1.0000
  C   C13       1.0  0.7718153364263857  0.5187340525054297  0.819066809849659  1.0000
  C   C14       1.0  0.845347010372116  0.5206963407092999  0.810544221778386  1.0000
  C   C15       1.0  0.8440174001518487  0.505529932003526  0.7323611943795428  1.0000
  C   C16       1.0  0.7674111561485545  0.4868025963849831  0.6617282750816998  1.0000
  C   C17       1.0  0.6911305355887407  0.47980011684943236  0.6682771527890736  1.0000
  C   C18       1.0  0.23969485106946548  0.33304476778368297  0.5236793438396036  1.0000
  C   C19       1.0  0.1806790785783789  0.2603071858815582  0.5213542667293469  1.0000
  C   C20       1.0  0.1965927477235851  0.18910035678644732  0.5133506127719302  1.0000
  C   C21       1.0  0.2692210170996603  0.18835545018525582  0.5049557114212605  1.0000
  C   C22       1.0  0.32649121750313986  0.25906843483200964  0.5041036539910664  1.0000
  C   C23       1.0  0.3763932322086277  0.405901607501754  0.5143942231162983  1.0000
  C   C24       1.0  0.31227419581426835  0.33183986375157554  0.5140458467214515  1.0000
  C   C25       1.0  0.9660153995603906  0.5832073971583897  0.10823612772717447  1.0000
  C   C26       1.0  0.1394400814560015  0.5133594144263469  0.11661363073445588  1.0000
  C   C27       1.0  0.9785779497152944  0.359794946956562  0.8801406682913396  1.0000
  C   C28       1.0  0.917866715134565  0.5284211492040499  0.8850630690785196  1.0000
  C   C29       1.0  0.9670884327109449  0.8674797566678835  0.36125490897178736  1.0000
  C   C30       1.0  0.9179658982601778  0.8880823939333168  0.5386809034439537  1.0000
  C   C31       1.0  0.9793014659079662  0.11561015324033971  0.5926084353233634  1.0000
  C   C32       1.0  0.13309826377616932  0.11223885162650761  0.510487566234886  1.0000
  C   C33       1.0  0.9596069543314415  0.723318475143948  0.1581167782721806  1.0000
  C   C34       1.0  0.6133243870649778  0.46820870762113037  0.5964313522600763  1.0000
  C   C35       1.0  0.9646639870138712  0.7950699464633074  0.22235134485331523  1.0000
  C   C36       1.0  0.9602194008712388  0.7898876298886532  0.29296707209070416  1.0000
  C   C37       1.0  0.9541741569976382  0.7162930344074637  0.30393411020821753  1.0000
  C   C38       1.0  0.9555983692342948  0.6478157908739348  0.24216828015659073  1.0000
  C   C39       1.0  0.9570560541641627  0.651222203263522  0.16995442118701481  1.0000
  C   C40       1.0  0.0584723053973732  0.3014394924592239  0.8145444565652298  1.0000
  C   C41       1.0  0.060246745220489076  0.24315419943312833  0.7454414625852978  1.0000
  C   C42       1.0  0.9805572903254216  0.18253985051998708  0.6646039901233038  1.0000
  C   C43       1.0  0.9002193699155399  0.18056144001857893  0.6557858126016711  1.0000
  C   C44       1.0  0.8985888401088219  0.23590323854502768  0.7268120600914258  1.0000
  C   C45       1.0  0.3041163409800163  0.5707744767822831  0.3235084812192568  1.0000
  C   C46       1.0  0.9777000260386047  0.296042434399503  0.8059658596598781  1.0000
  C   C47       1.0  0.20438107938738168  0.4945652331189904  0.2572236845235736  1.0000
  C   C48       1.0  0.20992407356623494  0.5104324674706646  0.18259985382676547  1.0000
  C   C49       1.0  0.308585809529589  0.5859097411638743  0.2466127299359755  1.0000
  C   C50       1.0  0.3417115264526275  0.5148653623075532  0.2240038155172073  1.0000
  C   C51       1.0  0.12936381565562977  0.4769212251306456  0.2748974262301687  1.0000
  C   C52       1.0  0.6143979233601939  0.5769194437354483  0.33547477393278774  1.0000
  C   C53       1.0  0.536792361685059  0.4172967881235579  0.7008789554307813  1.0000
  C   C54       1.0  0.7184610971668591  0.48795369662853727  0.911881106813745  1.0000
  C   C55       1.0  0.9236975862993688  0.5084364989146763  0.7248760742767717  1.0000
  C   C56       1.0  0.7719870901567704  0.47904032272009545  0.5833715340097287  1.0000
  C   C57       1.0  0.20620888957262204  0.42798728598927493  0.4735354190203581  1.0000
  C   C58       1.0  0.043361370360422306  0.2643901590381361  0.4735208361431092  1.0000
  C   C59       1.0  0.3476424888634853  0.1235533288438404  0.5635603899942937  1.0000
  C   C60       1.0  0.384066835660029  0.2035163069501564  0.41633200637278384  1.0000
  C   C61       1.0  0.996191803692561  0.7880806138516546  0.07331241577764987  1.0000
  C   C62       1.0  0.3321998108522379  0.6332444996356656  0.41431083174786226  1.0000
  C   C63       1.0  0.052636749352977616  0.946924180638888  0.27055215566022645  1.0000
  C   C64       1.0  0.9452193928653829  0.7139507725829689  0.37780438019974855  1.0000
  C   C65       1.0  0.8871899437307035  0.5084641990963519  0.23352214837809965  1.0000
  C   C66       1.0  0.1918846853762304  0.43629306133074414  0.8928412680070609  1.0000
  C   C67       1.0  0.1796286546060983  0.26543143466637537  0.7137983741346973  1.0000
  C   C68       1.0  0.7893464310926886  0.15487903076677156  0.526544475168251  1.0000
  C   C69       1.0  0.7606662893316668  0.16594975626270528  0.7182792119738935  1.0000
  C   C70       1.0  0.4306550893374492  0.7262619312072901  0.3091615847320029  1.0000
  C   C71       1.0  0.40302314316299  0.5331345622303019  0.13713052574713203  1.0000
  C   C72       1.0  0.1952978214378902  0.36007889768055884  0.07026514328224918  1.0000
  C   C73       1.0  0.20758294864990032  0.33923386892902135  0.23126298774559478  1.0000
  C   C74       1.0  0.8119106363439245  0.7630274795968575  0.7058437961724666  1.0000
  C   C75       1.0  0.006173516583046959  0.8581737453396129  0.7222801927446485  1.0000
  C   C76       1.0  0.7477964502851153  0.7676098606135258  0.3859168452778336  1.0000
  O   O1        1.0  0.6115931364699988  0.5605715312562437  0.4954336407772787  1.0000
  O   O2        1.0  0.03051301421714205  0.6111726647169533  0.09616405194423551  1.0000
  O   O3        1.0  0.05994053682142921  0.46543261757418725  0.09471530060829994  1.0000
  O   O4        1.0  0.16598786580741642  0.5643283338619869  0.0882356929775697  1.0000
  O   O5        1.0  0.9247059714701891  0.3297955002562176  0.9051910643523727  1.0000
  O   O6        1.0  0.03309944155156325  0.4401301362115007  0.913650444191525  1.0000
  O   O7        1.0  0.8921484157356261  0.47225616908610135  0.9072332142289669  1.0000
  O   O8        1.0  0.9986632202186739  0.5888727343161548  0.9214205008516246  1.0000
  O   O9        1.0  0.03160830707126657  0.9040051953782183  0.43748547356155865  1.0000
  O   O10       1.0  0.9091349973656193  0.8917533350945633  0.3381792836052425  1.0000
  O   O11       1.0  0.00036064454667435024  0.9127605566490401  0.5838136167480387  1.0000
  O   O12       1.0  0.6003325526508477  0.6670171773397301  0.5882051363809782  1.0000
  O   O13       1.0  0.887463384360842  0.9115301541313414  0.48452843165998877  1.0000
  O   O14       1.0  0.031170192400217886  0.08524187729909019  0.6138352192832104  1.0000
  O   O15       1.0  0.92611504136962  0.0905134536917913  0.5133261744358109  1.0000
  O   O16       1.0  0.1648583092113824  0.0893635149687739  0.5657754272992436  1.0000
  O   O17       1.0  0.0522948005966555  0.0755995049660783  0.45373721646483034  1.0000
  O   O18       1.0  0.4301969905138847  0.4418059708477244  0.3422092295071694  1.0000
  O   O19       1.0  0.423905611875682  0.5439358329565421  0.4452157149140987  1.0000
  O   O20       1.0  0.3971832793563621  0.3849209522665192  0.45601075231779487  1.0000
  O   O21       1.0  0.4070612400645716  0.4855308700256488  0.5730040107515394  1.0000
  O   O22       1.0  0.585092891955675  0.41231464474150675  0.517230282463288  1.0000
  O   O23       1.0  0.5809566364107468  0.5171329096179633  0.618563710222965  1.0000
  O   O24       1.0  0.9086870097205875  0.5014929020733235  0.0724165265797653  1.0000
  O   O25       1.0  0.13775554540675472  0.48203194042987724  0.3437438338183868  1.0000
  O   O26       1.0  0.615199928971748  0.6483459074148143  0.3986424053782542  1.0000
  O   O27       1.0  0.6250066575652228  0.4901672514864757  0.762216025908984  1.0000
  O   O28       1.0  0.7816728048724144  0.5442450770048736  0.8991910967887407  1.0000
  O   O29       1.0  0.9573889705946926  0.4653587364968956  0.7433982742975475  1.0000
  O   O30       1.0  0.8266341349110888  0.4630931050197091  0.5675638158548965  1.0000
  O   O31       1.0  0.224893383214237  0.4033167329856155  0.5393076921101354  1.0000
  O   O32       1.0  0.11171308142014172  0.259472030798058  0.5343545994020433  1.0000
  O   O33       1.0  0.2792456968513406  0.1148221977578459  0.4897961119766309  1.0000
  O   O34       1.0  0.4004125673929835  0.2599884643914124  0.5007665446805519  1.0000
  O   O35       1.0  0.9524598737429314  0.714701806277681  0.08222348684615353  1.0000
  O   O36       1.0  0.3777028964616491  0.7132171143087833  0.4508351577819029  1.0000
  O   O37       1.0  0.9693102595978899  0.8660927669743687  0.21178770835569352  1.0000
  O   O38       1.0  0.9444009174106895  0.6584732770464611  0.3996950346546412  1.0000
  O   O39       1.0  0.9655091413541328  0.5824612939179659  0.2553234796324091  1.0000
  O   O40       1.0  0.13537190967299043  0.3613981489113557  0.8923135236694437  1.0000
  O   O41       1.0  0.1406543145296055  0.24764475149137158  0.7641561310248336  1.0000
  O   O42       1.0  0.8210896542711411  0.11978970056918571  0.5802042153383269  1.0000
  O   O43       1.0  0.8209911066273817  0.23652799591370413  0.7163137432610187  1.0000
  O   O44       1.0  0.33779481333692735  0.663231663480623  0.24629290875550675  1.0000
  O   O45       1.0  0.41269701312538837  0.523681935415823  0.21183050913445103  1.0000
  O   O46       1.0  0.11491868878478326  0.32228246787639137  0.024047020985960895  1.0000
  O   O47       1.0  0.20006589047262222  0.27407935245557985  0.17682596291832203  1.0000
  O   O48       1.0  0.7719187448498064  0.6962784101558416  0.7064711596580795  1.0000
  O   O49       1.0  0.9417702978578503  0.8868206290959435  0.6986724778723712  1.0000
  O   O50       1.0  0.6837418436841675  0.7708225365890798  0.34227883931507114  1.0000
