data_image0
_chemical_formula_structural       Cu4H48C56Br4N24
_chemical_formula_sum              "Cu4 H48 C56 Br4 N24"
_cell_length_a       10.0712518970285
_cell_length_b       10.222724831715125
_cell_length_c       16.577357834128644
_cell_angle_alpha    96.55387058153417
_cell_angle_beta     89.99973580123864
_cell_angle_gamma    119.51131402479095

_space_group_name_H-M_alt    "P 1"
_space_group_IT_number       1

loop_
  _space_group_symop_operation_xyz
  'x, y, z'

loop_
  _atom_site_type_symbol
  _atom_site_label
  _atom_site_symmetry_multiplicity
  _atom_site_fract_x
  _atom_site_fract_y
  _atom_site_fract_z
  _atom_site_occupancy
  Cu  Cu1       1.0  0.9877355625421134  0.8518806364047721  0.9753497360754154  1.0000
  Cu  Cu2       1.0  0.13585294319547364  0.14811748743904476  0.5246491903220161  1.0000
  Cu  Cu3       1.0  0.012265358538648708  0.14812328789281543  0.0246500148850615  1.0000
  Cu  Cu4       1.0  0.8641454283478256  0.8518773661384603  0.4753499130303069  1.0000
  H   H1        1.0  0.6026031720012597  0.8602550070775339  0.07977539115277212  1.0000
  H   H2        1.0  0.7423484682247549  0.1397482202106559  0.4202252698125477  1.0000
  H   H3        1.0  0.3974008622955765  0.13975117196492456  0.9202281401839301  1.0000
  H   H4        1.0  0.25764905887710665  0.860248916138808  0.5797697738866887  1.0000
  H   H5        1.0  0.6693679777667044  0.08108580200513422  0.1828143687057135  1.0000
  H   H6        1.0  0.5882819595126493  0.9189139617106651  0.3171873738841954  1.0000
  H   H7        1.0  0.330632509749549  0.9189192410390494  0.8171896847639387  1.0000
  H   H8        1.0  0.4117118777263329  0.08107976664855703  0.6828092362044558  1.0000
  H   H9        1.0  0.49094039200417683  0.18096584229220275  0.2101889496663887  1.0000
  H   H10       1.0  0.30997372361487413  0.8190336214979156  0.2898128088567304  1.0000
  H   H11       1.0  0.5090554224468917  0.8190358121662771  0.7898112424776969  1.0000
  H   H12       1.0  0.6900193971399419  0.18096463143938027  0.7101871404366521  1.0000
  H   H13       1.0  0.23923480749691353  0.06492078118167655  0.1295197632662095  1.0000
  H   H14       1.0  0.17431338001687652  0.9350807005553748  0.370480872917021  1.0000
  H   H15       1.0  0.7607618567973945  0.9350786012854972  0.8704814731330046  1.0000
  H   H16       1.0  0.825684420285292  0.06492095390441932  0.6295193192243786  1.0000
  H   H17       1.0  0.1120766944413703  0.16835951260329554  0.22452953335981357  1.0000
  H   H18       1.0  0.9437123342116821  0.831637856391936  0.2754705116699512  1.0000
  H   H19       1.0  0.8879209670999231  0.8316398784890711  0.7754692907196841  1.0000
  H   H20       1.0  0.056281498705857316  0.16835586334276093  0.7245285107370734  1.0000
  H   H21       1.0  0.2955789452886465  0.2656123125503812  0.34508331193523395  1.0000
  H   H22       1.0  0.029971498473336976  0.7343936485009266  0.1549171642373111  1.0000
  H   H23       1.0  0.7044136063818771  0.7343848022344732  0.6549177625666545  1.0000
  H   H24       1.0  0.9700291418446058  0.26560574259340813  0.8450816598381506  1.0000
  H   H25       1.0  0.5460343134957031  0.5031182958628763  0.3498750937843483  1.0000
  H   H26       1.0  0.04292608607017466  0.4968912430814286  0.15012466516417083  1.0000
  H   H27       1.0  0.45396121479074486  0.49687881461168365  0.6501271868726803  1.0000
  H   H28       1.0  0.9570745520870433  0.5031081437006364  0.8498753650704813  1.0000
  H   H29       1.0  0.6236746239193495  0.6516987592408159  0.2323881823438683  1.0000
  H   H30       1.0  0.9719839118948388  0.3483069101672599  0.26760988842362815  1.0000
  H   H31       1.0  0.3763247351476978  0.3482960835566758  0.7676139364050698  1.0000
  H   H32       1.0  0.02801672950346304  0.6516924830832097  0.732388332572242  1.0000
  H   H33       1.0  0.4743122530458665  0.6658005177503626  0.9581633942967116  1.0000
  H   H34       1.0  0.8085084567774957  0.3342011086156306  0.5418367653072877  1.0000
  H   H35       1.0  0.525691644650813  0.33420340223693057  0.04183756281891251  1.0000
  H   H36       1.0  0.19148792891470384  0.6657937449605529  0.4581623380477282  1.0000
  H   H37       1.0  0.33389818515090763  0.6151977107089623  0.8779449286244088  1.0000
  H   H38       1.0  0.7186964257608963  0.3848049015391979  0.6220544177966616  1.0000
  H   H39       1.0  0.6661062783889804  0.3848073409623752  0.12205671252149129  1.0000
  H   H40       1.0  0.28129797840165344  0.6151899606602032  0.37794227324268087  1.0000
  H   H41       1.0  0.2840096595582935  0.38022587010912906  0.9225371388286376  1.0000
  H   H42       1.0  0.9037856667269184  0.6197768337159532  0.5774614212756788  1.0000
  H   H43       1.0  0.7159943801403371  0.6197803197139962  0.07746337711010651  1.0000
  H   H44       1.0  0.09621483266942488  0.3802202896986844  0.4225372408970713  1.0000
  H   H45       1.0  0.13693006342254682  0.4158727706454783  0.9570634145271056  1.0000
  H   H46       1.0  0.7210600764469178  0.5841297128926755  0.5429361956408627  1.0000
  H   H47       1.0  0.863072843509315  0.5841311536534308  0.042936336430678124  1.0000
  H   H48       1.0  0.2789419817181837  0.41586854220665975  0.4570631505608205  1.0000
  C   C1        1.0  0.2812075460845024  0.8976429490638439  0.06029927629832339  1.0000
  C   C2        1.0  0.383563430139624  0.1023621046618359  0.43970005609852336  1.0000
  C   C3        1.0  0.718793933276949  0.10236209182486534  0.9397053802495776  1.0000
  C   C4        1.0  0.6164332438779284  0.8976372972105366  0.5602957525843593  1.0000
  C   C5        1.0  0.3811429701511244  0.8386425981113775  0.046867538163063216  1.0000
  C   C6        1.0  0.5425000124408969  0.16136149945899805  0.4531295531950406  1.0000
  C   C7        1.0  0.6188593666160784  0.16136018587895515  0.953133941082811  1.0000
  C   C8        1.0  0.4575003525198938  0.8386413125597447  0.5468640860188287  1.0000
  C   C9        1.0  0.5234464406726789  0.9031536605760738  0.09016878166082173  1.0000
  C   C10       1.0  0.6202904003782737  0.09685057393827631  0.4098304237230437  1.0000
  C   C11       1.0  0.47655404792394057  0.0968513846242374  0.909834668729239  1.0000
  C   C12       1.0  0.37970386502728104  0.9031499682406975  0.5901636566757773  1.0000
  C   C13       1.0  0.559516110409284  0.027214575312456208  0.1479247370897596  1.0000
  C   C14       1.0  0.5323020683523724  0.9727884823989331  0.352076870026238  1.0000
  C   C15       1.0  0.4404838112637679  0.972789336047676  0.8520786323496169  1.0000
  C   C16       1.0  0.4676951704280298  0.027212049001349208  0.6479202257665122  1.0000
  C   C17       1.0  0.45853516065919564  0.08535114736201883  0.1628227969972684  1.0000
  C   C18       1.0  0.3731826262317525  0.91465060663716  0.33717847860103234  1.0000
  C   C19       1.0  0.5414627751627563  0.9146527639968056  0.8371805724447938  1.0000
  C   C20       1.0  0.6268110657680738  0.08534878876483992  0.6628191393246681  1.0000
  C   C21       1.0  0.3187945070068992  0.0226413899081024  0.11911870685954541  1.0000
  C   C22       1.0  0.29615585969082053  0.9773624905583846  0.3808824213463566  1.0000
  C   C23       1.0  0.6812042797386513  0.9773602516155506  0.880885103758061  1.0000
  C   C24       1.0  0.7038443567858651  0.022638038687731003  0.6191152775219493  1.0000
  C   C25       1.0  0.410812541204159  0.4906075761019012  0.1614602917181429  1.0000
  C   C26       1.0  0.9202087828290288  0.5093945146014677  0.33853849793667473  1.0000
  C   C27       1.0  0.5891890877178838  0.5093918063685552  0.8385409446743425  1.0000
  C   C28       1.0  0.07979526442824898  0.49060374696757975  0.6614590390235335  1.0000
  C   C29       1.0  0.26737072821630653  0.35394251506873087  0.1589582649841361  1.0000
  C   C30       1.0  0.9134293298384222  0.6460583424395666  0.3410406473136972  1.0000
  C   C31       1.0  0.7326309039468202  0.6460568738701229  0.8410411621695673  1.0000
  C   C32       1.0  0.08657216140311161  0.35393877881959673  0.6589586179373013  1.0000
  C   C33       1.0  0.22230587719439404  0.27176918657536947  0.225882477499006  1.0000
  C   C34       1.0  0.9505372993613862  0.7282305275182425  0.2741175707905015  1.0000
  C   C35       1.0  0.7776912163429729  0.7282290685206905  0.7741168687093989  1.0000
  C   C36       1.0  0.049463200034956925  0.27176659589639485  0.7258810913822487  1.0000
  C   C37       1.0  0.3263480296609417  0.3278625882832814  0.2926940328379927  1.0000
  C   C38       1.0  0.9984904857468565  0.6721417616981639  0.20730613325844868  1.0000
  C   C39       1.0  0.6736490606353415  0.6721356603443811  0.707307122609194  1.0000
  C   C40       1.0  0.00150958440642767  0.3278564890875941  0.7926944191051035  1.0000
  C   C41       1.0  0.4702613052775676  0.46282146005912495  0.2950072851644236  1.0000
  C   C42       1.0  0.007448030369367671  0.5371846059412493  0.2049917786284112  1.0000
  C   C43       1.0  0.5297362110206977  0.537175654729012  0.7049937893307289  1.0000
  C   C44       1.0  0.9925541719584036  0.46281592330618104  0.7950059202372017  1.0000
  C   C45       1.0  0.5144195081508658  0.5470638344445222  0.23051041471094894  1.0000
  C   C46       1.0  0.9673633732000302  0.45294175533474174  0.2694890165510841  1.0000
  C   C47       1.0  0.48558197660850794  0.45293327387784654  0.7694924690175995  1.0000
  C   C48       1.0  0.03263967789062153  0.5470564997652546  0.730510329649249  1.0000
  C   C49       1.0  0.3519820293600306  0.6181128112335091  0.9435043337773193  1.0000
  C   C50       1.0  0.7338683529248088  0.381893226685314  0.5564946073470551  1.0000
  C   C51       1.0  0.6480234292661322  0.38189224475075184  0.0564961012080474  1.0000
  C   C52       1.0  0.26613228847349296  0.6181061665651485  0.4435036136488151  1.0000
  C   C53       1.0  0.2601293022659164  0.457245865539065  0.9637306144362867  1.0000
  C   C54       1.0  0.8028856362682575  0.5427578874408284  0.5362687988135875  1.0000
  C   C55       1.0  0.7398741715895059  0.5427591926000163  0.036269217472181495  1.0000
  C   C56       1.0  0.19711641973612606  0.4572403633462443  0.46373175354727897  1.0000
  Br  Br1       1.0  0.09926594910821512  0.06536909593041432  0.8939031406412782  1.0000
  Br  Br2       1.0  0.03389393148403038  0.9346317743703738  0.6060973709357  1.0000
  Br  Br3       1.0  0.9007332755232725  0.9346314354711822  0.10609395514877919  1.0000
  Br  Br4       1.0  0.9661028704907867  0.06536986930809972  0.3939058366050006  1.0000
  N   N1        1.0  0.3054824776412986  0.7197425821830311  0.9861942799535796  1.0000
  N   N2        1.0  0.5857400304703901  0.2802621953266354  0.5138042409183755  1.0000
  N   N3        1.0  0.6945192943630616  0.28025907227938524  0.013805912182434097  1.0000
  N   N4        1.0  0.4142623149396983  0.7197406059127546  0.486192413690766  1.0000
  N   N5        1.0  0.16940602448373449  0.7049637614788082  0.9633245902666303  1.0000
  N   N6        1.0  0.4644379846838478  0.29503631044335793  0.5366739556238899  1.0000
  N   N7        1.0  0.8305960293599244  0.2950344849960018  0.0366771682534193  1.0000
  N   N8        1.0  0.5355620865498025  0.7049619424985353  0.4633259936600709  1.0000
  N   N9        1.0  0.15382899114307952  0.8116753545301665  0.007150530412445701  1.0000
  N   N10       1.0  0.3421524422741058  0.1883273155674487  0.49285007500068906  1.0000
  N   N11       1.0  0.846173201461454  0.18832515531207153  0.9928525961695058  1.0000
  N   N12       1.0  0.6578484798831427  0.8116686675392731  0.5071503154588086  1.0000
  N   N13       1.0  0.19539523694297864  0.326814754287348  0.0839102559383491  1.0000
  N   N14       1.0  0.868581031936117  0.6731837582749309  0.4160886527875434  1.0000
  N   N15       1.0  0.8046019985963329  0.673185770644537  0.9160886490931758  1.0000
  N   N16       1.0  0.13141889945629973  0.3268122291433998  0.583910531514114  1.0000
  N   N17       1.0  0.29390501836183364  0.44520548448382163  0.047098492911899804  1.0000
  N   N18       1.0  0.8486990355567698  0.5547930736139152  0.4529021184887441  1.0000
  N   N19       1.0  0.7060963243994609  0.5547972973497155  0.9529035894149159  1.0000
  N   N20       1.0  0.15130103783759816  0.44520518364024764  0.5470966246360334  1.0000
  N   N21       1.0  0.4236404804001879  0.5454644696888169  0.089081057643142  1.0000
  N   N22       1.0  0.8781784751089888  0.4545387312278495  0.41091905870020184  1.0000
  N   N23       1.0  0.5763611463611368  0.4545349084693767  0.9109213849085334  1.0000
  N   N24       1.0  0.12182429306199795  0.5454629297036251  0.5890793241956871  1.0000
