data_image0
_chemical_formula_structural       Hf6H36C60O32
_chemical_formula_sum              "Hf6 H36 C60 O32"
_cell_length_a       17.33230965561405
_cell_length_b       17.34696427295206
_cell_length_c       18.40770318787503
_cell_angle_alpha    89.82451553560797
_cell_angle_beta     89.79151977108654
_cell_angle_gamma    109.67712253858025

_space_group_name_H-M_alt    "P 1"
_space_group_IT_number       1

loop_
  _space_group_symop_operation_xyz
  'x, y, z'

loop_
  _atom_site_type_symbol
  _atom_site_label
  _atom_site_symmetry_multiplicity
  _atom_site_fract_x
  _atom_site_fract_y
  _atom_site_fract_z
  _atom_site_occupancy
  Hf  Hf1       1.0  0.8834545394995177  0.8958572977180951  0.0901563325142476  1.0000
  Hf  Hf2       1.0  0.8939629423661871  0.9076989931396683  0.8982786528999539  1.0000
  Hf  Hf3       1.0  0.058792829558569806  0.07256544757013471  0.10071283085178348  1.0000
  Hf  Hf4       1.0  0.07098804661736581  0.08245329607643012  0.909357224596171  1.0000
  Hf  Hf5       1.0  0.064444567707632  0.9027153111500892  0.9998552155439883  1.0000
  Hf  Hf6       1.0  0.8892513384838099  0.0767721449029608  0.9996090203564805  1.0000
  H   H1        1.0  0.767135556861703  0.9152184140449579  0.9944034435317376  1.0000
  H   H2        1.0  0.052385497413318716  0.928096479444065  0.847302265267551  1.0000
  H   H3        1.0  0.050694396363248004  0.1990017722980966  0.0043580955852605  1.0000
  H   H4        1.0  0.0416945330217757  0.9175362637308666  0.15220903387984913  1.0000
  H   H5        1.0  0.9257493581021238  0.8879290263257572  0.7561109767182328  1.0000
  H   H6        1.0  0.9928802679910192  0.006384865138855441  0.7823921227321333  1.0000
  H   H7        1.0  0.22211016169235623  0.1889517926994131  0.9157038159860208  1.0000
  H   H8        1.0  0.1771335856396732  0.1876334163739983  0.0178459913247977  1.0000
  H   H9        1.0  0.025478909081648703  0.08707435455501408  0.2394893128074642  1.0000
  H   H10       1.0  0.9587324037033299  0.9719165067729564  0.21694670681020506  1.0000
  H   H11       1.0  0.7804837240197529  0.7425387042940983  0.0821235663989413  1.0000
  H   H12       1.0  0.7809233085445728  0.7882194432626477  0.9816525075169267  1.0000
  H   H13       1.0  0.2178025284155112  0.16990710869598047  0.09421924492048818  1.0000
  H   H14       1.0  0.9142481317281438  0.8735290675533349  0.2373516471346591  1.0000
  H   H15       1.0  0.7973332876401642  0.7478677062573807  0.9040677363871198  1.0000
  H   H16       1.0  0.03193460975946041  0.1058612660383247  0.7703877619883241  1.0000
  H   H17       1.0  0.6012819511377643  0.9921393631671264  0.33260095791505506  1.0000
  H   H18       1.0  0.35148015135648353  0.9895315727145616  0.33102939288961136  1.0000
  H   H19       1.0  0.47858786691478633  0.9902747216002156  0.12908395810026718  1.0000
  H   H20       1.0  0.6034359733651941  0.9958062532160881  0.6639007658072913  1.0000
  H   H21       1.0  0.35345274996964093  0.9924775858362195  0.6699122838953571  1.0000
  H   H22       1.0  0.484580012522855  0.99788097807744  0.8695530208041758  1.0000
  H   H23       1.0  0.9698478182107878  0.4822025097541386  0.1298739807585321  1.0000
  H   H24       1.0  0.9672427425063078  0.6106702692056984  0.32968469876326617  1.0000
  H   H25       1.0  0.9717490236342173  0.36368379577685056  0.3357237484252948  1.0000
  H   H26       1.0  0.9756607672660139  0.48772245276178683  0.8699848324295302  1.0000
  H   H27       1.0  0.9702487289992163  0.61327726457111  0.6684511522124054  1.0000
  H   H28       1.0  0.9721330210199498  0.36530425464889754  0.6659276727086691  1.0000
  H   H29       1.0  0.8899599435478224  0.36355815486795245  0.5680735623886191  1.0000
  H   H30       1.0  0.0487638736906391  0.6154134352601872  0.5655652131764413  1.0000
  H   H31       1.0  0.048230924047047104  0.6146533512887301  0.4317168766548605  1.0000
  H   H32       1.0  0.8895016588906445  0.3627804273184836  0.4343054379982831  1.0000
  H   H33       1.0  0.5526025130772113  0.9162310230195204  0.5665190893828437  1.0000
  H   H34       1.0  0.3998762916177371  0.06754164855923514  0.5658865782511525  1.0000
  H   H35       1.0  0.3992887533598548  0.0663516293061832  0.43227265292502176  1.0000
  H   H36       1.0  0.552033943957035  0.9150525367272946  0.4329952516199286  1.0000
  C   C1        1.0  0.9713890733242538  0.759019651185298  0.1145532201695971  1.0000
  C   C2        1.0  0.7604592827400367  0.9988414730095907  0.8737390494194842  1.0000
  C   C3        1.0  0.9800174653804631  0.7659878901863805  0.8801670797391663  1.0000
  C   C4        1.0  0.7537237127313433  0.9910965440135231  0.11919004127993559  1.0000
  C   C5        1.0  0.9678433916899538  0.20570618464916635  0.12690787841459888  1.0000
  C   C6        1.0  0.20865821529477566  0.9958704690931696  0.8869979197976505  1.0000
  C   C7        1.0  0.9741608961986898  0.21244497290118858  0.8786165233309262  1.0000
  C   C8        1.0  0.20140631508259332  0.9879073358032568  0.118407576624314  1.0000
  C   C9        1.0  0.5477083649336691  0.9907844851417309  0.227062853565414  1.0000
  C   C10       1.0  0.5461732496899998  0.9905689879032309  0.3034896021771445  1.0000
  C   C11       1.0  0.4762408508376908  0.9906880693803616  0.341910442890125  1.0000
  C   C12       1.0  0.40717074755827554  0.9908745639610999  0.3026119728853942  1.0000
  C   C13       1.0  0.40747396628597704  0.9904638440272607  0.2261316520511514  1.0000
  C   C14       1.0  0.47797471336194525  0.9904775437171125  0.1882442832089737  1.0000
  C   C15       1.0  0.5519356859105217  0.9965621278007362  0.770407689013112  1.0000
  C   C16       1.0  0.5488836463567566  0.9947165668389673  0.6940560730897118  1.0000
  C   C17       1.0  0.47812379701981206  0.9937356498946882  0.6568957342174997  1.0000
  C   C18       1.0  0.40971545468982384  0.9945820349661717  0.697365929717307  1.0000
  C   C19       1.0  0.4115135168532689  0.9958227749902236  0.7738340223179205  1.0000
  C   C20       1.0  0.4828542397539338  0.9968439922781727  0.8104247051583825  1.0000
  C   C21       1.0  0.9691778415822088  0.4143650422404123  0.22913052804218378  1.0000
  C   C22       1.0  0.9697208074186179  0.4836007514289093  0.1890186051999834  1.0000
  C   C23       1.0  0.9700666223382229  0.5546933264851006  0.2256271497678668  1.0000
  C   C24       1.0  0.9692181606616331  0.5558609316967136  0.3021098390369801  1.0000
  C   C25       1.0  0.96933937679718  0.48735567182319517  0.3425908524554728  1.0000
  C   C26       1.0  0.9697714815885237  0.4170819517312837  0.3055131005510034  1.0000
  C   C27       1.0  0.9723067623723837  0.41803077922992316  0.7717740964383565  1.0000
  C   C28       1.0  0.9742542518061086  0.48810511177566684  0.8108450761309669  1.0000
  C   C29       1.0  0.9745024772292227  0.5587404818767325  0.7731705228857777  1.0000
  C   C30       1.0  0.9721321799634027  0.5586643664149732  0.6967227765362694  1.0000
  C   C31       1.0  0.9708515792813942  0.4893019074780938  0.6572527731971078  1.0000
  C   C32       1.0  0.9712638302563902  0.4193940041555066  0.6953686893783271  1.0000
  C   C33       1.0  0.9257820931729412  0.41856644021966355  0.5384058832996743  1.0000
  C   C34       1.0  0.969526091986154  0.4895045338615348  0.5769878581497636  1.0000
  C   C35       1.0  0.012513899713781002  0.5601495580355901  0.5370044398516569  1.0000
  C   C36       1.0  0.0122245250998674  0.5597216556702307  0.46140774772761256  1.0000
  C   C37       1.0  0.9689544984519287  0.488613527310207  0.422862623083148  1.0000
  C   C38       1.0  0.9255171760036306  0.4181259734329359  0.46287162178482083  1.0000
  C   C39       1.0  0.5196934954512216  0.9502995529218766  0.5373536777595261  1.0000
  C   C40       1.0  0.47641174089450544  0.992113298084753  0.5765946966088009  1.0000
  C   C41       1.0  0.4323580454885771  0.03280434998050196  0.5370452323252763  1.0000
  C   C42       1.0  0.432027897027865  0.03212527446044076  0.46144229872605536  1.0000
  C   C43       1.0  0.47570357139319003  0.9907251704279859  0.4222257144156316  1.0000
  C   C44       1.0  0.5193541316886298  0.94961392165105  0.4618029435980517  1.0000
  C   C45       1.0  0.3414419323304899  0.9958534283606328  0.8140080764188369  1.0000
  C   C46       1.0  0.28140960966620554  0.9960702753937625  0.8484933511998065  1.0000
  C   C47       1.0  0.6247463484745667  0.9983292307850178  0.806395153719798  1.0000
  C   C48       1.0  0.6876734695229559  0.9995531044907368  0.8363115899922775  1.0000
  C   C49       1.0  0.33646378569437735  0.9896632560914896  0.18755861794256387  1.0000
  C   C50       1.0  0.275200568867298  0.9889485284383639  0.1549697552743226  1.0000
  C   C51       1.0  0.6816273525080591  0.9920870295340265  0.1580554021040257  1.0000
  C   C52       1.0  0.6196174481898638  0.9915613102373724  0.18960948103998723  1.0000
  C   C53       1.0  0.9725713461972704  0.28421986005133704  0.8397734327301905  1.0000
  C   C54       1.0  0.9724638802547575  0.3462838924230169  0.8087952577596624  1.0000
  C   C55       1.0  0.9765228879350049  0.6300280128721311  0.8117913804318775  1.0000
  C   C56       1.0  0.9786155839062546  0.6918571837080664  0.8440972072838733  1.0000
  C   C57       1.0  0.9676231909594365  0.2786386879294795  0.1642009170017786  1.0000
  C   C58       1.0  0.9685730191611485  0.34181638655279295  0.19343349937503254  1.0000
  C   C59       1.0  0.9703905306849806  0.6250321351661087  0.18586600187628474  1.0000
  C   C60       1.0  0.9709186169388674  0.6858747496627089  0.1523532704828199  1.0000
  O   O1        1.0  0.913458839676217  0.7863768420492506  0.13117164450818558  1.0000
  O   O2        1.0  0.029256660455814702  0.7902174890249043  0.0693457088586626  1.0000
  O   O3        1.0  0.7895195658340199  0.943307707575016  0.8558835197459017  1.0000
  O   O4        1.0  0.7881144240924485  0.053628953605411284  0.9223758572495342  1.0000
  O   O5        1.0  0.9233900045338217  0.7944026829013138  0.8623950159712734  1.0000
  O   O6        1.0  0.03754087586862201  0.7969303457181597  0.9252985520087051  1.0000
  O   O7        1.0  0.7813086142400607  0.9339597300115087  0.1350197369493884  1.0000
  O   O8        1.0  0.7822206938635077  0.047422037548720646  0.0714754852393682  1.0000
  O   O9        1.0  0.7822081561473484  0.7938318826269608  0.05966183862572899  1.0000
  O   O10       1.0  0.9053178814145754  0.9182163147369948  0.2107154998974394  1.0000
  O   O11       1.0  0.7866256171081291  0.7954363364344418  0.923552944139253  1.0000
  O   O12       1.0  0.9211575714853026  0.9314445835439641  0.7869075969954196  1.0000
  O   O13       1.0  0.940992487074084  0.8796664083185418  0.9959885991763356  1.0000
  O   O14       1.0  0.8265967658030321  0.9365533693172878  0.9950030440124706  1.0000
  O   O15       1.0  0.021948789373922806  0.17485844034917622  0.14643482962662793  1.0000
  O   O16       1.0  0.9147937628191655  0.1795917766805103  0.07701568201214569  1.0000
  O   O17       1.0  0.1824336182334676  0.05481285709400649  0.8725662850950754  1.0000
  O   O18       1.0  0.17658159040900054  0.9365929006337338  0.9309089235212723  1.0000
  O   O19       1.0  0.0296112228402592  0.18294794351785984  0.8601698496721325  1.0000
  O   O20       1.0  0.9206867774991139  0.18592631281713776  0.9286838618900005  1.0000
  O   O21       1.0  0.17420280743331062  0.045819512557550006  0.13382917962314878  1.0000
  O   O22       1.0  0.16941172422507123  0.9287553379534684  0.0748388306991643  1.0000
  O   O23       1.0  0.1704239785763377  0.1817368813246532  0.0754991175987456  1.0000
  O   O24       1.0  0.03253773228348681  0.0422523211313077  0.21181158765973856  1.0000
  O   O25       1.0  0.1705944928651348  0.18641671112422392  0.9383723315711093  1.0000
  O   O26       1.0  0.045700756202997204  0.05953624291019821  0.7892162939640883  1.0000
  O   O27       1.0  0.029540984129596402  0.13957265326849472  0.0042515454143555  1.0000
  O   O28       1.0  0.0868265644402584  0.0257445481998104  0.0034106024446885  1.0000
  O   O29       1.0  0.9361230572263254  0.022350073926730826  0.07877497803982439  1.0000
  O   O30       1.0  0.0321658197225787  0.9459713942949792  0.8910480200788554  1.0000
  O   O31       1.0  0.022035060002089303  0.9363455336422886  0.10866957909189519  1.0000
  O   O32       1.0  0.9435588539856853  0.029874928513834224  0.9200175961514603  1.0000
