data_image0
_chemical_formula_structural       Li4H28C24O28
_chemical_formula_sum              "Li4 H28 C24 O28"
_cell_length_a       7.444225195198918
_cell_length_b       9.143179582697414
_cell_length_c       11.225844142040566
_cell_angle_alpha    90.00001934671438
_cell_angle_beta     90.00028559351196
_cell_angle_gamma    108.24237332120056

_space_group_name_H-M_alt    "P 1"
_space_group_IT_number       1

loop_
  _space_group_symop_operation_xyz
  'x, y, z'

loop_
  _atom_site_type_symbol
  _atom_site_label
  _atom_site_symmetry_multiplicity
  _atom_site_fract_x
  _atom_site_fract_y
  _atom_site_fract_z
  _atom_site_occupancy
  Li  Li1       1.0  0.1063199568367921  0.09395582923245631  0.12389109447997268  1.0000
  Li  Li2       1.0  0.893679482120909  0.40604234138780276  0.6238904711913307  1.0000
  Li  Li3       1.0  0.8936784192840364  0.9060429957406698  0.8761076543863311  1.0000
  Li  Li4       1.0  0.10632202110603123  0.5939576466153937  0.37611095008511347  1.0000
  H   H1        1.0  0.7195102650472408  0.18153416874717013  0.1837504231768179  1.0000
  H   H2        1.0  0.28049048160784207  0.3184733573090455  0.6837548784592968  1.0000
  H   H3        1.0  0.28049123817211113  0.8184658192537313  0.8162492164964094  1.0000
  H   H4        1.0  0.719507421173965  0.6815277650920918  0.3162465428113634  1.0000
  H   H5        1.0  0.79900852204959  0.3847255226391654  0.187068818859963  1.0000
  H   H6        1.0  0.2009886896876978  0.1152796973618635  0.6870685007330337  1.0000
  H   H7        1.0  0.20099389059515718  0.6152733195111749  0.8129299300129986  1.0000
  H   H8        1.0  0.7990092130903149  0.8847214250381228  0.3129320297360252  1.0000
  H   H9        1.0  0.7118321504860037  0.44255248527783675  0.41412243232947793  1.0000
  H   H10       1.0  0.2881697615357908  0.0574464333768745  0.9141223856033989  1.0000
  H   H11       1.0  0.2881693527333482  0.5574475027230648  0.5858772073437493  1.0000
  H   H12       1.0  0.7118330871953307  0.9425535603509094  0.0858781448736536  1.0000
  H   H13       1.0  0.6340632063018177  0.0413028261568442  0.3739773824471797  1.0000
  H   H14       1.0  0.36593745423531493  0.4586971348848365  0.8739821590627486  1.0000
  H   H15       1.0  0.365936515326979  0.95869600454202  0.6260213664213411  1.0000
  H   H16       1.0  0.6340627034836573  0.541302847392622  0.1260192622114786  1.0000
  H   H17       1.0  0.5733265756725671  0.16895537584851897  0.4718078050482504  1.0000
  H   H18       1.0  0.42667448239585326  0.3310436857623245  0.9718118553999133  1.0000
  H   H19       1.0  0.4266735820312206  0.8310446064243492  0.5281900530195429  1.0000
  H   H20       1.0  0.5733238937325638  0.6689551392131037  0.0281886750695932  1.0000
  H   H21       1.0  0.8456039670255536  0.926935438974418  0.6161226750410265  1.0000
  H   H22       1.0  0.15439291251723122  0.5730645275761717  0.1161243418837685  1.0000
  H   H23       1.0  0.1543934996660852  0.07306453184812513  0.3838760738239344  1.0000
  H   H24       1.0  0.8456068091229553  0.4269343031261386  0.8838770793895704  1.0000
  H   H25       1.0  0.3392172318939544  0.3763743440103582  0.3268455208742793  1.0000
  H   H26       1.0  0.6607812454267333  0.12362433824840485  0.8268458313880133  1.0000
  H   H27       1.0  0.6607820536522694  0.6236233351122067  0.6731523371917518  1.0000
  H   H28       1.0  0.33921443968574044  0.8763744752755542  0.1731546990770596  1.0000
  C   C1        1.0  0.5128657771812613  0.28199344772202295  0.24060105492402067  1.0000
  C   C2        1.0  0.48713149190506755  0.21800730967894572  0.740602600597974  1.0000
  C   C3        1.0  0.48713572603809047  0.7180065402788786  0.7593985847492063  1.0000
  C   C4        1.0  0.5128650653611757  0.7819938069941585  0.2593970390672524  1.0000
  C   C5        1.0  0.7154267451996362  0.2814723162317492  0.2357830431372463  1.0000
  C   C6        1.0  0.28457360993187564  0.21852959177947895  0.735785702210265  1.0000
  C   C7        1.0  0.2845743219371357  0.718526520192853  0.7642157057334983  1.0000
  C   C8        1.0  0.715424292842343  0.7814715306193636  0.2642139374571855  1.0000
  C   C9        1.0  0.809890664917447  0.2804430566046747  0.35780431214130465  1.0000
  C   C10       1.0  0.19010851229060682  0.2195568570241377  0.8578066598148196  1.0000
  C   C11       1.0  0.19010949279392977  0.7195569256704887  0.6421953275297057  1.0000
  C   C12       1.0  0.8098893904874062  0.7804442653758559  0.1421938706542321  1.0000
  C   C13       1.0  0.6931943172093822  0.14114092715880838  0.4315624730983386  1.0000
  C   C14       1.0  0.3068072700768383  0.35886033387239985  0.9315643541555759  1.0000
  C   C15       1.0  0.3068053671553913  0.8588613525420713  0.5684380573738181  1.0000
  C   C16       1.0  0.6931942331425135  0.6411396541284945  0.0684352855176513  1.0000
  C   C17       1.0  0.8082237120108148  0.10160536986283832  0.5294261218449421  1.0000
  C   C18       1.0  0.1917767036081486  0.3983937145902985  0.0294280034349867  1.0000
  C   C19       1.0  0.1917746641176024  0.8983934551125827  0.47057440862457167  1.0000
  C   C20       1.0  0.8082234541070221  0.6016062676860159  0.9705725270376248  1.0000
  C   C21       1.0  0.009292120943122482  0.26750150122308  0.3351882091309335  1.0000
  C   C22       1.0  0.9907126816560564  0.23249952859141837  0.8351887480401315  1.0000
  C   C23       1.0  0.990712509370958  0.7324996498044386  0.6648114305476156  1.0000
  C   C24       1.0  0.009285694472360734  0.7674992963840027  0.164811782429382  1.0000
  O   O1        1.0  0.48239804340661874  0.3771963348635978  0.3226304840007472  1.0000
  O   O2        1.0  0.5176021795862695  0.12280349383287614  0.8226312126589193  1.0000
  O   O3        1.0  0.5176030237301532  0.6228025015610043  0.6773682648699975  1.0000
  O   O4        1.0  0.4823966326247273  0.8771964827188441  0.1773702086130839  1.0000
  O   O5        1.0  0.3909578072963882  0.20537005841175932  0.1714443510939674  1.0000
  O   O6        1.0  0.6090402180077562  0.2946305264707406  0.6714445389328461  1.0000
  O   O7        1.0  0.6090436959153749  0.79462992958684  0.8285535069760499  1.0000
  O   O8        1.0  0.3909585941956523  0.7053694500786849  0.3285551007359402  1.0000
  O   O9        1.0  0.7605727513379393  0.9523272280546992  0.5525807689079727  1.0000
  O   O10       1.0  0.2394262777812771  0.5476725861766739  0.052582709183163004  1.0000
  O   O11       1.0  0.23942784245601703  0.0476739057967634  0.4474197615655271  1.0000
  O   O12       1.0  0.7605747893668778  0.4523262502513675  0.9474187120923928  1.0000
  O   O13       1.0  0.9355135234966597  0.20084132759608758  0.5818134974813205  1.0000
  O   O14       1.0  0.06448599300153293  0.29915788615127076  0.0818140403906398  1.0000
  O   O15       1.0  0.0644839432025677  0.7991586432287505  0.4181870329868502  1.0000
  O   O16       1.0  0.9355123831230899  0.7008409388230064  0.9181855992772725  1.0000
  O   O17       1.0  0.01670986224602442  0.13471054410867822  0.3079180931234049  1.0000
  O   O18       1.0  0.98328976202761  0.3652915440917042  0.8079177540563407  1.0000
  O   O19       1.0  0.9832889499611782  0.8652894324418982  0.6920824373469898  1.0000
  O   O20       1.0  0.0167090501757984  0.6347084324577212  0.1920818856124455  1.0000
  O   O21       1.0  0.1496885623436341  0.38893677632541573  0.34536497536787897  1.0000
  O   O22       1.0  0.8503109449377746  0.11106425681479239  0.845365016907877  1.0000
  O   O23       1.0  0.8503102498559799  0.6110632002228655  0.6546337734992989  1.0000
  O   O24       1.0  0.14968830334061783  0.888936871308637  0.1546337319601818  1.0000
  O   O25       1.0  0.8337565725671255  0.42237523794789666  0.4217069155223498  1.0000
  O   O26       1.0  0.16624223971402333  0.07762598622743161  0.9217064721672728  1.0000
  O   O27       1.0  0.16624402122303647  0.5776258959024217  0.5782927241495344  1.0000
  O   O28       1.0  0.833753881477236  0.9223739788716757  0.0782940582986811  1.0000
