data_image0
_chemical_formula_structural       Zn2H18C37S2N2O10F4
_chemical_formula_sum              "Zn2 H18 C37 S2 N2 O10 F4"
_cell_length_a       12.747350151147161
_cell_length_b       16.379615316261404
_cell_length_c       17.712315625658285
_cell_angle_alpha    95.74301749717046
_cell_angle_beta     90.37432455041426
_cell_angle_gamma    92.6977406128879

_space_group_name_H-M_alt    "P 1"
_space_group_IT_number       1

loop_
  _space_group_symop_operation_xyz
  'x, y, z'

loop_
  _atom_site_type_symbol
  _atom_site_label
  _atom_site_symmetry_multiplicity
  _atom_site_fract_x
  _atom_site_fract_y
  _atom_site_fract_z
  _atom_site_occupancy
  Zn  Zn1       1.0  0.49639732944477544  0.4125572958172086  0.49655137463166454  1.0000
  Zn  Zn2       1.0  0.5041852988051971  0.5860327744069453  0.5012015338790263  1.0000
  H   H1        1.0  0.3921366912807969  0.712005788864083  0.4291874183795059  1.0000
  H   H2        1.0  0.3933377963431895  0.8642306024414309  0.4293377196526436  1.0000
  H   H3        1.0  0.6376179712277121  0.8791996314859746  0.6030864141966816  1.0000
  H   H4        1.0  0.37998403929031355  0.11950994762776898  0.3848880438188261  1.0000
  H   H5        1.0  0.5816959678489438  0.13603958439209407  0.5851792591302072  1.0000
  H   H6        1.0  0.5846223100985597  0.2882220638376438  0.5842609633690968  1.0000
  H   H7        1.0  0.581772600383566  0.004279177670383701  0.5642702102251462  1.0000
  H   H8        1.0  0.41703536408930103  0.9952506933075748  0.43528289646906165  1.0000
  H   H9        1.0  0.5048264328672332  0.62107923228789  0.2614715707524056  1.0000
  H   H10       1.0  0.5036108285827936  0.6139805076100301  0.12125692077268009  1.0000
  H   H11       1.0  0.4952305406005237  0.3486163763577678  0.11219404209039399  1.0000
  H   H12       1.0  0.5103119522077435  0.6543085437443069  0.8867389474372729  1.0000
  H   H13       1.0  0.4924667841428274  0.3888458803790797  0.8765527063179734  1.0000
  H   H14       1.0  0.4938900910407327  0.3824473951908871  0.7363930802250636  1.0000
  H   H15       1.0  0.49566659423141596  0.40696164324661044  0.9967472332838128  1.0000
  H   H16       1.0  0.5046564792088333  0.5955248060883348  0.0016999822563476996  1.0000
  H   H17       1.0  0.8663282073978068  0.6276050098050446  0.4982302826879348  1.0000
  H   H18       1.0  0.05084963629931851  0.3412822596258067  0.5867069551344741  1.0000
  C   C1        1.0  0.4999095665201311  0.5011619072738185  0.3518590277698053  1.0000
  C   C2        1.0  0.2958838836252653  0.49784320370586244  0.49821341537432323  1.0000
  C   C3        1.0  0.5021061684932846  0.503081510313571  0.6464831689627816  1.0000
  C   C4        1.0  0.7050332368630094  0.49771566774154513  0.4981402941540054  1.0000
  C   C5        1.0  0.44476907049908476  0.7525461205918802  0.46629867784024276  1.0000
  C   C6        1.0  0.44652776558103824  0.8370957843361565  0.46700433653933265  1.0000
  C   C7        1.0  0.5166409054914993  0.8863019054108534  0.5164620498865347  1.0000
  C   C8        1.0  0.5815364387308577  0.8458279098497525  0.5633556250386818  1.0000
  C   C9        1.0  0.573563154356833  0.7606156863461422  0.5580485272892801  1.0000
  C   C10       1.0  0.5254032599612231  0.9757041927622865  0.5217192529931154  1.0000
  C   C11       1.0  0.4718475850287831  0.023755308181719698  0.4789376646169146  1.0000
  C   C12       1.0  0.42719340580158155  0.15306997259678204  0.4302559342057037  1.0000
  C   C13       1.0  0.48042387280053583  0.11320656815593819  0.48430980460918244  1.0000
  C   C14       1.0  0.5390377564067563  0.1627777693517203  0.5410405192907746  1.0000
  C   C15       1.0  0.5414788567236855  0.2472762989236584  0.5413114091069391  1.0000
  C   C16       1.0  0.43552593685081575  0.23837532304661124  0.43514162418844654  1.0000
  C   C17       1.0  0.5001382488243351  0.49131383299940984  0.26684803887931  1.0000
  C   C18       1.0  0.502434864934351  0.5618574951631105  0.22730354416661672  1.0000
  C   C19       1.0  0.5018550015199851  0.5573876070416547  0.1488321251292959  1.0000
  C   C20       1.0  0.499077854577898  0.4804763438007029  0.1048026482072757  1.0000
  C   C21       1.0  0.49715544203483125  0.40954984582398873  0.14341014591178694  1.0000
  C   C22       1.0  0.4978518063255208  0.41545088671738734  0.22218535855348884  1.0000
  C   C23       1.0  0.4985108359455026  0.47068567269342754  0.022189117381493907  1.0000
  C   C24       1.0  0.5015054772794373  0.5318493024678831  0.9761484635816444  1.0000
  C   C25       1.0  0.5062992994866063  0.5935161620732359  0.8552298465868589  1.0000
  C   C26       1.0  0.5013074510502237  0.5223505839722405  0.8935567786978922  1.0000
  C   C27       1.0  0.49668273802721075  0.445612020589806  0.8492260129134053  1.0000
  C   C28       1.0  0.49742853438351625  0.44155636162524564  0.7707699917747277  1.0000
  C   C29       1.0  0.5022169143888604  0.5123478798076845  0.7315139975336038  1.0000
  C   C30       1.0  0.506562637923544  0.5879776926705417  0.7764976036696681  1.0000
  C   C31       1.0  0.10821834151624189  0.42810791318208885  0.4965844162776137  1.0000
  C   C32       1.0  0.8915775720389761  0.5650899750810865  0.4980580301329454  1.0000
  C   C33       1.0  0.1795069262477185  0.49493820981160747  0.495859394037133  1.0000
  C   C34       1.0  0.8210615274604293  0.4984986643219641  0.49800377658754513  1.0000
  C   C35       1.0  0.9962111273319394  0.5398807276802058  0.49773352372841373  1.0000
  C   C36       1.0  0.0033762443608437932  0.4542732948069811  0.497942716181683  1.0000
  C   C37       1.0  0.13221983788001518  0.3394253429411194  0.49497185120269194  1.0000
  S   S1        1.0  0.11926566114247092  0.5879109896161127  0.49637424711924893  1.0000
  S   S2        1.0  0.8805990512719719  0.404984982589042  0.4970781991765135  1.0000
  N   N1        1.0  0.5082925525047771  0.7140308449222202  0.5115441643332019  1.0000
  N   N2        1.0  0.48994318921921115  0.28525878913519154  0.48863236647517994  1.0000
  O   O1        1.0  0.4915125427272145  0.43637574109214944  0.3856084731474851  1.0000
  O   O2        1.0  0.5077038218215365  0.5745229169659823  0.384053962119829  1.0000
  O   O3        1.0  0.3413816867179165  0.5673718310648611  0.4895080691290516  1.0000
  O   O4        1.0  0.339319760031387  0.4319010521916269  0.5094307925292085  1.0000
  O   O5        1.0  0.4912577447957176  0.5673609338260446  0.612986337156876  1.0000
  O   O6        1.0  0.5121033168989442  0.430789329285723  0.6141685245733655  1.0000
  O   O7        1.0  0.658110736555628  0.42683649807447205  0.49413735212667126  1.0000
  O   O8        1.0  0.662999899700992  0.5668725844862693  0.5021796884288179  1.0000
  O   O9        1.0  0.08622843047265152  0.3008124177861475  0.5527320669920428  1.0000
  O   O10       1.0  0.181513486201176  0.30033306246400565  0.44689692303512635  1.0000
  F   F1        1.0  0.6357412393858012  0.7213508253755662  0.6022163657362398  1.0000
  F   F2        1.0  0.3872023048269426  0.2769583869793876  0.3832006036635818  1.0000
  F   F3        1.0  0.4969707015879479  0.3433898839207927  0.253969188166181  1.0000
  F   F4        1.0  0.5125263394944001  0.660313640953042  0.7449108676193108  1.0000
