data_image0
_chemical_formula_structural       H20Pb2C40Br8N8O12
_chemical_formula_sum              "H20 Pb2 C40 Br8 N8 O12"
_cell_length_a       8.934262079608132
_cell_length_b       8.934320943880987
_cell_length_c       14.92546157733593
_cell_angle_alpha    78.49032971265054
_cell_angle_beta     78.4900618576812
_cell_angle_gamma    80.0659143828806

_space_group_name_H-M_alt    "P 1"
_space_group_IT_number       1

loop_
  _space_group_symop_operation_xyz
  'x, y, z'

loop_
  _atom_site_type_symbol
  _atom_site_label
  _atom_site_symmetry_multiplicity
  _atom_site_fract_x
  _atom_site_fract_y
  _atom_site_fract_z
  _atom_site_occupancy
  H   H1        1.0  0.8300309110582164  0.5459402342740914  0.020466441906840764  1.0000
  H   H2        1.0  0.45406130150892926  0.16996248350842788  0.4795290997235924  1.0000
  H   H3        1.0  0.16997363379515212  0.45406732117794485  0.9795265061601338  1.0000
  H   H4        1.0  0.5459348089667346  0.8300231637546317  0.5204734824485653  1.0000
  H   H5        1.0  0.49017051650975685  0.970284524281126  0.7580308345088508  1.0000
  H   H6        1.0  0.029719660778170013  0.5098252272710582  0.7419725811263473  1.0000
  H   H7        1.0  0.5098194797534461  0.0297207315528567  0.2419714847871787  1.0000
  H   H8        1.0  0.9702856634948634  0.49017655146865  0.2580269904951179  1.0000
  H   H9        1.0  0.7089268556010851  0.10317756670343668  0.7650452227073357  1.0000
  H   H10       1.0  0.896819398977883  0.2910740898197019  0.7349553370741402  1.0000
  H   H11       1.0  0.2910672087417795  0.896823080407934  0.2349518008286465  1.0000
  H   H12       1.0  0.10317599714964842  0.7089334685601044  0.2650440573248288  1.0000
  H   H13       1.0  0.9403516501383324  0.9424778269917695  0.8300998229200329  1.0000
  H   H14       1.0  0.05751788705820362  0.0596471940002203  0.669897052842742  1.0000
  H   H15       1.0  0.05965173213451892  0.057521675143867405  0.16988416987159377  1.0000
  H   H16       1.0  0.9424786065783124  0.940352283291574  0.3301078610502799  1.0000
  H   H17       1.0  0.6976321075776042  0.5486346779805158  0.8791296095239571  1.0000
  H   H18       1.0  0.4513677059555192  0.3023660174566557  0.6208690882997769  1.0000
  H   H19       1.0  0.30236817987334064  0.4513705734330813  0.12086612791326695  1.0000
  H   H20       1.0  0.5486335267327366  0.697632311816683  0.37912869907361096  1.0000
  Pb  Pb1       1.0  0.40011539504197213  0.5998757634170175  0.7500022786730721  1.0000
  Pb  Pb2       1.0  0.5998566781000891  0.4001352847587397  0.24999947155881586  1.0000
  C   C1        1.0  0.694785969478879  0.5618358380975508  0.6114291840394798  1.0000
  C   C2        1.0  0.4381675531013514  0.30520593786149414  0.8885795286817169  1.0000
  C   C3        1.0  0.3052069725207077  0.4381728653154724  0.3885770658254869  1.0000
  C   C4        1.0  0.5618404894053841  0.6947843028607179  0.11142310055164727  1.0000
  C   C5        1.0  0.8504604455916652  0.5325755660774333  0.5503578222346517  1.0000
  C   C6        1.0  0.4674301812148869  0.1495347140644228  0.9496493694343113  1.0000
  C   C7        1.0  0.14953213223685674  0.4674273609892269  0.44965585697629945  1.0000
  C   C8        1.0  0.5325858664269633  0.8504555240959916  0.05034761925855954  1.0000
  C   C9        1.0  0.9572963525728257  0.6358830496586876  0.5366961316765423  1.0000
  C   C10       1.0  0.36412787107218497  0.04269410396005919  0.9633103305984887  1.0000
  C   C11       1.0  0.04269800163858411  0.3641152649106941  0.46331654441609504  1.0000
  C   C12       1.0  0.6359002294654843  0.9572915026361885  0.03668778655814012  1.0000
  C   C13       1.0  0.10579637159050045  0.6036179289037659  0.4867415883410968  1.0000
  C   C14       1.0  0.39639708652548244  0.8941969446985423  0.01326185308293761  1.0000
  C   C15       1.0  0.8942064906527706  0.39638498698258207  0.5132695305991459  1.0000
  C   C16       1.0  0.6036272764389851  0.10579097863782749  0.9867330828617893  1.0000
  C   C17       1.0  0.5906046515568804  0.905754170837639  0.7861617246318529  1.0000
  C   C18       1.0  0.09424715803455541  0.4093931909460763  0.7138396060731009  1.0000
  C   C19       1.0  0.4093929958298475  0.0942453162280685  0.21383635108752228  1.0000
  C   C20       1.0  0.9057547365951278  0.5906085900181921  0.2861617126581776  1.0000
  C   C21       1.0  0.7147423169843138  0.9793055001615085  0.7894348501373682  1.0000
  C   C22       1.0  0.020694650241708207  0.2852604115617651  0.7105646496139213  1.0000
  C   C23       1.0  0.28525911744385013  0.0206997542660687  0.21055807071429905  1.0000
  C   C24       1.0  0.9793044868455141  0.7147448334578852  0.2894359152029011  1.0000
  C   C25       1.0  0.8396711838500865  0.891774319347597  0.82632870498481  1.0000
  C   C26       1.0  0.10822982506743979  0.16033288180911853  0.6736686091348714  1.0000
  C   C27       1.0  0.160331086238962  0.10823324922956348  0.17365848175364815  1.0000
  C   C28       1.0  0.8917686399188796  0.8396689013797243  0.3263344567062204  1.0000
  C   C29       1.0  0.8341911359444085  0.7349042578749021  0.8615500608334583  1.0000
  C   C30       1.0  0.26509776257805134  0.1658073086316492  0.6384460119186881  1.0000
  C   C31       1.0  0.16580459520491084  0.26510101302901745  0.13843817553483004  1.0000
  C   C32       1.0  0.7348993694947767  0.8341875621621  0.36155535332409977  1.0000
  C   C33       1.0  0.7052785386786553  0.6709542482790525  0.8549238394539596  1.0000
  C   C34       1.0  0.3290469691807375  0.29471720838981946  0.6450747240261518  1.0000
  C   C35       1.0  0.29471911322339395  0.3290452432932581  0.14507155520667672  1.0000
  C   C36       1.0  0.6709509917799892  0.7052799697935936  0.354924928691524  1.0000
  C   C37       1.0  0.9703632951472302  0.6420564259928342  0.899091984501822  1.0000
  C   C38       1.0  0.35794930893241883  0.029642681753202296  0.6009018533903042  1.0000
  C   C39       1.0  0.02964046351348061  0.3579568994116186  0.10089836159877308  1.0000
  C   C40       1.0  0.642042424404913  0.9703498876213742  0.3991017664848613  1.0000
  Br  Br1       1.0  0.8968239316134544  0.8196945942924855  0.5879440284341441  1.0000
  Br  Br2       1.0  0.18031280412922263  0.1031682739923241  0.9120642286762644  1.0000
  Br  Br3       1.0  0.10318283289183942  0.18030485829917353  0.41206636836437116  1.0000
  Br  Br4       1.0  0.819703387882484  0.8968207973337667  0.0879409214272755  1.0000
  Br  Br5       1.0  0.2488751197164731  0.7451146292630781  0.46727448946100464  1.0000
  Br  Br6       1.0  0.2548955119950946  0.751117271329683  0.03273030924432157  1.0000
  Br  Br7       1.0  0.75112657204447  0.2548802254203011  0.5327323660566703  1.0000
  Br  Br8       1.0  0.7451252645390128  0.24887180867239067  0.9672655853110751  1.0000
  N   N1        1.0  0.5866264599279207  0.754402666354629  0.816774424206187  1.0000
  N   N2        1.0  0.24559895812370067  0.4133728874174166  0.6832245353193327  1.0000
  N   N3        1.0  0.41337430127050845  0.2455991251154898  0.18322166793443265  1.0000
  N   N4        1.0  0.75440408235437  0.5866288954341883  0.316774637091079  1.0000
  N   N5        1.0  0.9394417807971038  0.5420384734195096  0.9795236269825761  1.0000
  N   N6        1.0  0.4579585900528898  0.06055684028356008  0.5204760655613114  1.0000
  N   N7        1.0  0.060566031268464826  0.45797022861584213  0.020470136798856182  1.0000
  N   N8        1.0  0.5420337783342577  0.9394311192130115  0.4795260164576758  1.0000
  O   O1        1.0  0.5802342015458349  0.6339216988393943  0.5749684889049574  1.0000
  O   O2        1.0  0.36608221535141894  0.4197557850353136  0.9250392364326667  1.0000
  O   O3        1.0  0.41976019987613716  0.36608469757867096  0.4250371916374432  1.0000
  O   O4        1.0  0.6339231916064422  0.580228695845612  0.07496305002411666  1.0000
  O   O5        1.0  0.6907199075048  0.5096099664817899  0.6968690409560165  1.0000
  O   O6        1.0  0.4903823885396505  0.30926931094224125  0.8031358939366338  1.0000
  O   O7        1.0  0.30926287658893165  0.4903895287215008  0.3031374992587955  1.0000
  O   O8        1.0  0.509612623298196  0.6907244162821797  0.19686183900615348  1.0000
  O   O9        1.0  0.10442557200761374  0.6569438446364868  0.8580377718872252  1.0000
  O   O10       1.0  0.3430626600787437  0.8955684575963829  0.6419636342185128  1.0000
  O   O11       1.0  0.8955746350161679  0.34307870688918735  0.14195391018530762  1.0000
  O   O12       1.0  0.6569235514006807  0.10443103312903189  0.3580424994158518  1.0000
