data_image0
_chemical_formula_structural       Sr2Cu2H20C28N4O22
_chemical_formula_sum              "Sr2 Cu2 H20 C28 N4 O22"
_cell_length_a       9.236492969556462
_cell_length_b       9.602690408021532
_cell_length_c       10.27193522884823
_cell_angle_alpha    106.70108008186418
_cell_angle_beta     92.45581008596236
_cell_angle_gamma    116.16554373596199

_space_group_name_H-M_alt    "P 1"
_space_group_IT_number       1

loop_
  _space_group_symop_operation_xyz
  'x, y, z'

loop_
  _atom_site_type_symbol
  _atom_site_label
  _atom_site_symmetry_multiplicity
  _atom_site_fract_x
  _atom_site_fract_y
  _atom_site_fract_z
  _atom_site_occupancy
  Sr  Sr1       1.0  0.5865846590184133  0.4006638834684609  0.1165388468186848  1.0000
  Sr  Sr2       1.0  0.4134147937221825  0.5993328377189826  0.8834608991323948  1.0000
  Cu  Cu1       1.0  0.164139771284745  0.8232233827645389  0.192693956423824  1.0000
  Cu  Cu2       1.0  0.83585768793543  0.17678073205929928  0.8073048575963925  1.0000
  H   H1        1.0  0.05478528188122308  0.2370317669098938  0.22644351856528294  1.0000
  H   H2        1.0  0.9452142320262313  0.7629674137477593  0.7735569134648018  1.0000
  H   H3        1.0  0.24198144385636064  0.6550202845023565  0.6028006886851928  1.0000
  H   H4        1.0  0.7580121151464426  0.3449801195862109  0.397195987787356  1.0000
  H   H5        1.0  0.32964647577213674  0.9071523699077136  0.686841703814608  1.0000
  H   H6        1.0  0.6703495892585353  0.09283944951029355  0.3131526699460069  1.0000
  H   H7        1.0  0.47314834235541525  0.3505065496717776  0.5846635016097255  1.0000
  H   H8        1.0  0.5268516859224661  0.6494913719399094  0.41533951840998645  1.0000
  H   H9        1.0  0.9703409231675761  0.9656520697857757  0.3186630248916842  1.0000
  H   H10       1.0  0.029664092130445907  0.03434961729243471  0.6813382903465739  1.0000
  H   H11       1.0  0.8799403316945487  0.7737085273398137  0.29455111536852746  1.0000
  H   H12       1.0  0.12006141915874481  0.2262931429034866  0.7054491111534988  1.0000
  H   H13       1.0  0.19297002116076098  0.18645535836156316  0.9211963406761968  1.0000
  H   H14       1.0  0.8070262289229505  0.8135437827905889  0.07880494351511669  1.0000
  H   H15       1.0  0.23049460809360772  0.13697943269468743  0.050819895324657714  1.0000
  H   H16       1.0  0.7695033046406508  0.8630209522776725  0.9491817910449145  1.0000
  H   H17       1.0  0.5938976076006953  0.056023129962980506  0.12002745366156381  1.0000
  H   H18       1.0  0.4060950107266804  0.943961248868284  0.8799676549007388  1.0000
  H   H19       1.0  0.7573570963367188  0.18975963523338626  0.0939986541222311  1.0000
  H   H20       1.0  0.24263449542326043  0.810227182342729  0.9059980715319826  1.0000
  C   C1        1.0  0.1071936439116215  0.4715454104256481  0.20722348047493716  1.0000
  C   C2        1.0  0.8928103414035604  0.5284588400856906  0.7927687770291315  1.0000
  C   C3        1.0  0.09776095588927797  0.3674736599076168  0.2817774743426257  1.0000
  C   C4        1.0  0.9022349633245595  0.6325341187011234  0.7182232800960836  1.0000
  C   C5        1.0  0.14620000909357597  0.43197736491200095  0.42597696449411887  1.0000
  C   C6        1.0  0.8537932209023185  0.568031608621375  0.5740250048582425  1.0000
  C   C7        1.0  0.2015522493425124  0.600228284694346  0.490619942010227  1.0000
  C   C8        1.0  0.7984464202561199  0.39978075845997557  0.509380283593835  1.0000
  C   C9        1.0  0.20406875928814824  0.6961563053154194  0.4105285185672686  1.0000
  C   C10       1.0  0.7959274901745702  0.3038428585073234  0.5894708247465773  1.0000
  C   C11       1.0  0.2697336252447898  0.8752064365019765  0.4718479797189732  1.0000
  C   C12       1.0  0.7302723551432849  0.12479036369647646  0.5281500619096422  1.0000
  C   C13       1.0  0.3350513497007556  0.9678548394709666  0.6114359981879219  1.0000
  C   C14       1.0  0.6649482862299082  0.0321492714624085  0.38856483556143934  1.0000
  C   C15       1.0  0.4078234948679907  0.13946153825268945  0.6539909577275723  1.0000
  C   C16       1.0  0.5921789526143185  0.8605462966964695  0.34601003326614693  1.0000
  C   C17       1.0  0.4155707175210778  0.216766117156638  0.5559367986566246  1.0000
  C   C18       1.0  0.5844326341949184  0.7832343601072581  0.4440612030871734  1.0000
  C   C19       1.0  0.3473154169538902  0.11638780041707261  0.41817111530338746  1.0000
  C   C20       1.0  0.6526879350726063  0.8836126655115281  0.5818278568791443  1.0000
  C   C21       1.0  0.3515272330994037  0.17368128410356581  0.2965229816011643  1.0000
  C   C22       1.0  0.6484811692875497  0.8263253274146791  0.7034817649500911  1.0000
  C   C23       1.0  0.48158995936289273  0.23596257977270346  0.8050430503789274  1.0000
  C   C24       1.0  0.51840770963544  0.7640279333129173  0.1949588029908327  1.0000
  C   C25       1.0  0.13423538200084548  0.3214776666929636  0.5101069060652108  1.0000
  C   C26       1.0  0.8657752557794751  0.6785314910874193  0.48989278278429543  1.0000
  C   C27       1.0  0.06145545173772152  0.4019187235941573  0.05089846725924468  1.0000
  C   C28       1.0  0.9385434863219474  0.5980792679745479  0.949097720263467  1.0000
  N   N1        1.0  0.15710184843496228  0.6332719536196196  0.27001962523212353  1.0000
  N   N2        1.0  0.842899327502046  0.3667284935288393  0.729979268098738  1.0000
  N   N3        1.0  0.2756993395566383  0.951655463822057  0.3803963432997862  1.0000
  N   N4        1.0  0.7243029247356035  0.048344981381170306  0.6196035598956514  1.0000
  O   O1        1.0  0.2699760123972652  0.056732164409240206  0.1791064151955268  1.0000
  O   O2        1.0  0.7300296399153936  0.9432731712281285  0.8208998306291094  1.0000
  O   O3        1.0  0.43485446970891667  0.32306704123702457  0.3114161957339477  1.0000
  O   O4        1.0  0.5651490667496192  0.6769407690963123  0.6885877460018152  1.0000
  O   O5        1.0  0.5003415946298517  0.3816549378264115  0.8525947561481787  1.0000
  O   O6        1.0  0.49964661563011253  0.618326751274296  0.14741600609031028  1.0000
  O   O7        1.0  0.5214394445849352  0.16592523512179017  0.8770881028238977  1.0000
  O   O8        1.0  0.4785549612106479  0.8340652157877245  0.12291654358457293  1.0000
  O   O9        1.0  0.1951446835718755  0.3912298113708061  0.6403176483872741  1.0000
  O   O10       1.0  0.8048561009493937  0.6087767910934475  0.35968196998944546  1.0000
  O   O11       1.0  0.061898625564424506  0.16821690877743126  0.44604010320187376  1.0000
  O   O12       1.0  0.9381244354641399  0.8317885771010441  0.5539667734361161  1.0000
  O   O13       1.0  0.9233729478270404  0.2664697937937817  0.0035029704573048804  1.0000
  O   O14       1.0  0.07662777428539153  0.7335343945414509  0.9964920800854602  1.0000
  O   O15       1.0  0.15079731960531004  0.4735749030373881  0.9788272109635301  1.0000
  O   O16       1.0  0.8492043688391464  0.526424353076898  0.02116844772453425  1.0000
  O   O17       1.0  0.9292437336609608  0.8558811789703782  0.24636554494945537  1.0000
  O   O18       1.0  0.07075692945808501  0.14412047054755564  0.7536356125854696  1.0000
  O   O19       1.0  0.2613107385837452  0.22821226360893831  0.014247807636586196  1.0000
  O   O20       1.0  0.7386833968878292  0.7717893068979793  0.9857550542208035  1.0000
  O   O21       1.0  0.666682959638372  0.1758790463485909  0.14549487967612865  1.0000
  O   O22       1.0  0.3333091455605485  0.8241065461874516  0.8545015226514964  1.0000
