data_image0
_chemical_formula_structural       AlH18C27N3O6
_chemical_formula_sum              "Al1 H18 C27 N3 O6"
_cell_length_a       3.948880482812535
_cell_length_b       15.952932237602077
_cell_length_c       15.429389463241122
_cell_angle_alpha    60.603948544065645
_cell_angle_beta     76.21754074789635
_cell_angle_gamma    79.04594552865078

_space_group_name_H-M_alt    "P 1"
_space_group_IT_number       1

loop_
  _space_group_symop_operation_xyz
  'x, y, z'

loop_
  _atom_site_type_symbol
  _atom_site_label
  _atom_site_symmetry_multiplicity
  _atom_site_fract_x
  _atom_site_fract_y
  _atom_site_fract_z
  _atom_site_occupancy
  Al  Al1       1.0  0.04005751313545149  0.50395397783997  0.4917675434593036  1.0000
  H   H1        1.0  0.3875150505781236  0.9582036899231524  0.14115879208915774  1.0000
  H   H2        1.0  0.5625670939107433  0.3972053977442229  0.9588496293625755  1.0000
  H   H3        1.0  0.6679584042889954  0.13182103407469734  0.4099569241574343  1.0000
  H   H4        1.0  0.6188520251824274  0.4890833912666608  0.22663737798559672  1.0000
  H   H5        1.0  0.5848800668168508  0.39684997464688376  0.13683050404480912  1.0000
  H   H6        1.0  0.265875976340908  0.25299730741150483  0.7693144816830754  1.0000
  H   H7        1.0  0.28490166341928386  0.152386902626688  0.9546018404538045  1.0000
  H   H8        1.0  0.5582275711547595  0.765719825552864  0.4983132832647429  1.0000
  H   H9        1.0  0.5574278115611339  0.9458300094106279  0.41188096783544376  1.0000
  H   H10       1.0  0.63893893612196  0.7267874439250263  0.1907402425000627  1.0000
  H   H11       1.0  0.19938741063160137  0.7098132010851116  0.2524195511848078  1.0000
  H   H12       1.0  0.2990317101962816  0.8164805832025337  0.13686152735775176  1.0000
  H   H13       1.0  0.003127705321176715  0.205934824926814  0.5400538487042823  1.0000
  H   H14       1.0  0.5587133775456862  0.23800231083694004  0.574592830435819  1.0000
  H   H15       1.0  0.6796910088630881  0.13007164050836198  0.5627910310419253  1.0000
  H   H16       1.0  0.8582316927395292  0.5351278434116508  0.7226503474237093  1.0000
  H   H17       1.0  0.41973578237008974  0.5760104456451032  0.70885665778453  1.0000
  H   H18       1.0  0.5611020667476653  0.548493983523997  0.8223480951372437  1.0000
  C   C1        1.0  0.4960168096983891  0.6538168508663347  0.4187610899985827  1.0000
  C   C2        1.0  0.6582916127536861  0.42305997351090946  0.41651030868484906  1.0000
  C   C3        1.0  0.455504590128136  0.4310808393859702  0.6478406225413593  1.0000
  C   C4        1.0  0.47710459246000164  0.7617741758703076  0.36706013565919443  1.0000
  C   C5        1.0  0.42624254454523214  0.3791742993120337  0.7594903518598954  1.0000
  C   C6        1.0  0.6795139402745389  0.36172233448385077  0.3671208915933946  1.0000
  C   C7        1.0  0.43041871873749227  0.8145886402761421  0.26543414134230386  1.0000
  C   C8        1.0  0.426355786975428  0.9148971232312917  0.2194175624704329  1.0000
  C   C9        1.0  0.5050362187996668  0.4228463705653951  0.8123173184642312  1.0000
  C   C10       1.0  0.5011703672613379  0.3662828117237921  0.9158086329168854  1.0000
  C   C11       1.0  0.700722966349275  0.25993233858771  0.4207538802116845  1.0000
  C   C12       1.0  0.6668057399370185  0.21030668339342637  0.36989597708197414  1.0000
  C   C13       1.0  0.639557075755711  0.4104075441667376  0.2653295832206766  1.0000
  C   C14       1.0  0.6183172326136415  0.35981158290580584  0.21553424543136404  1.0000
  C   C15       1.0  0.33645888818115577  0.2832990654183405  0.8116890032164291  1.0000
  C   C16       1.0  0.34513225234289274  0.22752816891381403  0.914333430094544  1.0000
  C   C17       1.0  0.5183946727028967  0.808527835327382  0.4200528545640125  1.0000
  C   C18       1.0  0.5182760606504857  0.9084897035123731  0.37240171691581025  1.0000
  C   C19       1.0  0.4731134371463597  0.9625441813075779  0.2711653671960122  1.0000
  C   C20       1.0  0.4839737314331813  0.0683575195470354  0.2183667361158328  1.0000
  C   C21       1.0  0.43325987839689634  0.26887438963399296  0.9670679032145699  1.0000
  C   C22       1.0  0.4651452395666738  0.21181045900232218  0.07510488865349882  1.0000
  C   C23       1.0  0.6230425687954125  0.2587518148578667  0.2685466667888292  1.0000
  C   C24       1.0  0.5665474012338833  0.206333432359159  0.217143700100614  1.0000
  C   C25       1.0  0.3890840738816975  0.7644115727125894  0.20814470744060998  1.0000
  C   C26       1.0  0.736652906815159  0.20540624985518013  0.5304847381876884  1.0000
  C   C27       1.0  0.5886454071206444  0.5262226683198322  0.7639244717678723  1.0000
  N   N1        1.0  0.43314243024693877  0.11645131267036392  0.12153232938337058  1.0000
  N   N2        1.0  0.5321973432543671  0.2597625033727411  0.1195196676406312  1.0000
  N   N3        1.0  0.5494886422463167  0.110215327394954  0.2695338943323833  1.0000
  O   O1        1.0  0.2674346442343919  0.40996823158756274  0.605558208465048  1.0000
  O   O2        1.0  0.22978369681625574  0.6127874456448269  0.4811567759498628  1.0000
  O   O3        1.0  0.41217275667640507  0.49172456048427193  0.3961440640755995  1.0000
  O   O4        1.0  0.6777829449783395  0.4944704450177825  0.5991164866218242  1.0000
  O   O5        1.0  0.87179222207385  0.4066940116200684  0.47422114488985306  1.0000
  O   O6        1.0  0.782284596325475  0.6102058803015777  0.39660055929019944  1.0000
