data_image0
_chemical_formula_structural       Ba4H48C34O32
_chemical_formula_sum              "Ba4 H48 C34 O32"
_cell_length_a       10.95308769674681
_cell_length_b       12.48236436520037
_cell_length_c       12.482330481020005
_cell_angle_alpha    61.38485627818343
_cell_angle_beta     64.59984831034268
_cell_angle_gamma    64.59985222534007

_space_group_name_H-M_alt    "P 1"
_space_group_IT_number       1

loop_
  _space_group_symop_operation_xyz
  'x, y, z'

loop_
  _atom_site_type_symbol
  _atom_site_label
  _atom_site_symmetry_multiplicity
  _atom_site_fract_x
  _atom_site_fract_y
  _atom_site_fract_z
  _atom_site_occupancy
  Ba  Ba1       1.0  0.4363584862442734  0.907406721332471  0.7209779373919502  1.0000
  Ba  Ba2       1.0  0.06364118081830838  0.27901964904857124  0.09259526356592566  1.0000
  Ba  Ba3       1.0  0.5636401153398367  0.09259473856828042  0.2790212835337654  1.0000
  Ba  Ba4       1.0  0.9363576277903147  0.7209779867007384  0.9074064634948729  1.0000
  H   H1        1.0  0.9470235716655251  0.2481935692597261  0.570169622565686  1.0000
  H   H2        1.0  0.5529695920577707  0.42983185418892583  0.7518068311461903  1.0000
  H   H3        1.0  0.05297129199114179  0.7518068725217758  0.4298338628162668  1.0000
  H   H4        1.0  0.44703264088687417  0.5701677124198383  0.24819272619198074  1.0000
  H   H5        1.0  0.7779629445871449  0.5967073596515534  0.6415998890988772  1.0000
  H   H6        1.0  0.7220382408757614  0.3583992112731238  0.40329431880586236  1.0000
  H   H7        1.0  0.22203998315083595  0.40329312688838587  0.3584013856022281  1.0000
  H   H8        1.0  0.2779626790826626  0.6416012991925085  0.5967052857830095  1.0000
  H   H9        1.0  0.10483393621399978  0.2918613416003097  0.8036479359216031  1.0000
  H   H10       1.0  0.395165025092055  0.1963463055087971  0.7081408797634197  1.0000
  H   H11       1.0  0.8951635594084023  0.708137238005861  0.19635383838989637  1.0000
  H   H12       1.0  0.604833369467528  0.8036589785433962  0.2918558350272205  1.0000
  H   H13       1.0  0.810176295547208  0.4861089414523789  0.42111097207190096  1.0000
  H   H14       1.0  0.6898199902071341  0.5788912174470155  0.5138872098110808  1.0000
  H   H15       1.0  0.18982169983058828  0.5138944333132188  0.5788867803293485  1.0000
  H   H16       1.0  0.31017598840116994  0.4211121429366712  0.4861112973315115  1.0000
  H   H17       1.0  0.2764878355347234  0.7407104548650808  0.022474093487438996  1.0000
  H   H18       1.0  0.22351419899141678  0.9775239629100271  0.2592889165150611  1.0000
  H   H19       1.0  0.7235126852419069  0.2592881463139562  0.977526548712042  1.0000
  H   H20       1.0  0.7764856209985922  0.022473692799437107  0.7407116248905364  1.0000
  H   H21       1.0  0.25406123417718607  0.6969762072529875  0.93365153537831  1.0000
  H   H22       1.0  0.24593883095796096  0.0663455502516541  0.3030236598739008  1.0000
  H   H23       1.0  0.7459372728266019  0.3030223923133448  0.06634905327798889  1.0000
  H   H24       1.0  0.7540612936335265  0.9336511544099934  0.6969772116516708  1.0000
  H   H25       1.0  0.7805081811719318  0.8902339830440339  0.5174019556078093  1.0000
  H   H26       1.0  0.7194917325176887  0.48259924469592613  0.1097645904449963  1.0000
  H   H27       1.0  0.2194896250452345  0.10976367105272539  0.482598532254613  1.0000
  H   H28       1.0  0.28050887984261397  0.5174022040483238  0.8902354923084345  1.0000
  H   H29       1.0  0.7986813507614978  0.7810492967226569  0.6500784915837481  1.0000
  H   H30       1.0  0.701315753701806  0.3499242306649749  0.21895052197059064  1.0000
  H   H31       1.0  0.2013171562422968  0.21894930284367575  0.34992209707255734  1.0000
  H   H32       1.0  0.29868214409903254  0.6500762709969977  0.7810494064457669  1.0000
  H   H33       1.0  0.4026394095894615  0.046758936770452  0.9098874818642172  1.0000
  H   H34       1.0  0.09735936345925471  0.09011269812335597  0.9532403155949183  1.0000
  H   H35       1.0  0.597361205767484  0.9532425247430042  0.09011179260468792  1.0000
  H   H36       1.0  0.9026384427579115  0.9098849559734035  0.046760172267504264  1.0000
  H   H37       1.0  0.5582451958781784  0.9597816891294928  0.8776254139898255  1.0000
  H   H38       1.0  0.941754475374239  0.12237828887074897  0.040214638827073795  1.0000
  H   H39       1.0  0.4417546241118373  0.04021596657997149  0.1223751274157792  1.0000
  H   H40       1.0  0.05824381561509986  0.8776240965394208  0.9597858685477262  1.0000
  H   H41       1.0  0.5877854998645944  0.6735986891408885  0.948518228066696  1.0000
  H   H42       1.0  0.9122137741582177  0.05148005932255729  0.3264031030451236  1.0000
  H   H43       1.0  0.412213403324344  0.3264018069428403  0.05148213126351908  1.0000
  H   H44       1.0  0.08778504044369838  0.9485176019651576  0.6735970074466237  1.0000
  H   H45       1.0  0.6865701399360447  0.6619816128506812  0.8216844306035965  1.0000
  H   H46       1.0  0.8134295700702411  0.1783130167780698  0.3380164599258889  1.0000
  H   H47       1.0  0.31343038383723604  0.3380170010975548  0.17831540331136603  1.0000
  H   H48       1.0  0.1865699513115828  0.821685615517623  0.6619821347906908  1.0000
  C   C1        1.0  0.1351763212037653  0.12528822487112734  0.7118837017565268  1.0000
  C   C2        1.0  0.36482038743498896  0.2881136248152387  0.8747155222369115  1.0000
  C   C3        1.0  0.8648172384566166  0.8747131990748541  0.2881174060225503  1.0000
  C   C4        1.0  0.6351829424814285  0.7118887837804948  0.1252839065690521  1.0000
  C   C5        1.0  0.03435628629431159  0.2561577304434479  0.6905060426053069  1.0000
  C   C6        1.0  0.4656445446093825  0.30949267698387933  0.7438433882799769  1.0000
  C   C7        1.0  0.9656423122931485  0.7438437166880972  0.3094939866049342  1.0000
  C   C8        1.0  0.5343561593345852  0.6905116193255907  0.2561561350273889  1.0000
  C   C9        1.0  0.9438731315398241  0.3059381206489249  0.6154310029849056  1.0000
  C   C10       1.0  0.5561315935189696  0.3845642851723596  0.694065072426838  1.0000
  C   C11       1.0  0.05612849220187133  0.6940633480554795  0.38456789411332426  1.0000
  C   C12       1.0  0.44387568434604674  0.6154353301603805  0.30593178977344576  1.0000
  C   C13       1.0  0.8496138289067973  0.4282232809332385  0.5983579894561755  1.0000
  C   C14       1.0  0.6503796946184793  0.401643040742016  0.5717779309637901  1.0000
  C   C15       1.0  0.15038345669444195  0.5717791100551749  0.401642087004774  1.0000
  C   C16       1.0  0.3496220296968173  0.5983613138352197  0.4282179818348055  1.0000
  C   C17       1.0  0.8492352324700145  0.5007097779867352  0.6559321563072942  1.0000
  C   C18       1.0  0.6507678176469651  0.3440677415347579  0.4992904375787786  1.0000
  C   C19       1.0  0.15076598609660147  0.49928975589266855  0.344069394970596  1.0000
  C   C20       1.0  0.34922987013271  0.6559365715094573  0.500707792987029  1.0000
  C   C21       1.0  0.9402462858449069  0.4523791259492428  0.7306288585902505  1.0000
  C   C22       1.0  0.5597578029230873  0.26936942813200904  0.5476193618207005  1.0000
  C   C23       1.0  0.059754844134680137  0.5476175731341543  0.26937244384917136  1.0000
  C   C24       1.0  0.4402417950591796  0.7306319878828873  0.4523827148724423  1.0000
  C   C25       1.0  0.03203077104372197  0.3300056718642566  0.7476993194881415  1.0000
  C   C26       1.0  0.4679713352826765  0.2522989391203438  0.6699927386362035  1.0000
  C   C27       1.0  0.9679697467362656  0.6699929165455742  0.2523021309958653  1.0000
  C   C28       1.0  0.5320279551014689  0.7477034151731701  0.33000981622149805  1.0000
  C   C29       1.0  0.7499975632051915  0.4806057492595812  0.5193911663349624  1.0000
  C   C30       1.0  0.2500011389525126  0.5193985965139873  0.4806050702911265  1.0000
  C   C31       1.0  0.9423493897759201  0.5302194367151927  0.7908398010731615  1.0000
  C   C32       1.0  0.5576462312283752  0.20915908131361502  0.4697776489484441  1.0000
  C   C33       1.0  0.05765173720702419  0.4697772495989979  0.209162309650786  1.0000
  C   C34       1.0  0.4423517641494214  0.7908442934519826  0.5302201034528125  1.0000
  O   O1        1.0  0.19193839759106615  0.07746218253305412  0.8007504027900934  1.0000
  O   O2        1.0  0.30806018493684206  0.19924452734756673  0.9225420549847811  1.0000
  O   O3        1.0  0.8080578856187158  0.9225402268028092  0.19924843447247276  1.0000
  O   O4        1.0  0.6919402084123548  0.8007606944713217  0.07745875477166904  1.0000
  O   O5        1.0  0.16344053992541768  0.0669473534406535  0.639160248179145  1.0000
  O   O6        1.0  0.33656084646506906  0.3608397864414954  0.9330529001314786  1.0000
  O   O7        1.0  0.8365549389274989  0.9330512117836137  0.3608422808736904  1.0000
  O   O8        1.0  0.6634537797114035  0.6391588643340854  0.066945692016702  1.0000
  O   O9        1.0  0.012758147648341355  0.47895677956505983  0.8701468776545696  1.0000
  O   O10       1.0  0.48723435199147497  0.1298532793229015  0.5210428476412544  1.0000
  O   O11       1.0  0.9872463150836026  0.5210390028125785  0.12985281450828268  1.0000
  O   O12       1.0  0.5127678839498202  0.8701463000550689  0.478955901412391  1.0000
  O   O13       1.0  0.8719423357721967  0.6485400718824578  0.7594893255929447  1.0000
  O   O14       1.0  0.6280603454315427  0.24051519686570094  0.35145597301527687  1.0000
  O   O15       1.0  0.12806009221038292  0.3514556194980543  0.2405159710184107  1.0000
  O   O16       1.0  0.37194320948925963  0.7594834641937993  0.6485411122186163  1.0000
  O   O17       1.0  0.24978280692972293  0.7727050485443738  0.9453507883986062  1.0000
  O   O18       1.0  0.2502160091182759  0.054646207191233  0.22729524688142516  1.0000
  O   O19       1.0  0.7502177138469079  0.22729355263466292  0.05464985380087464  1.0000
  O   O20       1.0  0.7497834146865897  0.9453495520008346  0.7727055238502627  1.0000
  O   O21       1.0  0.7390518115183012  0.867317931131481  0.6116666864562603  1.0000
  O   O22       1.0  0.7609459057578932  0.38833536403629404  0.13268001297757331  1.0000
  O   O23       1.0  0.26094690550665683  0.1326768570526085  0.3883356000505954  1.0000
  O   O24       1.0  0.23905199503959562  0.6116651503948842  0.8673191071542659  1.0000
  O   O25       1.0  0.45900514031215056  0.963067517949149  0.9008308489760991  1.0000
  O   O26       1.0  0.040993841939979285  0.09916944586270662  0.03693102502683129  1.0000
  O   O27       1.0  0.5409927574886878  0.0369329837128305  0.09916907944026582  1.0000
  O   O28       1.0  0.9590053688470801  0.9008301119424046  0.9630688561388254  1.0000
  O   O29       1.0  0.5851446531358061  0.6814326066277446  0.8668167577089319  1.0000
  O   O30       1.0  0.9148544248687854  0.1331832443344965  0.31856684291277293  1.0000
  O   O31       1.0  0.41485556303934595  0.3185669455991161  0.13318355437058207  1.0000
  O   O32       1.0  0.08514378053017417  0.8668163190488585  0.6814326073390332  1.0000
