data_image0
_chemical_formula_structural       Zn2H8C32N2Cl2O8F10
_chemical_formula_sum              "Zn2 H8 C32 N2 Cl2 O8 F10"
_cell_length_a       9.9640777239152
_cell_length_b       10.938322877344106
_cell_length_c       11.02750280109567
_cell_angle_alpha    89.43851438821397
_cell_angle_beta     90.90260460305059
_cell_angle_gamma    83.13448506040308

_space_group_name_H-M_alt    "P 1"
_space_group_IT_number       1

loop_
  _space_group_symop_operation_xyz
  'x, y, z'

loop_
  _atom_site_type_symbol
  _atom_site_label
  _atom_site_symmetry_multiplicity
  _atom_site_fract_x
  _atom_site_fract_y
  _atom_site_fract_z
  _atom_site_occupancy
  Zn  Zn1       1.0  0.6425219517163258  0.4681430265088834  0.5068034378840949  1.0000
  Zn  Zn2       1.0  0.3478296884223084  0.5032645531052677  0.5039710190650979  1.0000
  H   H1        1.0  0.8848386794219892  0.4250503315747025  0.7516060759047676  1.0000
  H   H2        1.0  0.13002816967586742  0.4075874296496875  0.24314600940681427  1.0000
  H   H3        1.0  0.8199912069604522  0.6590527052580625  0.4974963776270656  1.0000
  H   H4        1.0  0.1711280716915056  0.3091405158675755  0.508746906852231  1.0000
  H   H5        1.0  0.06152240794786931  0.24441226306157654  0.7959243118007534  1.0000
  H   H6        1.0  0.0177293999452317  0.6248768983337882  0.2133279254908516  1.0000
  H   H7        1.0  0.34361689999729356  0.11985668770931569  0.6317349697545538  1.0000
  H   H8        1.0  0.6597287826788829  0.8510292654129756  0.3763539869432293  1.0000
  C   C1        1.0  0.4954688982718807  0.25190972949801704  0.495283394531036  1.0000
  C   C2        1.0  0.5007993234677317  0.7194299733808265  0.5131938335759187  1.0000
  C   C3        1.0  0.4926798631230796  0.5027178006078257  0.1355444735024847  1.0000
  C   C4        1.0  0.49593256384550705  0.48412173973304096  0.8759852383710865  1.0000
  C   C5        1.0  0.6159960466267336  0.4876989076631017  0.0738670331878097  1.0000
  C   C6        1.0  0.37268200310182936  0.49573085974205344  0.9381931490075458  1.0000
  C   C7        1.0  0.4116601414501844  0.06126219868886551  0.574526683755586  1.0000
  C   C8        1.0  0.5907691822560892  0.9087824113442408  0.4336694014912581  1.0000
  C   C9        1.0  0.4136630950569399  0.9346619001303298  0.5795317163040606  1.0000
  C   C10       1.0  0.5882532813280861  0.03593588070579298  0.4277420250370554  1.0000
  C   C11       1.0  0.5021530766526254  0.8562365987427326  0.5100162367659351  1.0000
  C   C12       1.0  0.49952266865135914  0.114841753720853  0.4973620148452298  1.0000
  C   C13       1.0  0.0360904573187426  0.596825138573081  0.4992815830247181  1.0000
  C   C14       1.0  0.9546194724500694  0.3713026649609643  0.505281162335983  1.0000
  C   C15       1.0  0.898741241243805  0.5808856461029561  0.49800972850445646  1.0000
  C   C16       1.0  0.09210728279004601  0.3872020863024515  0.5055227979510873  1.0000
  C   C17       1.0  0.49898231311441077  0.4778835937751038  0.7393174930409572  1.0000
  C   C18       1.0  0.48920374105229314  0.5017570060322142  0.2721328983287705  1.0000
  C   C19       1.0  0.014533124128142609  0.557343763051648  0.8077466774587165  1.0000
  C   C20       1.0  0.9509912349867663  0.3280435372847562  0.19203031697654888  1.0000
  C   C21       1.0  0.1403422611618623  0.5776044315560398  0.8556036665625939  1.0000
  C   C22       1.0  0.8170848794561182  0.3493965767143407  0.150559423584518  1.0000
  C   C23       1.0  0.2404148683301344  0.4796496159634174  0.8802340848701249  1.0000
  C   C24       1.0  0.7524940126578628  0.4689249195507088  0.1325791196381232  1.0000
  C   C25       1.0  0.20743325066735  0.3612776721340367  0.8563815489357934  1.0000
  C   C26       1.0  0.8284945864027051  0.5652970889644279  0.15804812745453486  1.0000
  C   C27       1.0  0.08253274560716761  0.33869615960706767  0.8102511230247131  1.0000
  C   C28       1.0  0.9619318527702136  0.5464637295087228  0.19863957600190218  1.0000
  C   C29       1.0  0.9850016654742793  0.4386946055944064  0.7853207420110095  1.0000
  C   C30       1.0  0.024064424701293826  0.4256794827643515  0.21542976641272563  1.0000
  C   C31       1.0  0.3745276022473547  0.5110912960178382  0.0636317107867654  1.0000
  C   C32       1.0  0.6133919328327053  0.483089847610003  0.9473201473951747  1.0000
  N   N1        1.0  0.858139368881119  0.4682851039871849  0.5018853690054641  1.0000
  N   N2        1.0  0.13268383080949064  0.4997723825223728  0.5030688398071916  1.0000
  Cl  Cl1       1.0  0.08107776938950202  0.7416976982476696  0.4965549244780263  1.0000
  Cl  Cl2       1.0  0.9098104192535742  0.2264403957739702  0.5129593388363674  1.0000
  O   O1        1.0  0.6029281079873884  0.29644279576887556  0.46695203847519906  1.0000
  O   O2        1.0  0.389345990904971  0.68111858295223  0.4858925697690211  1.0000
  O   O3        1.0  0.384155635957683  0.3134284762691307  0.5247862743434268  1.0000
  O   O4        1.0  0.6120272732227436  0.6546217257139231  0.5407036530294532  1.0000
  O   O5        1.0  0.6088787866586713  0.4364680102294614  0.6890597792803845  1.0000
  O   O6        1.0  0.3797209642299393  0.48019489633548307  0.3215368349562269  1.0000
  O   O7        1.0  0.3882502432287539  0.5171156063935526  0.6853020645311787  1.0000
  O   O8        1.0  0.5978327597376989  0.5199599155655433  0.3272696231625146  1.0000
  F   F1        1.0  0.92104382914696  0.6558842602860864  0.7832349412098409  1.0000
  F   F2        1.0  0.009660641339436902  0.2100746509371021  0.2070531102182258  1.0000
  F   F3        1.0  0.16617370285720776  0.6939883263607171  0.8768978752780825  1.0000
  F   F4        1.0  0.7494150226364908  0.25235556824802063  0.1254822844453543  1.0000
  F   F5        1.0  0.3030786527985896  0.2637239321513434  0.8801737840064304  1.0000
  F   F6        1.0  0.7681560355157941  0.6827982204453775  0.1410552013489337  1.0000
  F   F7        1.0  0.2522848755170132  0.5328403962657331  0.1164958566174121  1.0000
  F   F8        1.0  0.7349680726169794  0.4761504048799097  0.8933013235993243  1.0000
  F   F9        1.0  0.3282903994113298  0.8854151772635318  0.65644786504145  1.0000
  F   F10       1.0  0.6734743428903301  0.0821764311000734  0.34923690651208256  1.0000
