data_image0
_chemical_formula_structural       Hg4H16C16S2O8
_chemical_formula_sum              "Hg4 H16 C16 S2 O8"
_cell_length_a       5.208743186159703
_cell_length_b       6.528994296296738
_cell_length_c       17.03138998921597
_cell_angle_alpha    90.00031881550183
_cell_angle_beta     90.0003728470293
_cell_angle_gamma    105.57996179774257

_space_group_name_H-M_alt    "P 1"
_space_group_IT_number       1

loop_
  _space_group_symop_operation_xyz
  'x, y, z'

loop_
  _atom_site_type_symbol
  _atom_site_label
  _atom_site_symmetry_multiplicity
  _atom_site_fract_x
  _atom_site_fract_y
  _atom_site_fract_z
  _atom_site_occupancy
  Hg  Hg1       1.0  0.8970401358283481  0.7345755976143806  0.5621836112363214  1.0000
  Hg  Hg2       1.0  0.10295865475612939  0.2654263369373737  0.0621855585074513  1.0000
  Hg  Hg3       1.0  0.1029585133078683  0.2654254804844243  0.43781608567606173  1.0000
  Hg  Hg4       1.0  0.8970399944050412  0.7345747411797279  0.9378158998583432  1.0000
  H   H1        1.0  0.24055837160762647  0.46842935117449974  0.6722312430647008  1.0000
  H   H2        1.0  0.7594331534228472  0.5315669430471601  0.17223094329116156  1.0000
  H   H3        1.0  0.7594361898997376  0.5315653726935067  0.32777021529034306  1.0000
  H   H4        1.0  0.24055811484443274  0.46842938269880835  0.8277699279111632  1.0000
  H   H5        1.0  0.22764401121784053  0.8109032141304766  0.35993705677407933  1.0000
  H   H6        1.0  0.7723629640692024  0.18909854016082048  0.859943695211989  1.0000
  H   H7        1.0  0.7723647695329274  0.18909942437022664  0.6400591172431689  1.0000
  H   H8        1.0  0.22763843585422452  0.8108993460175429  0.1400565888508964  1.0000
  H   H9        1.0  0.5282571804918988  0.7825621400956708  0.3155234517275006  1.0000
  H   H10       1.0  0.4717504541643577  0.21743868555302737  0.8155266175613464  1.0000
  H   H11       1.0  0.4717529756899097  0.21743890247226008  0.6844756580451233  1.0000
  H   H12       1.0  0.5282490279250637  0.7825592065522358  0.1844742536507766  1.0000
  H   H13       1.0  0.5257518491389845  0.02789424016951611  0.3576754092417006  1.0000
  H   H14       1.0  0.4742531441971566  0.9721074730376886  0.8576801689280202  1.0000
  H   H15       1.0  0.4742544713415455  0.9721068142278146  0.6423225262248522  1.0000
  H   H16       1.0  0.5257449625277815  0.027892015049133103  0.14232246373783405  1.0000
  C   C1        1.0  0.9834385665607781  0.6813042859664052  0.6764238761892047  1.0000
  C   C2        1.0  0.016561833529010517  0.3186952517505475  0.17642282841797652  1.0000
  C   C3        1.0  0.016563375840469567  0.3186951902727346  0.3235781693293022  1.0000
  C   C4        1.0  0.9834343552787387  0.681304242202181  0.8235745198857388  1.0000
  C   C5        1.0  0.13471428587324408  0.5570442641413964  0.7081331747695361  1.0000
  C   C6        1.0  0.8652787988795365  0.4429543659922217  0.20813407276208556  1.0000
  C   C7        1.0  0.86528081807036  0.4429520497568832  0.29186710928544823  1.0000
  C   C8        1.0  0.1347097186171737  0.5570451516863885  0.7918673855920063  1.0000
  C   C9        1.0  0.5341381351242375  0.7878886937843744  0.4415900966850118  1.0000
  C   C10       1.0  0.46585910415500825  0.21211320226382208  0.9415914781719084  1.0000
  C   C11       1.0  0.46585859616966013  0.2121123902352267  0.5584096002254739  1.0000
  C   C12       1.0  0.5341409203540197  0.7878862798595139  0.05840704443787811  1.0000
  C   C13       1.0  0.4449211417633307  0.8548387561388892  0.3640056888301899  1.0000
  C   C14       1.0  0.5550826555409999  0.14516468453793857  0.8640100421602955  1.0000
  C   C15       1.0  0.5550843457889413  0.1451654842702794  0.6359928337900271  1.0000
  C   C16       1.0  0.44491928685193477  0.8548347916950974  0.13599141620707664  1.0000
  S   S1        1.0  0.8453883648279825  0.7975366251647384  0.7499997705798978  1.0000
  S   S2        1.0  0.1546111172531255  0.2024612669344208  0.2500005134810905  1.0000
  O   O1        1.0  0.7921758882093923  0.811919738906802  0.4473104043778947  1.0000
  O   O2        1.0  0.20782726667748355  0.18808225821776156  0.9473118103931885  1.0000
  O   O3        1.0  0.20782084310945945  0.1880813451310956  0.5526910539860028  1.0000
  O   O4        1.0  0.7921809716952736  0.8119187902953586  0.05268964798208491  1.0000
  O   O5        1.0  0.37628207134322617  0.7161890472172985  0.4965595412018615  1.0000
  O   O6        1.0  0.6237183528579634  0.2838187609752937  0.9965643226502084  1.0000
  O   O7        1.0  0.6237089063904476  0.2838120545402916  0.5034378070983794  1.0000
  O   O8        1.0  0.3762865922663962  0.7161838894096987  0.003435961421210701  1.0000
