data_image0
_chemical_formula_structural       Al6H62C96O28
_chemical_formula_sum              "Al6 H62 C96 O28"
_cell_length_a       13.110881332349683
_cell_length_b       13.139927609106202
_cell_length_c       28.48737391496472
_cell_angle_alpha    89.69476724840642
_cell_angle_beta     89.79045666652814
_cell_angle_gamma    59.43057116039459

_space_group_name_H-M_alt    "P 1"
_space_group_IT_number       1

loop_
  _space_group_symop_operation_xyz
  'x, y, z'

loop_
  _atom_site_type_symbol
  _atom_site_label
  _atom_site_symmetry_multiplicity
  _atom_site_fract_x
  _atom_site_fract_y
  _atom_site_fract_z
  _atom_site_occupancy
  Al  Al1       1.0  0.7743958470745935  0.47236819051776296  0.4991778954315863  1.0000
  Al  Al2       1.0  0.7570245842110594  0.725034411382758  0.5000084416370072  1.0000
  Al  Al3       1.0  0.5300510673953766  0.7211322663504305  0.5007947505186721  1.0000
  Al  Al4       1.0  0.5255284135728359  0.22513599343064788  0.002314468976486201  1.0000
  Al  Al5       1.0  0.272188042069473  0.2426038968685163  0.0005297186205482002  1.0000
  Al  Al6       1.0  0.27578087578802957  0.4687831721602082  0.9996160168797632  1.0000
  H   H1        1.0  0.3329598762035032  0.9707578134142879  0.7789270549674188  1.0000
  H   H2        1.0  0.876026077772394  0.6913334391141464  0.2060010222199722  1.0000
  H   H3        1.0  0.6864360959806673  0.4383618728916333  0.20996971655603153  1.0000
  H   H4        1.0  0.42776429663026516  0.87650665419514  0.21847469032147157  1.0000
  H   H5        1.0  0.527964988415718  0.7667938080942422  0.7394268624460807  1.0000
  H   H6        1.0  0.6552504151531405  0.5487227713550811  0.7325623831391754  1.0000
  H   H7        1.0  0.7755527908391497  0.6368027271796495  0.7405800744599915  1.0000
  H   H8        1.0  0.21224759722698386  0.4440535489338303  0.2305541926360064  1.0000
  H   H9        1.0  0.44306016009068827  0.3482322792545176  0.23448657012160376  1.0000
  H   H10       1.0  0.33741149770653317  0.2115395334483311  0.2417177459871596  1.0000
  H   H11       1.0  0.6820648863687282  0.7956699947222818  0.800534908333546  1.0000
  H   H12       1.0  0.700461004006726  0.340082172669206  0.7805636124644268  1.0000
  H   H13       1.0  0.44873524071605414  0.6810025338847866  0.7890583730229326  1.0000
  H   H14       1.0  0.8900619933853234  0.4176996043000685  0.7893790339352336  1.0000
  H   H15       1.0  0.13503676600196707  0.31778748501309206  0.2877823050479052  1.0000
  H   H16       1.0  0.3110861912974983  0.554587808554743  0.29012121570513477  1.0000
  H   H17       1.0  0.5490248142154215  0.13299991750408685  0.29381135052702934  1.0000
  H   H18       1.0  0.5138404192361816  0.14043527915364964  0.7699664730834003  1.0000
  H   H19       1.0  0.35930689316000997  0.4366130124080031  0.7676614144121461  1.0000
  H   H20       1.0  0.20255896812128069  0.3952620030310997  0.7684335957166937  1.0000
  H   H21       1.0  0.7984657507070166  0.5656034385151331  0.263150729505881  1.0000
  H   H22       1.0  0.5552027960986334  0.6447959476597946  0.2656106876277633  1.0000
  H   H23       1.0  0.9133957925098027  0.7095196341548945  0.7914189680169131  1.0000
  H   H24       1.0  0.6393190800165979  0.7977313639209174  0.2707947616303841  1.0000
  H   H25       1.0  0.7475469619187007  0.051323425504392624  0.7779467444915228  1.0000
  H   H26       1.0  0.8133402045329985  0.9039787708432317  0.7982162585777604  1.0000
  H   H27       1.0  0.8887539447031254  0.942671214156896  0.7564349556021243  1.0000
  H   H28       1.0  0.8000919468192718  0.8400559265501006  0.7141200673096081  1.0000
  H   H29       1.0  0.7268689858703677  0.9892590221634455  0.6967012427998469  1.0000
  H   H30       1.0  0.18081340777137453  0.6700099489810897  0.776696783371513  1.0000
  H   H31       1.0  0.21873404245827985  0.7812698280555499  0.7783872767171689  1.0000
  H   H32       1.0  0.10339668982751946  0.7979821573868054  0.7408717951732909  1.0000
  H   H33       1.0  0.2923941379303654  0.73706120815335  0.6949759541573997  1.0000
  H   H34       1.0  0.04524885543817459  0.6570863585438859  0.2753354169385532  1.0000
  H   H35       1.0  0.24866768482566912  0.6313172831570599  0.6902339544861463  1.0000
  H   H36       1.0  0.19738584958457742  0.19000747375623217  0.7690786536420404  1.0000
  H   H37       1.0  0.05793220099576498  0.19968397311922104  0.7724871120153125  1.0000
  H   H38       1.0  0.16486131976049012  0.10371589221982452  0.7310142139110383  1.0000
  H   H39       1.0  0.006317051646938337  0.2906991209243374  0.6912826518598792  1.0000
  H   H40       1.0  0.14656915274949966  0.2766892744672518  0.6859854970593062  1.0000
  H   H41       1.0  0.9929599609900562  0.22697346259946735  0.27904269741569726  1.0000
  H   H42       1.0  0.8436767240439522  0.3405726250640201  0.27210005751534544  1.0000
  H   H43       1.0  0.8999319265341367  0.20841311671388507  0.23911599290717334  1.0000
  H   H44       1.0  0.8890973302700755  0.36698342752792007  0.18659694999983867  1.0000
  H   H45       1.0  0.6534140413351677  0.30437976205286094  0.28056518434124916  1.0000
  H   H46       1.0  0.038124486081201794  0.25812300447701386  0.19561679784935393  1.0000
  H   H47       1.0  0.21192413952856254  0.7879806945153478  0.2784513992294322  1.0000
  H   H48       1.0  0.3254996751054121  0.8226248568727573  0.2743507333177888  1.0000
  H   H49       1.0  0.1963418345759677  0.90068106214752  0.23927425359809013  1.0000
  H   H50       1.0  0.35960316749385857  0.7520619680642682  0.1884046573242202  1.0000
  H   H51       1.0  0.25255852529940626  0.710446861493793  0.1956814257761295  1.0000
  H   H52       1.0  0.7852447412661544  0.9876572182255433  0.2797308535995953  1.0000
  H   H53       1.0  0.8202386906512583  0.8396148565627614  0.2729505297358088  1.0000
  H   H54       1.0  0.8918989111184671  0.8959548529944572  0.2373324170922473  1.0000
  H   H55       1.0  0.7352229866705497  0.889974126157043  0.189436375241435  1.0000
  H   H56       1.0  0.29891641219188597  0.04399845994914392  0.2896501180959987  1.0000
  H   H57       1.0  0.6959163433257344  0.03759556525198351  0.1983521719504751  1.0000
  H   H58       1.0  0.3595864918090186  0.11101984835804764  0.7090554677074081  1.0000
  H   H59       1.0  0.5656607167843503  0.304451412748172  0.7115922558626622  1.0000
  H   H60       1.0  0.08680417927713796  0.6151855859024168  0.7194613629688293  1.0000
  H   H61       1.0  0.8627044386012341  0.2790248651725166  0.5277575329720818  1.0000
  H   H62       1.0  0.7201695182159822  0.1331315712379251  0.9744635357265139  1.0000
  C   C1        1.0  0.5655378394570504  0.5498048615060469  0.5657218579734576  1.0000
  C   C2        1.0  0.025895140856078906  0.49029285492966335  0.19931136859041493  1.0000
  C   C3        1.0  0.4864153614372879  0.48898993085162357  0.202661714515358  1.0000
  C   C4        1.0  0.47570479732033977  0.026160529844560215  0.2085898506326842  1.0000
  C   C5        1.0  0.6105751988501351  0.865500435117987  0.7797179507192311  1.0000
  C   C6        1.0  0.47500369439772056  0.5977091362506929  0.7711878707994659  1.0000
  C   C7        1.0  0.9337697970155358  0.4615889835693068  0.7734899000705087  1.0000
  C   C8        1.0  0.07790910800547832  0.4007354148527966  0.26917457441444986  1.0000
  C   C9        1.0  0.39432852050309436  0.528686911923842  0.27186376915601335  1.0000
  C   C10       1.0  0.521816744603008  0.07628020237569193  0.276655303306093  1.0000
  C   C11       1.0  0.5246140448722226  0.8499543953093893  0.7467290857306638  1.0000
  C   C12       1.0  0.8884632267447187  0.5599037267578809  0.5680751914656597  1.0000
  C   C13       1.0  0.5892537088264688  0.5240952275455372  0.7411307939922837  1.0000
  C   C14       1.0  0.8706496713292322  0.582943317062096  0.7472465614367608  1.0000
  C   C15       1.0  0.12023584641362811  0.47096344515222216  0.23845906219639806  1.0000
  C   C16       1.0  0.4677538617259811  0.41438659340506234  0.24211480616738612  1.0000
  C   C17       1.0  0.4046288627416742  0.11935843603280465  0.24863679332449357  1.0000
  C   C18       1.0  0.4829815507375272  0.010960375017134502  0.8498758337905487  1.0000
  C   C19       1.0  0.48778674954665735  0.4687925508832721  0.8462822586884684  1.0000
  C   C20       1.0  0.040608770234413706  0.4827637012276471  0.8501396214179736  1.0000
  C   C21       1.0  0.9604677347802237  0.5327943573193397  0.3432350367988519  1.0000
  C   C22       1.0  0.525392028284649  0.5172175295945821  0.3458398282544266  1.0000
  C   C23       1.0  0.5785740233448493  0.8510526915073696  0.5686433953308665  1.0000
  C   C24       1.0  0.5170359801734961  0.9558610221185618  0.3522077496377279  1.0000
  C   C25       1.0  0.5523240238354816  0.9056559674982979  0.6588504569465101  1.0000
  C   C26       1.0  0.5249646445145755  0.516668656331632  0.6538298257034825  1.0000
  C   C27       1.0  0.9454831681165671  0.5426108316264122  0.6581136062795281  1.0000
  C   C28       1.0  0.05105541894867116  0.47401008444971643  0.1507755624981115  1.0000
  C   C29       1.0  0.47314873318832423  0.47801175154948095  0.1541744813276438  1.0000
  C   C30       1.0  0.46200387321170655  0.04980199800402122  0.1598478374197256  1.0000
  C   C31       1.0  0.5691178310604242  0.5546752633873455  0.4326602796211318  1.0000
  C   C32       1.0  0.8902431875089997  0.5613999350655664  0.43201535526121404  1.0000
  C   C33       1.0  0.5648412406486757  0.8708451768313382  0.43861109295036027  1.0000
  C   C34       1.0  0.4411781895591955  0.4356998554417404  0.0665055608037903  1.0000
  C   C35       1.0  0.4488156889770705  0.42739678648439405  0.9334821264647458  1.0000
  C   C36       1.0  0.44179506755073544  0.10032145141476437  0.9357457681496301  1.0000
  C   C37       1.0  0.13243156063657563  0.43049895822490225  0.9354524041982872  1.0000
  C   C38       1.0  0.4307161322450596  0.04160863124818801  0.7300783846154604  1.0000
  C   C39       1.0  0.5396594266986768  0.3878304763662968  0.7292879319342661  1.0000
  C   C40       1.0  0.04377799118476837  0.5710134139268138  0.7354576441857148  1.0000
  C   C41       1.0  0.9332030609281219  0.6087162498628872  0.2246939868594282  1.0000
  C   C42       1.0  0.6034996072631668  0.4643075387891076  0.2283654719976198  1.0000
  C   C43       1.0  0.45466651440145955  0.9331902663165511  0.2357097188782831  1.0000
  C   C44       1.0  0.41643690323228794  0.9630285894863849  0.7677879865034499  1.0000
  C   C45       1.0  0.4358424180559125  0.11372126304573274  0.07028571707260771  1.0000
  C   C46       1.0  0.6148015369436589  0.4078628875830433  0.7665837918861342  1.0000
  C   C47       1.0  0.9467273926002308  0.62382636516611  0.7745703607727423  1.0000
  C   C48       1.0  0.027753458094160438  0.5892430221964703  0.26240674983145607  1.0000
  C   C49       1.0  0.5847424415584397  0.3895626082699622  0.2665797800054222  1.0000
  C   C50       1.0  0.38288582695097517  0.026720801487613206  0.2743940034591645  1.0000
  C   C51       1.0  0.4655852646414188  0.044034728421444014  0.8905591584076263  1.0000
  C   C52       1.0  0.472875701338033  0.456064943272928  0.8876285801450268  1.0000
  C   C53       1.0  0.07344400392624097  0.46242757492606057  0.8909031677867106  1.0000
  C   C54       1.0  0.936232780326243  0.543238278826536  0.38494653261899  1.0000
  C   C55       1.0  0.5392454646954546  0.5324592199348928  0.38691929696861393  1.0000
  C   C56       1.0  0.13024598864085132  0.4294803239641214  0.0636020646885029  1.0000
  C   C57       1.0  0.533988567920154  0.9274648330756394  0.3935601278125134  1.0000
  C   C58       1.0  0.5595216283772757  0.8900788825006459  0.6164809584156927  1.0000
  C   C59       1.0  0.5366878153636278  0.5287509673675714  0.6120724749445687  1.0000
  C   C60       1.0  0.9278122610986014  0.5481925675199621  0.615931590830833  1.0000
  C   C61       1.0  0.07651561822513742  0.45772694166461764  0.10916537967109011  1.0000
  C   C62       1.0  0.4607615678129163  0.4658314688800831  0.11259910106571171  1.0000
  C   C63       1.0  0.4512193364102543  0.07133283145124382  0.11787576243899171  1.0000
  C   C64       1.0  0.5170496332537837  0.05716842730168994  0.7626639166556474  1.0000
  C   C65       1.0  0.4252662694961557  0.46145814849093386  0.7592102030325877  1.0000
  C   C66       1.0  0.1074264371158192  0.4494967020098601  0.7615665863786489  1.0000
  C   C67       1.0  0.5391384509878419  0.9278441027796877  0.7076104126829746  1.0000
  C   C68       1.0  0.8906619074031707  0.538687694860869  0.25544455406712535  1.0000
  C   C69       1.0  0.5303580991768156  0.5786509945882161  0.2580565137105637  1.0000
  C   C70       1.0  0.5718671620971418  0.889854586845431  0.2636608842867787  1.0000
  C   C71       1.0  0.5019329801320467  0.9795486190276109  0.8018659004336045  1.0000
  C   C72       1.0  0.500263843808682  0.48138665762692784  0.797749805238773  1.0000
  C   C73       1.0  0.010472528821864573  0.5019084342215053  0.8020084901731295  1.0000
  C   C74       1.0  0.9850429395524711  0.5191868259462853  0.2945322576564565  1.0000
  C   C75       1.0  0.5115196491238904  0.5042003729712337  0.29752220498939863  1.0000
  C   C76       1.0  0.5003449482548914  0.9832711732741048  0.3037716556721861  1.0000
  C   C77       1.0  0.6260936713408041  0.9434467921458424  0.7416717158563629  1.0000
  C   C78       1.0  0.514269878197865  0.5042084802292452  0.7025343153981967  1.0000
  C   C79       1.0  0.3989868955462013  0.5784528293868407  0.7337212158604418  1.0000
  C   C80       1.0  0.03145835399887886  0.4079445309344508  0.7343538590716463  1.0000
  C   C81       1.0  0.9830497910318028  0.419718083972562  0.23136642280464773  1.0000
  C   C82       1.0  0.41265094130464763  0.6042664852727314  0.2335306212216821  1.0000
  C   C83       1.0  0.5941550731341889  0.9824403976921734  0.2377959337991982  1.0000
  C   C84       1.0  0.7417287389113906  0.930837389089142  0.7270267728272871  1.0000
  C   C85       1.0  0.8012473793755528  0.9585813700417207  0.7670020910430324  1.0000
  C   C86       1.0  0.2809812884546756  0.6720301552698091  0.7154368472977666  1.0000
  C   C87       1.0  0.19098202940220682  0.7336661126167388  0.7549348452795499  1.0000
  C   C88       1.0  0.0778087669824003  0.2900546582439177  0.7117589369988694  1.0000
  C   C89       1.0  0.967598079802748  0.5305692651383681  0.7069303208721608  1.0000
  C   C90       1.0  0.1271651685354698  0.19025344717061907  0.7480123988191283  1.0000
  C   C91       1.0  0.9585772613370975  0.32714378778205616  0.2137570948622027  1.0000
  C   C92       1.0  0.9217775561056526  0.2727290413575859  0.2531095332948112  1.0000
  C   C93       1.0  0.3190484564827471  0.7217238265199273  0.2148565578507018  1.0000
  C   C94       1.0  0.2598578739997634  0.8133990973110913  0.2537875461227941  1.0000
  C   C95       1.0  0.7093648674540629  0.9578112977595911  0.2168734504473164  1.0000
  C   C96       1.0  0.8071269864583003  0.9180878500187007  0.2536785084608866  1.0000
  O   O1        1.0  0.8659261528273062  0.4833256580193251  0.5530279385714821  1.0000
  O   O2        1.0  0.5166139973197729  0.3354733501575141  0.05082046393857811  1.0000
  O   O3        1.0  0.34111532559887775  0.13235258482507825  0.04892977868735931  1.0000
  O   O4        1.0  0.157588709058423  0.5018404027799409  0.045576329860566  1.0000
  O   O5        1.0  0.8731991188107526  0.4830518526555353  0.4497165611792867  1.0000
  O   O6        1.0  0.6649618553188499  0.8459045011964509  0.4558620953840632  1.0000
  O   O7        1.0  0.49163976012007277  0.6517865548927732  0.45260545353924914  1.0000
  O   O8        1.0  0.5170205466197186  0.12385366408584991  0.9517336357879245  1.0000
  O   O9        1.0  0.1586066223150765  0.3301620125248733  0.952822603818362  1.0000
  O   O10       1.0  0.35111498447868417  0.50562337687618  0.9528738918332993  1.0000
  O   O11       1.0  0.6696432804385495  0.4800025215071458  0.4486882151666408  1.0000
  O   O12       1.0  0.6731797358476256  0.8351197352171555  0.5486571061620964  1.0000
  O   O13       1.0  0.8660880709261886  0.6597790154609131  0.4515133175740616  1.0000
  O   O14       1.0  0.4925068722781062  0.8439268502566865  0.45722682297309813  1.0000
  O   O15       1.0  0.5223482979701187  0.3270550640924911  0.950067145371378  1.0000
  O   O16       1.0  0.3423479429420836  0.12598314685475742  0.9552724559509047  1.0000
  O   O17       1.0  0.15925823576219492  0.5030158540445556  0.9533668659790493  1.0000
  O   O18       1.0  0.6861926912827625  0.6413272711540545  0.500186002836557  1.0000
  O   O19       1.0  0.35614926733042285  0.31302123165690443  0.0005200043318467  1.0000
  O   O20       1.0  0.4873959403110957  0.6464126371809231  0.5454456208543874  1.0000
  O   O21       1.0  0.5140830628562439  0.1328908395397974  0.0538598189290482  1.0000
  O   O22       1.0  0.15239311857224888  0.331451085211839  0.0452929286010217  1.0000
  O   O23       1.0  0.34464407833303295  0.5127736579415157  0.045772293662899706  1.0000
  O   O24       1.0  0.6658812572099605  0.475640574428944  0.5493987907040889  1.0000
  O   O25       1.0  0.8750640720637077  0.6508711597794704  0.5450177545884501  1.0000
  O   O26       1.0  0.5025069821216022  0.8298185584049876  0.5502469021013994  1.0000
  O   O27       1.0  0.8578402906597588  0.31792211669308307  0.49826698067936104  1.0000
  O   O28       1.0  0.6803786001104652  0.14322194601862753  0.0041753203546691  1.0000
