data_image0
_chemical_formula_structural       Zn6H26C62Cl6O24F4
_chemical_formula_sum              "Zn6 H26 C62 Cl6 O24 F4"
_cell_length_a       18.569532539068295
_cell_length_b       18.745901972071405
_cell_length_c       18.78301517414154
_cell_angle_alpha    109.31173237937097
_cell_angle_beta     109.1889828190668
_cell_angle_gamma    109.6861899241173

_space_group_name_H-M_alt    "P 1"
_space_group_IT_number       1

loop_
  _space_group_symop_operation_xyz
  'x, y, z'

loop_
  _atom_site_type_symbol
  _atom_site_label
  _atom_site_symmetry_multiplicity
  _atom_site_fract_x
  _atom_site_fract_y
  _atom_site_fract_z
  _atom_site_occupancy
  Zn  Zn1       1.0  0.9400020715650753  0.4937431290784531  0.9463771217537343  1.0000
  Zn  Zn2       1.0  0.06909185043822669  0.499787916219226  0.07376864868973598  1.0000
  Zn  Zn3       1.0  0.48726514677318294  0.051916036293938754  0.05789241020791991  1.0000
  Zn  Zn4       1.0  0.4966600864709818  0.9373991679342949  0.9321194621137465  1.0000
  Zn  Zn5       1.0  0.06050808394806507  0.06573741424986689  0.49466387996596956  1.0000
  Zn  Zn6       1.0  0.9348712971557944  0.9402460193260679  0.4965800803584204  1.0000
  H   H1        1.0  0.26741584261616685  0.7681344878315812  0.15082334673788017  1.0000
  H   H2        1.0  0.8370506326181724  0.17809438770609617  0.535052881181393  1.0000
  H   H3        1.0  0.9105516168008095  0.3712948597801429  0.6588856648089703  1.0000
  H   H4        1.0  0.8198930355320543  0.2831584071449811  0.6455104165343073  1.0000
  H   H5        1.0  0.9147334793872804  0.3729378999667432  0.1911001793691797  1.0000
  H   H6        1.0  0.7875265313785108  0.27072879538516753  0.19015182341801312  1.0000
  H   H7        1.0  0.6220089545687416  0.10829564338577313  0.8452157067784255  1.0000
  H   H8        1.0  0.7380735406610129  0.22647721873467228  0.8447098653423026  1.0000
  H   H9        1.0  0.692870229140688  0.2950562248826856  0.8729442861918529  1.0000
  H   H10       1.0  0.1315875944458966  0.7518154598589887  0.24680374407144973  1.0000
  H   H11       1.0  0.8197121160786766  0.8000142694825526  0.16259844701013293  1.0000
  H   H12       1.0  0.782799848267729  0.6116934746289215  0.0858070569493067  1.0000
  H   H13       1.0  0.8057834810002833  0.6792518019118673  0.03838626905288587  1.0000
  H   H14       1.0  0.5922883433719478  0.8187477976485198  0.11082120318735637  1.0000
  H   H15       1.0  0.6976824507041925  0.8285778276426112  0.24045458139647727  1.0000
  H   H16       1.0  0.8678705585868727  0.17775386433425666  0.38923407417893696  1.0000
  H   H17       1.0  0.9318417986894192  0.15500520010024837  0.34137130697458673  1.0000
  H   H18       1.0  0.10482280762691688  0.4890469628854532  0.7269867309468481  1.0000
  H   H19       1.0  0.8253981784470171  0.1392452032075936  0.20420088622265806  1.0000
  H   H20       1.0  0.35175239769433386  0.961586117338868  0.6973090425152862  1.0000
  H   H21       1.0  0.22965271572498835  0.9625489476835654  0.5923191526639613  1.0000
  H   H22       1.0  0.11758029604536087  0.04167653543544969  0.8210638676270605  1.0000
  H   H23       1.0  0.06175853002270051  0.9252271849281399  0.7730812719217824  1.0000
  H   H24       1.0  0.19250140966851598  0.9386988343832386  0.8858245400193923  1.0000
  H   H25       1.0  0.3559136882068827  0.8910993859641818  0.13530203643684754  1.0000
  H   H26       1.0  0.08918659496085715  0.3095573741844931  0.8974621063296198  1.0000
  C   C1        1.0  0.9826434174046245  0.3786362866819602  0.8734166291737254  1.0000
  C   C2        1.0  0.20171171251422482  0.6580367673528187  0.934888559814418  1.0000
  C   C3        1.0  0.20977400935683488  0.6733898778313048  0.017625781289780245  1.0000
  C   C4        1.0  0.2627298071751696  0.7566725509499291  0.08827475443572305  1.0000
  C   C5        1.0  0.30925245975056015  0.8263110140206746  0.07874037712756635  1.0000
  C   C6        1.0  0.2983770009238214  0.8149436136644254  0.9984097662619719  1.0000
  C   C7        1.0  0.9512239731795379  0.2980184834553016  0.7191216744455815  1.0000
  C   C8        1.0  0.9932697881486026  0.3209337529199346  0.8062155701983472  1.0000
  C   C9        1.0  0.052366894383261677  0.290786383818876  0.8295592928365564  1.0000
  C   C10       1.0  0.06503987541103136  0.23790981320607343  0.76795009611444  1.0000
  C   C11       1.0  0.01980445197921905  0.2116945263070278  0.6791030346961051  1.0000
  C   C12       1.0  0.145840324562478  0.6048276033190376  0.024156919724347813  1.0000
  C   C13       1.0  0.9643009144796154  0.24502774528747287  0.6582478913183961  1.0000
  C   C14       1.0  0.8964535583958836  0.24212179118529772  0.5834348783413077  1.0000
  C   C15       1.0  0.8860431850665833  0.3062841024476484  0.6528948383806039  1.0000
  C   C16       1.0  0.7622381415457157  0.27834282583276587  0.9811953407348283  1.0000
  C   C17       1.0  0.8447103016817935  0.33475507994955916  0.0558915394734711  1.0000
  C   C18       1.0  0.8517919876524972  0.32961385286237277  0.13087067588153903  1.0000
  C   C19       1.0  0.7799306310993972  0.2716389587103479  0.1304039962755469  1.0000
  C   C20       1.0  0.6984914383335125  0.21201479803032433  0.053340444265785464  1.0000
  C   C21       1.0  0.6932177668911025  0.21695677050073675  0.9796630222745435  1.0000
  C   C22       1.0  0.6350249289384919  0.17446679348768157  0.8827440054645166  1.0000
  C   C23       1.0  0.987471479223828  0.6243051992686474  0.09456163826823169  1.0000
  C   C24       1.0  0.7107691186252725  0.24864415926504085  0.8856358738760195  1.0000
  C   C25       1.0  0.9236602584644021  0.7138154104511897  0.15477174272440672  1.0000
  C   C26       1.0  0.9944107055397142  0.7008064831182566  0.16064487655914664  1.0000
  C   C27       1.0  0.07511357545317315  0.7610652138460595  0.2381495370892424  1.0000
  C   C28       1.0  0.08422444669329822  0.831326181239305  0.3048441966783174  1.0000
  C   C29       1.0  0.012088630109744305  0.8432490460008849  0.30034566630699544  1.0000
  C   C30       1.0  0.932460038899251  0.7812623319018568  0.2238033394331538  1.0000
  C   C31       1.0  0.8354847647174994  0.7532492943363137  0.1768924295925842  1.0000
  C   C32       1.0  0.8258908498962684  0.6768759897061754  0.09909289640455651  1.0000
  C   C33       1.0  0.5987258676010117  0.956241365198352  0.08064037624284051  1.0000
  C   C34       1.0  0.9163675346340772  0.3962315655245589  0.05167133817539593  1.0000
  C   C35       1.0  0.36489404272161613  0.8894147820111867  0.0005952968309514917  1.0000
  C   C36       1.0  0.3842660258366736  0.9820999166508173  0.8585378402261129  1.0000
  C   C37       1.0  0.6220316225517026  0.14124003063277962  0.04431748532834228  1.0000
  C   C38       1.0  0.09254094464582607  0.9745875758373046  0.6044783233788279  1.0000
  C   C39       1.0  0.02341530040428808  0.1443342613259304  0.6119201711643214  1.0000
  C   C40       1.0  0.8549310831693404  0.9728589092509237  0.3770588866588937  1.0000
  C   C41       1.0  0.01781203955968639  0.9128523119349126  0.3737168551202714  1.0000
  C   C42       1.0  0.74156720175516  0.033317797957586465  0.21808046881663054  1.0000
  C   C43       1.0  0.664751355339405  0.9555496113771156  0.1516236516793158  1.0000
  C   C44       1.0  0.6512446724396883  0.8814300525276763  0.16096524903422715  1.0000
  C   C45       1.0  0.15711932113065807  0.5726072076652359  0.8633141842198527  1.0000
  C   C46       1.0  0.7107720609969305  0.8869194672278694  0.23444024434384392  1.0000
  C   C47       1.0  0.78866850382245  0.9657799105360352  0.3005857470764681  1.0000
  C   C48       1.0  0.8024353709132229  0.03844126908181509  0.2896199541624113  1.0000
  C   C49       1.0  0.8646221210153869  0.13535003370265727  0.3302133560614848  1.0000
  C   C50       1.0  0.798964330559727  0.12816749312312933  0.24649146861698767  1.0000
  C   C51       1.0  0.24231269026203964  0.9845848550430246  0.807416165328526  1.0000
  C   C52       1.0  0.3094314274740597  0.9782287994118946  0.7926285477398666  1.0000
  C   C53       1.0  0.3011375488573904  0.9672538366209337  0.7119123195730594  1.0000
  C   C54       1.0  0.23173089491691437  0.9667173318694606  0.6523187044937301  1.0000
  C   C55       1.0  0.16298059047396402  0.9705002294711134  0.6669572609351704  1.0000
  C   C56       1.0  0.13870207729241454  0.5554118262086193  0.7806367074591378  1.0000
  C   C57       1.0  0.16935670782970652  0.9771546529228984  0.7450598750389261  1.0000
  C   C58       1.0  0.12470281398397984  0.9836725567579805  0.7996617924714259  1.0000
  C   C59       1.0  0.20676960031999397  0.9914597583698138  0.8701399448296029  1.0000
  C   C60       1.0  0.16365615152331264  0.627156109631109  0.7673763533035115  1.0000
  C   C61       1.0  0.21113695781133404  0.712849793335053  0.8344617999563938  1.0000
  C   C62       1.0  0.2385404656394242  0.7303908582598736  0.9219892682772013  1.0000
  Cl  Cl1       1.0  0.5304216872249229  0.16931348386658834  0.8455606277240122  1.0000
  Cl  Cl2       1.0  0.1867563601924971  0.901418383808199  0.39754510165089835  1.0000
  Cl  Cl3       1.0  0.7726052714319991  0.7166257160873497  0.22489066690013002  1.0000
  Cl  Cl4       1.0  0.26897695838662355  0.09168148571393431  0.9711461928212372  1.0000
  Cl  Cl5       1.0  0.22425441504235996  0.792335353549028  0.8055100552764644  1.0000
  Cl  Cl6       1.0  0.13833014411938652  0.2028234873438351  0.8021221554839428  1.0000
  O   O1        1.0  0.9264539978062276  0.4027690749095925  0.8463865504431283  1.0000
  O   O2        1.0  0.577492210356894  0.9101379105223157  0.001332275398127138  1.0000
  O   O3        1.0  0.38876276607754795  0.9672763333518758  0.055649567061870235  1.0000
  O   O4        1.0  0.39820992026790253  0.8701526766383907  0.9531237578698609  1.0000
  O   O5        1.0  0.4072770087583992  0.028300341722115516  0.9372879433669752  1.0000
  O   O6        1.0  0.4184064197207603  0.9367100431821382  0.832021918601292  1.0000
  O   O7        1.0  0.5893092327080751  0.1601357140354125  0.09349956649144535  1.0000
  O   O8        1.0  0.5939173109960125  0.0653503963200921  0.9844686587267476  1.0000
  O   O9        1.0  0.11728745300678159  0.025457561464122588  0.5759661620783092  1.0000
  O   O10       1.0  0.01232171194349277  0.927580514082976  0.584361122823289  1.0000
  O   O11       1.0  0.07661160530692973  0.16965449615010908  0.5846007593206082  1.0000
  O   O12       1.0  0.029874651704709175  0.4014786302255757  0.9520843804145186  1.0000
  O   O13       1.0  0.9708641564769991  0.06622376360824259  0.5871577213105044  1.0000
  O   O14       1.0  0.9339792305458374  0.032193173623916486  0.4103257387202888  1.0000
  O   O15       1.0  0.829804925954072  0.9200744407998158  0.40494873133036435  1.0000
  O   O16       1.0  0.06961698704861871  0.9928400891431508  0.3994919976795543  1.0000
  O   O17       1.0  0.9691733902257696  0.8860971614695218  0.40365654627779435  1.0000
  O   O18       1.0  0.065784916334067  0.5773418513261033  0.9737310611618993  1.0000
  O   O19       1.0  0.17380200714904953  0.5830885335065544  0.08118021231189936  1.0000
  O   O20       1.0  0.9275801599147756  0.588258353697121  0.01476901411901824  1.0000
  O   O21       1.0  0.04097897542202129  0.5992869880450938  0.12185543529439266  1.0000
  O   O22       1.0  0.8907146880699556  0.41452469927598656  0.9917965673672099  1.0000
  O   O23       1.0  0.9976543939863872  0.4260562518132288  0.10508819225260176  1.0000
  O   O24       1.0  0.5697356236866469  0.005908964784474309  0.10655200159593654  1.0000
  F   F1        1.0  0.13380041104325355  0.5039992324482937  0.8777347520272158  1.0000
  F   F2        1.0  0.7629686388186628  0.18295188906731136  0.2623016798805295  1.0000
  F   F3        1.0  0.13868715053712322  0.6103067310991149  0.6846658842732083  1.0000
  F   F4        1.0  0.9286236907203574  0.2770382223059541  0.5373112890215451  1.0000
