data_image0
_chemical_formula_structural       Zn4H52C79N16F2
_chemical_formula_sum              "Zn4 H52 C79 N16 F2"
_cell_length_a       19.639469187872084
_cell_length_b       20.836180624207223
_cell_length_c       21.380606523682612
_cell_angle_alpha    106.95244211726393
_cell_angle_beta     105.36236239594322
_cell_angle_gamma    113.72366044211856

_space_group_name_H-M_alt    "P 1"
_space_group_IT_number       1

loop_
  _space_group_symop_operation_xyz
  'x, y, z'

loop_
  _atom_site_type_symbol
  _atom_site_label
  _atom_site_symmetry_multiplicity
  _atom_site_fract_x
  _atom_site_fract_y
  _atom_site_fract_z
  _atom_site_occupancy
  Zn  Zn1       1.0  0.4049670890094036  0.3853547907920428  0.4976953775987526  1.0000
  Zn  Zn2       1.0  0.6216526235176402  0.6247710106549957  0.5033943938148084  1.0000
  Zn  Zn3       1.0  0.4115364462599374  0.4995466904699414  0.41189538712254864  1.0000
  Zn  Zn4       1.0  0.6122786812878119  0.5223287450425289  0.6059931631166935  1.0000
  H   H1        1.0  0.2670487491343536  0.21820455448685286  0.3533382267968506  1.0000
  H   H2        1.0  0.7160714168688641  0.5583062782645455  0.4256826607870182  1.0000
  H   H3        1.0  0.6411799386564638  0.025896317306248345  0.5530112919160787  1.0000
  H   H4        1.0  0.6813188877178008  0.09633111184986386  0.46203717032346975  1.0000
  H   H5        1.0  0.8847828538407255  0.2745179441923894  0.3025836000924754  1.0000
  H   H6        1.0  0.9919688846610913  0.4101567590988465  0.5169368311152882  1.0000
  H   H7        1.0  0.9445037322204968  0.5163607196575057  0.49242341128491784  1.0000
  H   H8        1.0  0.9989298672201986  0.5079248061548755  0.380968654482935  1.0000
  H   H9        1.0  0.8374987474911535  0.3801473334945414  0.27796398533552497  1.0000
  H   H10       1.0  0.5933686168376154  0.4203144582105267  0.8021525946512043  1.0000
  H   H11       1.0  0.4311381658384121  0.382791354541439  0.29430629327946184  1.0000
  H   H12       1.0  0.6270222625125965  0.7797627059823214  0.5478682824834921  1.0000
  H   H13       1.0  0.40704891632253754  0.3458362596678057  0.16196204072453926  1.0000
  H   H14       1.0  0.6679632942324361  0.513669969268193  0.2545105431923532  1.0000
  H   H15       1.0  0.5905807746144021  0.4019669517809845  0.005431986183246876  1.0000
  H   H16       1.0  0.3475362717320182  0.3599618281772052  0.8513499823131881  1.0000
  H   H17       1.0  0.4030507233434407  0.3007233977816099  0.04026555394450078  1.0000
  H   H18       1.0  0.3577702377083227  0.4030134330575237  0.7561814310023325  1.0000
  H   H19       1.0  0.4041552656200125  0.33884746587320075  0.9497638006769124  1.0000
  H   H20       1.0  0.5843243119504109  0.37921819061192963  0.8978590612391388  1.0000
  H   H21       1.0  0.6633895336602649  0.469817693695866  0.13219363073518772  1.0000
  H   H22       1.0  0.0866294439415825  0.28752710848814905  0.22050555232753774  1.0000
  H   H23       1.0  0.3008182220063062  0.555066065853225  0.4575423382553582  1.0000
  H   H24       1.0  0.6903414597641345  0.7618975688071075  0.8463413528845225  1.0000
  H   H25       1.0  0.7924408522252762  0.9233412313614408  0.7618356749735468  1.0000
  H   H26       1.0  0.8876325988893399  0.08633517557915124  0.0072958877505370865  1.0000
  H   H27       1.0  0.9891915982000298  0.009878012052411112  0.16813285513837437  1.0000
  H   H28       1.0  0.749490992853481  0.8723037630948055  0.9652912371398231  1.0000
  H   H29       1.0  0.12953295338154186  0.11373548665594058  0.2627606000410623  1.0000
  H   H30       1.0  0.8678270396960882  0.9648634996492544  0.06600109322040026  1.0000
  H   H31       1.0  0.9481219228689498  0.18360059930537903  0.12404615335513129  1.0000
  H   H32       1.0  0.851173976885093  0.03408098296942807  0.88152713834414  1.0000
  H   H33       1.0  0.6394645755733704  0.5999814769347935  0.3368640665265731  1.0000
  H   H34       1.0  0.655896039989294  0.6593384102451908  0.7451389821833206  1.0000
  H   H35       1.0  0.40901732472609353  0.23460474157020883  0.4024056376743631  1.0000
  H   H36       1.0  0.6494406715841237  0.39370701408447667  0.5152568560495824  1.0000
  H   H37       1.0  0.22459802671061627  0.3746840865038692  0.2752974010318355  1.0000
  H   H38       1.0  0.3611175471136789  0.3859780593406865  0.6275708585675872  1.0000
  H   H39       1.0  0.3209898297403981  0.6474681523167829  0.37185376716556817  1.0000
  H   H40       1.0  0.36872322798546975  0.648900842620762  0.3124136293304006  1.0000
  H   H41       1.0  0.3237998823081938  0.5631990373636171  0.3250723482618271  1.0000
  H   H42       1.0  0.8499532153992675  0.2318176284011741  0.42481584326282745  1.0000
  H   H43       1.0  0.8027725483255993  0.2803496018523148  0.46167187616905647  1.0000
  H   H44       1.0  0.7581127288504844  0.22084211666494716  0.36643621356869727  1.0000
  H   H45       1.0  0.2101434202981309  0.33711583762857344  0.47503800470453683  1.0000
  H   H46       1.0  0.6329505163548745  0.30212189088220487  0.6442550885847425  1.0000
  H   H47       1.0  0.6918962796316492  0.3377487469483497  0.5993579463820567  1.0000
  H   H48       1.0  0.6774305127734834  0.4026874341617486  0.6626974060312137  1.0000
  H   H49       1.0  0.6249574470642189  0.5264518983484265  0.7641306300448748  1.0000
  H   H50       1.0  0.4424080194773836  0.974426241965709  0.32182460150339415  1.0000
  H   H51       1.0  0.5746154085060199  0.9461425468178817  0.33937620000784124  1.0000
  H   H52       1.0  0.40126897598005223  0.9033312181300842  0.41237894482549825  1.0000
  C   C1        1.0  0.2704094486032176  0.26650840932061465  0.3416190349009299  1.0000
  C   C2        1.0  0.24614965181213927  0.39213146321974784  0.47431436972872376  1.0000
  C   C3        1.0  0.5624450229764336  0.49548833999541847  0.7215048433625314  1.0000
  C   C4        1.0  0.695690948670844  0.526144462568716  0.4552373882135044  1.0000
  C   C5        1.0  0.43966935701303106  0.6587918757285535  0.413590679970362  1.0000
  C   C6        1.0  0.4875834938430046  0.4449873912616625  0.719517047011003  1.0000
  C   C7        1.0  0.508616614502138  0.7367576663789065  0.4537818131006688  1.0000
  C   C8        1.0  0.2199675553564759  0.44130675833972793  0.457094666028681  1.0000
  C   C9        1.0  0.7117441203011196  0.7664077656402879  0.7272088030961754  1.0000
  C   C10       1.0  0.5599278127954366  0.9706726861067737  0.3829626496665173  1.0000
  C   C11       1.0  0.4862086026124643  0.9849956384769882  0.3730469265337178  1.0000
  C   C12       1.0  0.696603344246256  0.4584197561357469  0.45410780839134196  1.0000
  C   C13       1.0  0.5316466575380687  0.19282972544640126  0.46556743485895435  1.0000
  C   C14       1.0  0.5187166399126183  0.803018178383844  0.4433920724887414  1.0000
  C   C15       1.0  0.6191293595564036  0.053094347910175234  0.4509949335746058  1.0000
  C   C16       1.0  0.4824677360692959  0.4420951258168273  0.3154541940149187  1.0000
  C   C17       1.0  0.5452103293960704  0.0688716431487109  0.44118243579310973  1.0000
  C   C18       1.0  0.5973897453491618  0.015332572029443338  0.5018115887331762  1.0000
  C   C19       1.0  0.5371411152277403  0.9314286320446283  0.4336866004450216  1.0000
  C   C20       1.0  0.523230851184337  0.028023711999153836  0.49089997421519627  1.0000
  C   C21       1.0  0.4630846506456622  0.9468362635930275  0.42314005104807967  1.0000
  C   C22       1.0  0.5434225409716404  0.1381163251566946  0.44994909322175414  1.0000
  C   C23       1.0  0.537007493802122  0.4732038908876605  0.28659468237018615  1.0000
  C   C24       1.0  0.5296440066474873  0.8613212947731695  0.43491934365636115  1.0000
  C   C25       1.0  0.8979089501342088  0.3285777729427649  0.3448053222710143  1.0000
  C   C26       1.0  0.8685132912121887  0.3324879998864175  0.4066726718045502  1.0000
  C   C27       1.0  0.7337441051625718  0.42274715527795337  0.42113935255957813  1.0000
  C   C28       1.0  0.5713881381601597  0.3235042997043323  0.5603352545937953  1.0000
  C   C29       1.0  0.13898674790202387  0.42713253685561625  0.43465052002302684  1.0000
  C   C30       1.0  0.8723692747206615  0.3872286745072627  0.3312928594310948  1.0000
  C   C31       1.0  0.8425450444049503  0.39261484302814853  0.39360499763857604  1.0000
  C   C32       1.0  0.9608291088534172  0.45814437877537967  0.38841397046940795  1.0000
  C   C33       1.0  0.9880188626153911  0.3998250950680741  0.40257375951618013  1.0000
  C   C34       1.0  0.5213749957542433  0.257044007660248  0.4904182059909986  1.0000
  C   C35       1.0  0.9330312710029105  0.46303666199106863  0.4506513107572587  1.0000
  C   C36       1.0  0.9569164362420822  0.4038612911903953  0.464045369677983  1.0000
  C   C37       1.0  0.7753662554287217  0.3998732722677758  0.3994973651127226  1.0000
  C   C38       1.0  0.06704375452800801  0.4102396539316828  0.41421086636457016  1.0000
  C   C39       1.0  0.4777076428834732  0.4174640183160675  0.7737717833514567  1.0000
  C   C40       1.0  0.5890491518614738  0.5530251164492981  0.33779982724704655  1.0000
  C   C41       1.0  0.5402867011790349  0.4090186153084686  0.8142809123717997  1.0000
  C   C42       1.0  0.5348406636397129  0.38538756448021155  0.8678916932649728  1.0000
  C   C43       1.0  0.46637562260905707  0.36933515837193903  0.8840321752078141  1.0000
  C   C44       1.0  0.4016798882228941  0.3732163274133883  0.8404798157854432  1.0000
  C   C45       1.0  0.4278952335654226  0.42427842859334675  0.6518764046094887  1.0000
  C   C46       1.0  0.4073050323118039  0.3973074296365978  0.7868574942159443  1.0000
  C   C47       1.0  0.46122453641326905  0.34814662625228016  0.08701989572871585  1.0000
  C   C48       1.0  0.4636876786176032  0.373140751871027  0.1557792315368403  1.0000
  C   C49       1.0  0.6094412080344043  0.4675427123513957  0.20750629720710395  1.0000
  C   C50       1.0  0.6070787679531121  0.44233709215198036  0.1388531116488422  1.0000
  C   C51       1.0  0.5319829227516879  0.38568007598800585  0.07644155433344936  1.0000
  C   C52       1.0  0.4600397842443371  0.2701388852631226  0.4564557310377354  1.0000
  C   C53       1.0  0.4635375560229278  0.35713982211039047  0.9471525047122002  1.0000
  C   C54       1.0  0.5300400038540332  0.3778447395174922  0.0060372501073971355  1.0000
  C   C55       1.0  0.5368838703201176  0.4363677607708211  0.21700989928261546  1.0000
  C   C56       1.0  0.5657394407759427  0.7327875487963452  0.5059663432031628  1.0000
  C   C57       1.0  0.12119888222024851  0.20843734666933503  0.24591728029987792  1.0000
  C   C58       1.0  0.0664057779907594  0.22638759909587952  0.20797775521124615  1.0000
  C   C59       1.0  0.9879449398839738  0.16775842297513308  0.1537827227425125  1.0000
  C   C60       1.0  0.9599892525104607  0.0879670238441008  0.13542767462070776  1.0000
  C   C61       1.0  0.010763189242453598  0.071061354699907  0.17959829054182563  1.0000
  C   C62       1.0  0.0899905705111976  0.12969667718935088  0.2328841101088557  1.0000
  C   C63       1.0  0.7599475565586645  0.8839671622455753  0.9210926432912319  1.0000
  C   C64       1.0  0.6617388386796463  0.44152332476849654  0.5008815806405167  1.0000
  C   C65       1.0  0.7264879886513  0.8214808616951573  0.853593585218967  1.0000
  C   C66       1.0  0.7826351543122384  0.9114851246974283  0.8060545450726978  1.0000
  C   C67       1.0  0.2923477698172618  0.5036642788397144  0.46539959490415583  1.0000
  C   C68       1.0  0.8155484774388952  0.9740614503630739  0.8736597469154718  1.0000
  C   C69       1.0  0.8088301631561308  0.9620598247136554  0.9338216444891573  1.0000
  C   C70       1.0  0.8893591896690297  0.023145341387504584  0.0682574543388271  1.0000
  C   C71       1.0  0.8606311708681886  0.028358710769047862  0.00598631771710966  1.0000
  C   C72       1.0  0.7396727052594017  0.833402947519012  0.7950602622267553  1.0000
  C   C73       1.0  0.24828967371372812  0.3462385829190139  0.3022520024359352  1.0000
  C   C74       1.0  0.2073962444989021  0.2692882265033276  0.29429073736629624  1.0000
  C   C75       1.0  0.3590812560056165  0.6277167886743767  0.3525539193683187  1.0000
  C   C76       1.0  0.817138670944871  0.2627882766310917  0.41542227442014484  1.0000
  C   C77       1.0  0.6474503894293451  0.34263374889907544  0.6197877402628296  1.0000
  C   C78       1.0  0.6742154109515185  0.6865315334544562  0.7115111019345834  1.0000
  C   C79       1.0  0.7183486297459397  0.7628427836986875  0.6625237773193434  1.0000
  N   N1        1.0  0.34265951231643754  0.33623387160172763  0.37562865353292824  1.0000
  N   N2        1.0  0.5007234728437524  0.4991349529870205  0.3785150942497496  1.0000
  N   N3        1.0  0.5418895967250492  0.3716372262155758  0.5668211399483881  1.0000
  N   N4        1.0  0.5666275461265613  0.5681886569363711  0.39194419047193213  1.0000
  N   N5        1.0  0.4729403020840195  0.33840499484431763  0.5031386593967256  1.0000
  N   N6        1.0  0.6429523527093437  0.4959257542722639  0.5280712148799368  1.0000
  N   N7        1.0  0.3279776755515726  0.3849624637898756  0.3502622658596408  1.0000
  N   N8        1.0  0.4644859438360173  0.45824658478142766  0.6156773327922737  1.0000
  N   N9        1.0  0.5345516855697454  0.658375047696481  0.49745357410395036  1.0000
  N   N10       1.0  0.3562773673596027  0.49195190929820126  0.4850004081087819  1.0000
  N   N11       1.0  0.6613509691204341  0.641660507921287  0.6447768399257967  1.0000
  N   N12       1.0  0.6893764868570929  0.6900297336878723  0.6135605545230265  1.0000
  N   N13       1.0  0.3265915578704295  0.4231341946321407  0.490577778061237  1.0000
  N   N14       1.0  0.5473600878892314  0.5028975539951192  0.6595183238188512  1.0000
  N   N15       1.0  0.4570504589942673  0.6134747528776286  0.44046613771949694  1.0000
  N   N16       1.0  0.6638884081541079  0.548130830988228  0.49974648839708646  1.0000
  F   F1        1.0  0.7495012150063971  0.8226315894714844  0.6455471405926119  1.0000
  F   F2        1.0  0.5050316732379301  0.05834714737851947  0.5459952921494209  1.0000
