data_image0
_chemical_formula_structural       H64Au8C60S8Cl8
_chemical_formula_sum              "H64 Au8 C60 S8 Cl8"
_cell_length_a       8.371367190000193
_cell_length_b       11.54814997235143
_cell_length_c       18.809187081541065
_cell_angle_alpha    102.42483765899928
_cell_angle_beta     89.99997886592392
_cell_angle_gamma    89.99999162281786

_space_group_name_H-M_alt    "P 1"
_space_group_IT_number       1

loop_
  _space_group_symop_operation_xyz
  'x, y, z'

loop_
  _atom_site_type_symbol
  _atom_site_label
  _atom_site_symmetry_multiplicity
  _atom_site_fract_x
  _atom_site_fract_y
  _atom_site_fract_z
  _atom_site_occupancy
  H   H1        1.0  0.5015451938375933  0.7917151733799482  0.10149980425925516  1.0000
  H   H2        1.0  0.0015407774742826  0.20829050426878834  0.39850180963669146  1.0000
  H   H3        1.0  0.4984570079530429  0.20828585870916777  0.8985005447656675  1.0000
  H   H4        1.0  0.9984554515746211  0.7917185035177855  0.6015006687982094  1.0000
  H   H5        1.0  0.4820465743068141  0.9993589973244071  0.08192173036083256  1.0000
  H   H6        1.0  0.9820496856968577  0.0006430534220243005  0.4180787900294547  1.0000
  H   H7        1.0  0.5179568220327796  0.0006402683153226011  0.9180767875754795  1.0000
  H   H8        1.0  0.017956099737197903  0.9993633012104297  0.5819217387921113  1.0000
  H   H9        1.0  0.2533528695624129  0.05811040672334399  0.014613097052439596  1.0000
  H   H10       1.0  0.7533545418714523  0.9418890324100887  0.4853849842917128  1.0000
  H   H11       1.0  0.7466505267775504  0.9418879745319513  0.9853847710130522  1.0000
  H   H12       1.0  0.24664765992089596  0.05811112921207949  0.5146115267812732  1.0000
  H   H13       1.0  0.03933118780492611  0.9106851776031776  0.9665222046696725  1.0000
  H   H14       1.0  0.539332218070541  0.08931039168358977  0.5334789704926806  1.0000
  H   H15       1.0  0.9606722085346393  0.08931142328535203  0.0334770203884389  1.0000
  H   H16       1.0  0.46066640007774856  0.9106871051876908  0.4665182477024317  1.0000
  H   H17       1.0  0.05714430007924419  0.7056291966537954  0.9855322723316248  1.0000
  H   H18       1.0  0.5571417219368726  0.29437167588493907  0.5144727987913598  1.0000
  H   H19       1.0  0.9428579017110009  0.29437005506854763  0.014469433685917493  1.0000
  H   H20       1.0  0.44285331256504884  0.7056293492460454  0.48552914427477833  1.0000
  H   H21       1.0  0.12042826665592798  0.4735246635223547  0.102948193488082  1.0000
  H   H22       1.0  0.6204229292401849  0.5264738977865306  0.3970529817751611  1.0000
  H   H23       1.0  0.8795739351347578  0.5264745928391575  0.8970524498357547  1.0000
  H   H24       1.0  0.37957091071489674  0.4735253632148543  0.6029465988557376  1.0000
  H   H25       1.0  0.0245920655310741  0.6001261495735193  0.08153883990911477  1.0000
  H   H26       1.0  0.524587929761772  0.3998724304905893  0.4184618215712135  1.0000
  H   H27       1.0  0.9754101362597043  0.39987399581158195  0.9184613905918438  1.0000
  H   H28       1.0  0.4754082992891071  0.6001268281910086  0.5815382904063142  1.0000
  H   H29       1.0  0.030933861965174  0.6322392644345883  0.2132046342238354  1.0000
  H   H30       1.0  0.5309286495270484  0.3677593122224252  0.2867965574411713  1.0000
  H   H31       1.0  0.9690695343735244  0.36775999192681746  0.7867960090998878  1.0000
  H   H32       1.0  0.4690675795237382  0.6322390574355836  0.7132039673592416  1.0000
  H   H33       1.0  0.17093847291729963  0.7307387337745511  0.188170240046432  1.0000
  H   H34       1.0  0.670933258908754  0.269259818871909  0.31183092595971823  1.0000
  H   H35       1.0  0.8290637288731162  0.2692622959949844  0.811830640325347  1.0000
  H   H36       1.0  0.3290641646898179  0.7307385484664123  0.6881701301874372  1.0000
  H   H37       1.0  0.2542856776803434  0.4922808539734973  0.2286731535528332  1.0000
  H   H38       1.0  0.7542816450007096  0.5077167976749378  0.2713278786540627  1.0000
  H   H39       1.0  0.7457165241102147  0.5077192890920158  0.7713276082949747  1.0000
  H   H40       1.0  0.2457157785988144  0.49227980321410314  0.728671346404596  1.0000
  H   H41       1.0  0.396610101317144  0.5905780679740147  0.2026153990759383  1.0000
  H   H42       1.0  0.8966048716124038  0.4094204482897156  0.2973851942241694  1.0000
  H   H43       1.0  0.603393295022002  0.409421193026553  0.7973841815540863  1.0000
  H   H44       1.0  0.10339255198662303  0.5905779236877675  0.7026147992292876  1.0000
  H   H45       1.0  0.6038557542474976  0.7613006253231233  0.3150324772553645  1.0000
  H   H46       1.0  0.10385270717059572  0.23869794346688172  0.1849676383512318  1.0000
  H   H47       1.0  0.3961476420917407  0.2386995247010333  0.684966690551775  1.0000
  H   H48       1.0  0.8961483000733141  0.7612977730374196  0.8150309368362727  1.0000
  H   H49       1.0  0.6926261792562229  0.9666671387947331  0.31654599163574904  1.0000
  H   H50       1.0  0.19262556347573684  0.03333318585953289  0.1834548760963202  1.0000
  H   H51       1.0  0.3073748279866635  0.033336560365263807  0.6834531189206317  1.0000
  H   H52       1.0  0.8073730546712597  0.9666625213666576  0.8165458244788154  1.0000
  H   H53       1.0  0.4914488459693588  0.1285059875610841  0.3239601496072241  1.0000
  H   H54       1.0  0.9914472105825214  0.871494288165259  0.17604013201238897  1.0000
  H   H55       1.0  0.5085485776300588  0.8714941647831724  0.6760384868536066  1.0000
  H   H56       1.0  0.0085490184675052  0.1285031855104108  0.8239623996514638  1.0000
  H   H57       1.0  0.20337045776182086  0.0833289136202779  0.3253332715900541  1.0000
  H   H58       1.0  0.7033688145349261  0.9166740646643207  0.17466901243860627  1.0000
  H   H59       1.0  0.7966269658364238  0.9166730028536704  0.6746677273061293  1.0000
  H   H60       1.0  0.29662860906300637  0.0833269604664579  0.8253329306273114  1.0000
  H   H61       1.0  0.1123111805724548  0.8751250298562  0.3211149288221192  1.0000
  H   H62       1.0  0.6123096915403466  0.12487708198005269  0.1788861906774244  1.0000
  H   H63       1.0  0.8876886321231156  0.12487423578383526  0.6788835891145267  1.0000
  H   H64       1.0  0.3876913157011615  0.8751239385112585  0.8211168150818721  1.0000
  Au  Au1       1.0  0.29010987272769734  0.4698826617828402  0.9418933869606291  1.0000
  Au  Au2       1.0  0.7901084052136582  0.5301181893592429  0.5581073906914682  1.0000
  Au  Au3       1.0  0.7098875508710523  0.530117483602666  0.05810684354076298  1.0000
  Au  Au4       1.0  0.20988662928806434  0.4698854982033609  0.44189437659972697  1.0000
  Au  Au5       1.0  0.0506354703809109  0.6741064163798995  0.373137210305778  1.0000
  Au  Au6       1.0  0.5506351798918486  0.3258930528802325  0.1268619708845975  1.0000
  Au  Au7       1.0  0.9493667314106278  0.3258946249875335  0.6268610133317337  1.0000
  Au  Au8       1.0  0.44936702189934163  0.6741044323928308  0.8731379040444479  1.0000
  C   C1        1.0  0.28055384168139613  0.737742010587283  0.04498957612538128  1.0000
  C   C2        1.0  0.780548507837864  0.2622591880115266  0.45501086266960294  1.0000
  C   C3        1.0  0.7194495546571602  0.26225813247813073  0.9550111857223199  1.0000
  C   C4        1.0  0.2194465266643135  0.737744504190232  0.5449898419278867  1.0000
  C   C5        1.0  0.40004206984923474  0.8195479788903981  0.07289542850430313  1.0000
  C   C6        1.0  0.9000379704817051  0.18044965008064653  0.4271050456427474  1.0000
  C   C7        1.0  0.599960131941593  0.18045039076709196  0.9271050962955628  1.0000
  C   C8        1.0  0.0999606476643606  0.8195549288248215  0.5728957774783864  1.0000
  C   C9        1.0  0.3886460751294578  0.9349741515322806  0.06161696439243509  1.0000
  C   C10       1.0  0.8886455728547916  0.0650279152324913  0.4383835731158428  1.0000
  C   C11       1.0  0.6113561266616828  0.06502510946838667  0.9383826162376963  1.0000
  C   C12       1.0  0.11135543438764733  0.9349757792883365  0.5616166001342507  1.0000
  C   C13       1.0  0.2597471907336412  0.9678434782548918  0.0233115914395157  1.0000
  C   C14       1.0  0.7597502462202784  0.032153292711022595  0.47668772720126634  1.0000
  C   C15       1.0  0.7402550110584513  0.03215401629648801  0.9766861581021189  1.0000
  C   C16       1.0  0.2402519555712601  0.9678477486564105  0.5233104964362524  1.0000
  C   C17       1.0  0.13960989907211294  0.8857212444573153  0.9968445158479895  1.0000
  C   C18       1.0  0.639608560941177  0.11427874579123905  0.5031561708624892  1.0000
  C   C19       1.0  0.8603934972673456  0.11427890788642972  0.0031541206123009017  1.0000
  C   C20       1.0  0.3603888626581622  0.8857205175294139  0.49684287842122643  1.0000
  C   C21       1.0  0.14935306299634732  0.7702718645834351  0.00742089401899896  1.0000
  C   C22       1.0  0.6493512874687469  0.22972491139781678  0.4925816329354404  1.0000
  C   C23       1.0  0.8506491387944807  0.22972650507405493  0.9925796307808668  1.0000
  C   C24       1.0  0.3506461361299956  0.7702752339876895  0.5074185975659516  1.0000
  C   C25       1.0  0.12939094887301655  0.5696371753013523  0.10746163995681  1.0000
  C   C26       1.0  0.6293856344294896  0.43036138679002517  0.3925390023169726  1.0000
  C   C27       1.0  0.8706112529177618  0.43036297008374896  0.8925385905441414  1.0000
  C   C28       1.0  0.3706105946214678  0.5696387609151614  0.6074606968376771  1.0000
  C   C29       1.0  0.14701288109080224  0.6363716933869268  0.18622886721443874  1.0000
  C   C30       1.0  0.6470076466361762  0.3636259789782982  0.3137716533057712  1.0000
  C   C31       1.0  0.8529893206997485  0.3636284496785933  0.8137718946333691  1.0000
  C   C32       1.0  0.352989776962623  0.6363723906796038  0.686228871494535  1.0000
  C   C33       1.0  0.2775494917892233  0.5851707821276051  0.22652429190072348  1.0000
  C   C34       1.0  0.7775466703462686  0.41482863893904226  0.2734769730904034  1.0000
  C   C35       1.0  0.7224527100015552  0.41482936325749625  0.7734759386002281  1.0000
  C   C36       1.0  0.2224519478003941  0.5851706174227685  0.7265236702337603  1.0000
  C   C37       1.0  0.35275220141610225  0.8063411583710048  0.3166976429049909  1.0000
  C   C38       1.0  0.8527518894877844  0.1936582590766136  0.1833014829159794  1.0000
  C   C39       1.0  0.6472488058272533  0.1936581049493498  0.6833014063783978  1.0000
  C   C40       1.0  0.14724911775517316  0.8063392238769679  0.816698923360029  1.0000
  C   C41       1.0  0.5161269469328786  0.8310856127857917  0.3153063883077891  1.0000
  C   C42       1.0  0.016129886732528596  0.16891652250426153  0.1846931547786284  1.0000
  C   C43       1.0  0.48387286576203803  0.16892075112550492  0.6846920151269131  1.0000
  C   C44       1.0  0.9838735096066741  0.831080962768702  0.8153067201503034  1.0000
  C   C45       1.0  0.5655561367560653  0.946948231001059  0.31684602388937577  1.0000
  C   C46       1.0  0.06555193365701942  0.05305212008497049  0.1831538044376444  1.0000
  C   C47       1.0  0.43444487048774505  0.053051036958450516  0.6831519627003075  1.0000
  C   C48       1.0  0.9344478790381175  0.9469427004370985  0.8168467776134135  1.0000
  C   C49       1.0  0.4530740016106307  0.0374170394406548  0.3208433753270797  1.0000
  C   C50       1.0  0.9530771236273737  0.9625859076177009  0.17915620620332356  1.0000
  C   C51       1.0  0.5469246165367211  0.9625893291099031  0.6791539654140235  1.0000
  C   C52       1.0  0.04692268906685369  0.03741334410484849  0.820845499814439  1.0000
  C   C53       1.0  0.29014960080642277  0.012040518118951102  0.3221150534000756  1.0000
  C   C54       1.0  0.7901467461036447  0.9879589054259696  0.1778851465881104  1.0000
  C   C55       1.0  0.7098478227933284  0.987956085089671  0.6778836403117268  1.0000
  C   C56       1.0  0.20985067749469977  0.012039459592770602  0.8221164409059014  1.0000
  C   C57       1.0  0.239187706706339  0.8961794927863664  0.3195297661319998  1.0000
  C   C58       1.0  0.7391898041715949  0.10382171290602571  0.1804706802435376  1.0000
  C   C59       1.0  0.7608133005370449  0.1038224352851813  0.6804685760295897  1.0000
  C   C60       1.0  0.2608100085222703  0.8961784232009508  0.8195316756450453  1.0000
  S   S1        1.0  0.3074741862632706  0.5886892514271267  0.05484674831231469  1.0000
  S   S2        1.0  0.8074688310665153  0.4113101621881227  0.4451550425415506  1.0000
  S   S3        1.0  0.6925268209794098  0.411310004934478  0.9451538950116287  1.0000
  S   S4        1.0  0.19252620343534943  0.5886926386704657  0.5548466062256736  1.0000
  S   S5        1.0  0.298848234978621  0.6587780197321393  0.3220907734720626  1.0000
  S   S6        1.0  0.798846703665859  0.34122317572888505  0.17790966196972846  1.0000
  S   S7        1.0  0.7011527722639599  0.3412247880846806  0.6779092812540597  1.0000
  S   S8        1.0  0.20115310902931333  0.6587743095443841  0.8220902129595373  1.0000
  Cl  Cl1       1.0  0.2852349824869833  0.3422155922534884  0.8297856726927009  1.0000
  Cl  Cl2       1.0  0.785236978258098  0.6577897002031321  0.6702141044317997  1.0000
  Cl  Cl3       1.0  0.7147672193037878  0.6577845531316059  0.1702145578082508  1.0000
  Cl  Cl4       1.0  0.21476163988759822  0.342215763086763  0.32978736856015434  1.0000
  Cl  Cl5       1.0  0.8052935374124176  0.7081932449951437  0.4266234487772707  1.0000
  Cl  Cl6       1.0  0.3052929633331871  0.2918070626564315  0.0733768669592223  1.0000
  Cl  Cl7       1.0  0.1947062752826554  0.2918077917333335  0.5733758375541669  1.0000
  Cl  Cl8       1.0  0.6947068493617152  0.7081921960248606  0.9266232450179785  1.0000
