data_image0
_chemical_formula_structural       H28Pb2C26N4Cl4
_chemical_formula_sum              "H28 Pb2 C26 N4 Cl4"
_cell_length_a       4.274186083348711
_cell_length_b       10.660886643641506
_cell_length_c       15.505010755488357
_cell_angle_alpha    89.99658404334735
_cell_angle_beta     90.00239199027553
_cell_angle_gamma    97.1006546889628

_space_group_name_H-M_alt    "P 1"
_space_group_IT_number       1

loop_
  _space_group_symop_operation_xyz
  'x, y, z'

loop_
  _atom_site_type_symbol
  _atom_site_label
  _atom_site_symmetry_multiplicity
  _atom_site_fract_x
  _atom_site_fract_y
  _atom_site_fract_z
  _atom_site_occupancy
  H   H1        1.0  0.6656229654169081  0.9533899731833769  0.5773203163244247  1.0000
  H   H2        1.0  0.3341724129629283  0.0466748513870883  0.0773495353598435  1.0000
  H   H3        1.0  0.3342776224567673  0.0466557199049547  0.4226798347646934  1.0000
  H   H4        1.0  0.6654955449607769  0.9534186261387418  0.9227080199168826  1.0000
  H   H5        1.0  0.3551172685241895  0.5551483266316807  0.42309254366772114  1.0000
  H   H6        1.0  0.6448940955030694  0.44485830276250465  0.9230344234407397  1.0000
  H   H7        1.0  0.6447484313097788  0.44491257492335723  0.576905673075018  1.0000
  H   H8        1.0  0.3552679374359471  0.5551054921532951  0.0769154175084594  1.0000
  H   H9        1.0  0.8777715919867292  0.9081619924772684  0.4306736627932537  1.0000
  H   H10       1.0  0.12222195506162595  0.09185305047531499  0.9306690309670955  1.0000
  H   H11       1.0  0.1222555863642896  0.09186262155433411  0.5693355157933481  1.0000
  H   H12       1.0  0.8777311349720095  0.9081594238675732  0.06934659821374821  1.0000
  H   H13       1.0  0.9955019313845813  0.7373782318195908  0.6726097964928643  1.0000
  H   H14       1.0  0.004430518546456606  0.262662331983158  0.17261006720575273  1.0000
  H   H15       1.0  0.004450215939428381  0.26265316301189046  0.3273961584186225  1.0000
  H   H16       1.0  0.9954740474680578  0.7373738934824914  0.8273939535381061  1.0000
  H   H17       1.0  0.17819528930154863  0.8962707573801936  0.6716600731023519  1.0000
  H   H18       1.0  0.821740321433964  0.10376709656526369  0.171670078853623  1.0000
  H   H19       1.0  0.8217308364195617  0.10375974663902103  0.32834846199642  1.0000
  H   H20       1.0  0.17811636016092786  0.8962730141506156  0.8283339425849405  1.0000
  H   H21       1.0  0.13414270287658775  0.5828392487177039  0.5709408636673245  1.0000
  H   H22       1.0  0.8658832580519515  0.41717775876579566  0.0709040982867819  1.0000
  H   H23       1.0  0.8658665646359438  0.4172024287718301  0.4290766995728745  1.0000
  H   H24       1.0  0.13420706428020415  0.5828249684101648  0.9290670271607695  1.0000
  H   H25       1.0  0.6392394469707412  0.832869637129768  0.7500177166745203  1.0000
  H   H26       1.0  0.3606766021411617  0.16717318412285914  0.2500011378206395  1.0000
  H   H27       1.0  0.4648203305090989  0.6719743312124109  0.7500233890523662  1.0000
  H   H28       1.0  0.5351026414398136  0.3280609081274052  0.24999675524463075  1.0000
  Pb  Pb1       1.0  0.6895991482244312  0.7155646937158336  0.2499676151299752  1.0000
  Pb  Pb2       1.0  0.3118772255297202  0.2840406584967425  0.7499383498415001  1.0000
  C   C1        1.0  0.37759345943530326  0.7719560475446059  0.585494015186761  1.0000
  C   C2        1.0  0.6223465345453649  0.228082715634855  0.0854866906323082  1.0000
  C   C3        1.0  0.6223629400904045  0.22808858071515192  0.4145119396694597  1.0000
  C   C4        1.0  0.3775315884151381  0.7719658618211154  0.9145276497447696  1.0000
  C   C5        1.0  0.5951037012461171  0.8630127650578882  0.5455405998997238  1.0000
  C   C6        1.0  0.4047742547742388  0.13703465463663628  0.0455517386978599  1.0000
  C   C7        1.0  0.4048232113405774  0.1370347642266481  0.4544550361397839  1.0000
  C   C8        1.0  0.595020191345121  0.8630301792720729  0.9544819514815901  1.0000
  C   C9        1.0  0.42332484922025065  0.6410777493676105  0.4603634195512215  1.0000
  C   C10       1.0  0.5767067706049644  0.3589415010155932  0.9603252502417945  1.0000
  C   C11       1.0  0.5765879141699274  0.3589839984513006  0.5396302818413546  1.0000
  C   C12       1.0  0.42339129357190336  0.6410489131506125  0.039645875087906304  1.0000
  C   C13       1.0  0.7123778597174423  0.8385282243827419  0.46438706075885966  1.0000
  C   C14       1.0  0.2876064234699598  0.1614952810096213  0.9643783535996777  1.0000
  C   C15       1.0  0.28758403246877157  0.16151166340571874  0.5356098646764806  1.0000
  C   C16       1.0  0.7123459368476974  0.8385294919107056  0.0356308260695783  1.0000
  C   C17       1.0  0.22408069876020423  0.7968682658755099  0.6695458518026102  1.0000
  C   C18       1.0  0.7758626050081007  0.20316892767421987  0.16954438035335076  1.0000
  C   C19       1.0  0.7758764290381565  0.20316406413125776  0.33046203789565  1.0000
  C   C20       1.0  0.2240283305941303  0.7968758391960119  0.8304673800253397  1.0000
  C   C21       1.0  0.2986241353857438  0.6573762266141685  0.5418498579198783  1.0000
  C   C22       1.0  0.7013549595156547  0.3426516427435331  0.04182358717952891  1.0000
  C   C23       1.0  0.7013288021028926  0.34267219274103405  0.4581535171770454  1.0000
  C   C24       1.0  0.298647009229704  0.6573673509547646  0.9581649532796774  1.0000
  C   C25       1.0  0.41453674531428675  0.7707686480297511  0.7500144890955767  1.0000
  C   C26       1.0  0.585387743834758  0.2292713178589025  0.2500011405121185  1.0000
  N   N1        1.0  0.6255345435291418  0.7300897012579384  0.42160016259870053  1.0000
  N   N2        1.0  0.3745570072930704  0.26990750964154125  0.921567114958961  1.0000
  N   N3        1.0  0.3744151403798881  0.26995588830127554  0.5783896685352161  1.0000
  N   N4        1.0  0.6255745182522291  0.7300705367115087  0.0784065896919017  1.0000
  Cl  Cl1       1.0  0.22357636762909286  0.9033789728816258  0.2500292681279959  1.0000
  Cl  Cl2       1.0  0.7761918577691989  0.09637850001594467  0.7500392497364318  1.0000
  Cl  Cl3       1.0  0.1176029067779467  0.5280450683678168  0.2499654836472587  1.0000
  Cl  Cl4       1.0  0.8827135277073596  0.47161287731596246  0.7499688760559451  1.0000
