data_image0
_chemical_formula_structural       Al2H6C12S2N2O10F2
_chemical_formula_sum              "Al2 H6 C12 S2 N2 O10 F2"
_cell_length_a       6.754735468729591
_cell_length_b       8.81295753880229
_cell_length_c       12.851079088279848
_cell_angle_alpha    74.18536994571072
_cell_angle_beta     73.91979342416424
_cell_angle_gamma    75.23479058790821

_space_group_name_H-M_alt    "P 1"
_space_group_IT_number       1

loop_
  _space_group_symop_operation_xyz
  'x, y, z'

loop_
  _atom_site_type_symbol
  _atom_site_label
  _atom_site_symmetry_multiplicity
  _atom_site_fract_x
  _atom_site_fract_y
  _atom_site_fract_z
  _atom_site_occupancy
  Al  Al1       1.0  0.4999984296792661  0.49996464878101693  0.5000015765268556  1.0000
  Al  Al2       1.0  0.9999827748238559  0.4999606756329556  0.5000349332477255  1.0000
  H   H1        1.0  0.7807617599362687  0.6171760950539422  0.36529017807358594  1.0000
  H   H2        1.0  0.2192442106811399  0.3828329436529146  0.6347090248147038  1.0000
  H   H3        1.0  0.7540731441474338  0.8558555852842745  0.5200385355819889  1.0000
  H   H4        1.0  0.5853205315798391  0.033897888791322835  0.5478136320220273  1.0000
  H   H5        1.0  0.24591561591800834  0.144104401319531  0.4799964370420895  1.0000
  H   H6        1.0  0.4147077703408755  0.9660579032412504  0.45222564389400327  1.0000
  C   C1        1.0  0.35591902943119186  0.4988155261533508  0.3046667502070476  1.0000
  C   C2        1.0  0.16114119905289215  0.7876963168122232  0.4865077020441432  1.0000
  C   C3        1.0  0.6441276981961938  0.5011380667756172  0.6953318705980179  1.0000
  C   C4        1.0  0.8388558582422193  0.2122734461234757  0.5135092684726175  1.0000
  C   C5        1.0  0.8957770645386631  0.04153058127169373  0.5068099392318358  1.0000
  C   C6        1.0  0.1042726844304553  0.9584199024159262  0.4931620450066843  1.0000
  C   C7        1.0  0.40025263858764504  0.4793845314912845  0.8905124177933528  1.0000
  C   C8        1.0  0.5996856534680932  0.5207109805868982  0.10946159375488654  1.0000
  C   C9        1.0  0.5856431215940604  0.5024510609402527  0.8138219932372548  1.0000
  C   C10       1.0  0.4143373702206858  0.4975989267176218  0.18616410117549254  1.0000
  C   C11       1.0  0.5967866955956183  0.5144691255198526  0.001361208720538801  1.0000
  C   C12       1.0  0.40311026311333364  0.4856299745481039  0.9986283763199992  1.0000
  S   S1        1.0  0.7697315172611994  0.5324430888099488  0.8739827115908411  1.0000
  S   S2        1.0  0.23024006062512825  0.4676815217515868  0.12597836218701985  1.0000
  N   N1        1.0  0.7273633737553595  0.9770465244554676  0.5108295256122161  1.0000
  N   N2        1.0  0.27262857562163134  0.022933641053811033  0.4891415464202139  1.0000
  O   O1        1.0  0.49981202781314943  0.49930134680174404  0.3506925980832277  1.0000
  O   O2        1.0  0.01665454042264263  0.7176774792823011  0.48546921787077213  1.0000
  O   O3        1.0  0.8378260450954258  0.5008876998689402  0.6488441012433481  1.0000
  O   O4        1.0  0.6452067699713027  0.2798484823731329  0.5195514209794465  1.0000
  O   O5        1.0  0.500254831053013  0.5005721765393361  0.6493121341655479  1.0000
  O   O6        1.0  0.9833476519799264  0.28227705535760356  0.5145864144131452  1.0000
  O   O7        1.0  0.1622267900434693  0.49907426124316595  0.3511854816048582  1.0000
  O   O8        1.0  0.35479944336639585  0.7201217137821345  0.48046263829673547  1.0000
  O   O9        1.0  0.7548179936985308  0.5738505176666565  0.4447403951814407  1.0000
  O   O10       1.0  0.2451470518664394  0.42615585019184005  0.55526882890004  1.0000
  F   F1        1.0  0.2335210780429335  0.45010507153404705  0.8667492621714388  1.0000
  F   F2        1.0  0.7664812417918585  0.5499753564515188  0.13316748414482754  1.0000
