data_image0
_chemical_formula_structural       Y4H32C28N4O32
_chemical_formula_sum              "Y4 H32 C28 N4 O32"
_cell_length_a       7.431981274140622
_cell_length_b       9.151264899737326
_cell_length_c       15.647705147201867
_cell_angle_alpha    103.44858666638305
_cell_angle_beta     89.9990660633721
_cell_angle_gamma    89.99778740766827

_space_group_name_H-M_alt    "P 1"
_space_group_IT_number       1

loop_
  _space_group_symop_operation_xyz
  'x, y, z'

loop_
  _atom_site_type_symbol
  _atom_site_label
  _atom_site_symmetry_multiplicity
  _atom_site_fract_x
  _atom_site_fract_y
  _atom_site_fract_z
  _atom_site_occupancy
  Y   Y1        1.0  0.6836240227110009  0.991481847544222  0.7489398981109971  1.0000
  Y   Y2        1.0  0.18362058562910016  0.5085310897498871  0.7510628857689738  1.0000
  Y   Y3        1.0  0.3163691402223491  0.008521349998126499  0.25106352000815246  1.0000
  Y   Y4        1.0  0.8163725776179971  0.4914634062632289  0.24893345614955115  1.0000
  H   H1        1.0  0.02147549161183089  0.8269808589071134  0.6979875353754466  1.0000
  H   H2        1.0  0.521462594309966  0.6730419225259752  0.8020090717572614  1.0000
  H   H3        1.0  0.9785176716717527  0.17301376304971683  0.3020062683919633  1.0000
  H   H4        1.0  0.4785332599457276  0.3269523530355798  0.1979917119074912  1.0000
  H   H5        1.0  0.9990299714228995  0.8390206104290103  0.7959999632375345  1.0000
  H   H6        1.0  0.49903296443789447  0.6610192165948306  0.7039954707806332  1.0000
  H   H7        1.0  0.0009753014228976999  0.16098655445913582  0.2039919105921228  1.0000
  H   H8        1.0  0.5009790361425813  0.3389820177447406  0.2960018950308765  1.0000
  H   H9        1.0  0.42925565729365883  0.15135030904700392  0.8975908374705455  1.0000
  H   H10       1.0  0.929267646857191  0.3486568891318314  0.6024067583462979  1.0000
  H   H11       1.0  0.5707415420944597  0.8486584724984285  0.10241406850945377  1.0000
  H   H12       1.0  0.07072820746235212  0.6513376068312199  0.39758958355401575  1.0000
  H   H13       1.0  0.38430596919769033  0.18706406367510203  0.8025364684580155  1.0000
  H   H14       1.0  0.8843207135840601  0.31297378763839845  0.6974706149281715  1.0000
  H   H15       1.0  0.6156845022701273  0.8129524538415539  0.19747217040917772  1.0000
  H   H16       1.0  0.11568052305251797  0.6870151871181779  0.30252296997199585  1.0000
  H   H17       1.0  0.8000412712010243  0.0196831032193217  0.5614156099911654  1.0000
  H   H18       1.0  0.30003681737962035  0.4803321469463882  0.9385867850365415  1.0000
  H   H19       1.0  0.19993843636851233  0.9803213121439853  0.43858607527578647  1.0000
  H   H20       1.0  0.6999496179380598  0.5196700535520264  0.06141392430694741  1.0000
  H   H21       1.0  0.9410031646750523  0.8966699620817594  0.5717634583153386  1.0000
  H   H22       1.0  0.44100054521307175  0.6033310569998777  0.9282374041627222  1.0000
  H   H23       1.0  0.058981924999706274  0.10333676237890903  0.42823729917979864  1.0000
  H   H24       1.0  0.5589953088264533  0.3966673646677635  0.07177104209790743  1.0000
  H   H25       1.0  0.015206014883155195  0.3856139913558607  0.017841673576612007  1.0000
  H   H26       1.0  0.5151969945303915  0.11437311296843693  0.4821554754467385  1.0000
  H   H27       1.0  0.984803294742292  0.6143815330118799  0.9821567425160538  1.0000
  H   H28       1.0  0.48480693349121384  0.8856010408698798  0.5178403324886461  1.0000
  H   H29       1.0  0.7617786147646934  0.020492034559829602  0.1042192050194046  1.0000
  H   H30       1.0  0.2617566920545258  0.47949793400218976  0.39578282943868703  1.0000
  H   H31       1.0  0.23823069467788824  0.9795101969989167  0.8957808696315084  1.0000
  H   H32       1.0  0.7382445443095661  0.5204962155155073  0.6042204923407581  1.0000
  C   C1        1.0  0.9211331106360344  0.27982331336989574  0.8423060300737861  1.0000
  C   C2        1.0  0.4211414978051449  0.22020153759687838  0.6576840831541801  1.0000
  C   C3        1.0  0.07887081658231657  0.7201835366840045  0.15769218914275035  1.0000
  C   C4        1.0  0.5788624296436989  0.7797902082154664  0.3423220699557846  1.0000
  C   C5        1.0  0.8875529606421323  0.21170773232650938  0.9193998104764205  1.0000
  C   C6        1.0  0.3875578617433462  0.2883172136806352  0.5805912211557642  1.0000
  C   C7        1.0  0.11244693005284026  0.7882969660346293  0.08059616381394366  1.0000
  C   C8        1.0  0.612456830077363  0.7116748153047825  0.4194092210413487  1.0000
  C   C9        1.0  0.9405743171384341  0.280552063226935  0.00394724474453772  1.0000
  C   C10       1.0  0.44056818791045754  0.21944158016720647  0.4960494638433133  1.0000
  C   C11       1.0  0.05944171995789558  0.7194500737488598  0.9960547334741747  1.0000
  C   C12       1.0  0.5594438132201842  0.7805383150287286  0.5039446592367156  1.0000
  C   C13       1.0  0.8901602088671152  0.21527079054312998  0.07384723833578022  1.0000
  C   C14       1.0  0.39015588477771246  0.2847304388336839  0.42614910234026854  1.0000
  C   C15       1.0  0.10983699072963297  0.7847325958396852  0.9261523725293872  1.0000
  C   C16       1.0  0.6098547703062067  0.7152684863334219  0.5738491912157501  1.0000
  C   C17       1.0  0.799708809639611  0.0751806678925391  0.052109824840499606  1.0000
  C   C18       1.0  0.2997214674331587  0.4248237381025177  0.4478915472220422  1.0000
  C   C19       1.0  0.20027762560032153  0.924824933430273  0.947890761975451  1.0000
  C   C20       1.0  0.7002945695505285  0.575180456183354  0.5521145795635007  1.0000
  C   C21       1.0  0.7554965597900104  0.013076658659507199  0.9650607630576005  1.0000
  C   C22       1.0  0.2555191412950747  0.4869166317321504  0.5349392851733725  1.0000
  C   C23       1.0  0.2445006399895958  0.9869200205322955  0.03493718924931958  1.0000
  C   C24       1.0  0.7444968958500408  0.5130832275320716  0.46506298624296255  1.0000
  C   C25       1.0  0.6526780747278307  0.8671663628282646  0.9337836310018447  1.0000
  C   C26       1.0  0.15270685215271831  0.6328175588010369  0.5662117907376825  1.0000
  C   C27       1.0  0.3473191247927615  0.1328392068083417  0.0662175902790381  1.0000
  C   C28       1.0  0.8473011117659437  0.3671822691274613  0.43379111527107034  1.0000
  N   N1        1.0  0.7955418146501639  0.0816274329142246  0.8999692396531245  1.0000
  N   N2        1.0  0.2955682748529256  0.41839478575749933  0.6000329710111743  1.0000
  N   N3        1.0  0.20445673035785453  0.9183804144089227  0.10003168842102647  1.0000
  N   N4        1.0  0.7044504536188824  0.5815998357236722  0.39996083258322573  1.0000
  O   O1        1.0  0.8315766421272098  0.2227454750427001  0.7724380759546748  1.0000
  O   O2        1.0  0.33158153072042035  0.27724507906719964  0.7275590390261186  1.0000
  O   O3        1.0  0.16842997660864967  0.7772433421841002  0.22755868159795511  1.0000
  O   O4        1.0  0.6683995224599  0.72275837058789  0.27243930287276197  1.0000
  O   O5        1.0  0.030896796873243187  0.3875538881250479  0.8497484800250633  1.0000
  O   O6        1.0  0.5308954895901932  0.11246367294378251  0.650253190517205  1.0000
  O   O7        1.0  0.9690896382036694  0.6124572657900204  0.15025422921683435  1.0000
  O   O8        1.0  0.4691057470265532  0.88752645641155  0.34973993051525554  1.0000
  O   O9        1.0  0.9262998114155816  0.28238103643613505  0.1558488605641983  1.0000
  O   O10       1.0  0.42630252455897005  0.21761712664845592  0.3441588764563761  1.0000
  O   O11       1.0  0.07368124165963509  0.7176257195855629  0.8441512624204748  1.0000
  O   O12       1.0  0.5737027484760516  0.7823784607662461  0.655838270588049  1.0000
  O   O13       1.0  0.6220773028344693  0.832519758685493  0.8506000964672183  1.0000
  O   O14       1.0  0.12207092410780256  0.6675049261125566  0.6493953677717245  1.0000
  O   O15       1.0  0.37790644137427876  0.16748231591927984  0.1494031510455969  1.0000
  O   O16       1.0  0.8779222391000442  0.332484542188496  0.35061107860871493  1.0000
  O   O17       1.0  0.6015998280100587  0.7896537589967498  0.9863079392123454  1.0000
  O   O18       1.0  0.10158354839329319  0.7103659360986115  0.5137125010904313  1.0000
  O   O19       1.0  0.3984242823647006  0.21034369646196893  0.013697163498086709  1.0000
  O   O20       1.0  0.8984163423917263  0.2896329577828426  0.486286427076216  1.0000
  O   O21       1.0  0.9650505314988248  0.8955426404697279  0.7502986565363088  1.0000
  O   O22       1.0  0.46503456915075236  0.6044884062957651  0.7496944324212649  1.0000
  O   O23       1.0  0.034954741558784995  0.10445669411458171  0.24969138806502406  1.0000
  O   O24       1.0  0.5349639759929302  0.3955137939773437  0.2503062768402771  1.0000
  O   O25       1.0  0.44088029498249154  0.11331205395087104  0.8329147746280725  1.0000
  O   O26       1.0  0.9408938746580584  0.386710340747655  0.6670869568310281  1.0000
  O   O27       1.0  0.5591209408496738  0.8867034976823264  0.1670905208072995  1.0000
  O   O28       1.0  0.05911274404725478  0.6132808171625755  0.33290823844842526  1.0000
  O   O29       1.0  0.870267139503859  0.9829822828550263  0.6045876530016514  1.0000
  O   O30       1.0  0.37026554632035397  0.5170271099226512  0.895412482092624  1.0000
  O   O31       1.0  0.12972736899742898  0.01702469331782911  0.3954080281275196  1.0000
  O   O32       1.0  0.6297222342852461  0.4829827949108465  0.10459259462120235  1.0000
