data_image0
_chemical_formula_structural       Gd8H28C4S10O60
_chemical_formula_sum              "Gd8 H28 C4 S10 O60"
_cell_length_a       9.765986885525841
_cell_length_b       11.515470849667645
_cell_length_c       11.515469983766941
_cell_angle_alpha    66.90038087968779
_cell_angle_beta     87.76340417805349
_cell_angle_gamma    87.76349009555241

_space_group_name_H-M_alt    "P 1"
_space_group_IT_number       1

loop_
  _space_group_symop_operation_xyz
  'x, y, z'

loop_
  _atom_site_type_symbol
  _atom_site_label
  _atom_site_symmetry_multiplicity
  _atom_site_fract_x
  _atom_site_fract_y
  _atom_site_fract_z
  _atom_site_occupancy
  Gd  Gd1       1.0  0.09856746932177879  0.99832892178199  0.3342287676391251  1.0000
  Gd  Gd2       1.0  0.4014331784369248  0.6657703797908213  0.0016704546926077678  1.0000
  Gd  Gd3       1.0  0.9014330172715506  0.0016705660026304025  0.6657709333080815  1.0000
  Gd  Gd4       1.0  0.5985642385850056  0.33422909290362673  0.9983302327473638  1.0000
  Gd  Gd5       1.0  0.001475567405371702  0.5242938539143153  0.2325995596763732  1.0000
  Gd  Gd6       1.0  0.4985223536519783  0.7673995051228885  0.47570574552712225  1.0000
  Gd  Gd7       1.0  0.9985238645249553  0.47570657493355367  0.7673998152278685  1.0000
  Gd  Gd8       1.0  0.5014771083064744  0.23259997934010804  0.5242939941695397  1.0000
  H   H1        1.0  0.9410918878472572  0.8070678241818712  0.20779329816163278  1.0000
  H   H2        1.0  0.558906728105093  0.7922073099855923  0.19293255699831488  1.0000
  H   H3        1.0  0.05891061798767788  0.19293261463086958  0.7922059604942288  1.0000
  H   H4        1.0  0.4410958120911772  0.2077921793169892  0.8070679366943594  1.0000
  H   H5        1.0  0.8153774580141333  0.741688989215035  0.17777478072294167  1.0000
  H   H6        1.0  0.6846185193227042  0.8222344311089742  0.2583078167863206  1.0000
  H   H7        1.0  0.18462596503844964  0.2583143065751443  0.8222198638286357  1.0000
  H   H8        1.0  0.3153841496524876  0.17776127040352213  0.7416958765648332  1.0000
  H   H9        1.0  0.7832529924237406  0.4364767960173311  0.4294495237134086  1.0000
  H   H10       1.0  0.7167516144594116  0.5705502108727954  0.5635218164516402  1.0000
  H   H11       1.0  0.21674858319391888  0.5635208011938815  0.5705517383135826  1.0000
  H   H12       1.0  0.2832519590381324  0.4294492715008076  0.4364803789803489  1.0000
  H   H13       1.0  0.9207890504310753  0.377101281297776  0.4971777487144634  1.0000
  H   H14       1.0  0.5792132351648219  0.5028221581155847  0.6228971932019646  1.0000
  H   H15       1.0  0.0792115562747568  0.6228944289473617  0.5028234114024527  1.0000
  H   H16       1.0  0.42078832342433264  0.497176368104604  0.3771063147657543  1.0000
  H   H17       1.0  0.8458925649596194  0.05500033284624809  0.16705348436451567  1.0000
  H   H18       1.0  0.6541066763869452  0.8329462674454433  0.9450004583535117  1.0000
  H   H19       1.0  0.15411096117697548  0.9450001144134175  0.8329448652974988  1.0000
  H   H20       1.0  0.3458907192732709  0.16705413938328212  0.0550016047828024  1.0000
  H   H21       1.0  0.8124965484148987  0.9405620498069498  0.29681876697866016  1.0000
  H   H22       1.0  0.6875036122724651  0.7031827893808682  0.0594381524629952  1.0000
  H   H23       1.0  0.1875049284519577  0.05943839080946839  0.7031796601822788  1.0000
  H   H24       1.0  0.3124937446932066  0.2968185720833247  0.9405618053921216  1.0000
  H   H25       1.0  0.2572274976791745  0.8229228551856809  0.6852848371943521  1.0000
  H   H26       1.0  0.24276569625195066  0.31471477193177577  0.17707418287603358  1.0000
  H   H27       1.0  0.7427688389848369  0.17707849783159446  0.31471602965461176  1.0000
  H   H28       1.0  0.7572306617737752  0.6852856469512218  0.8229253082765877  1.0000
  C   C1        1.0  0.2160584572432569  0.8763749481995828  0.5908523300381816  1.0000
  C   C2        1.0  0.28394778038099827  0.4091493965277806  0.12361952575636076  1.0000
  C   C3        1.0  0.7839399800803335  0.12362453294178981  0.4091474484079498  1.0000
  C   C4        1.0  0.7160465584031214  0.5908500713270897  0.8763804076876055  1.0000
  S   S1        1.0  0.9649139201183913  0.2834058466885593  0.09959363542604653  1.0000
  S   S2        1.0  0.5350836229907117  0.9004060475808227  0.7165949579768096  1.0000
  S   S3        1.0  0.0350866051694751  0.7165926864605935  0.9004081708023577  1.0000
  S   S4        1.0  0.464915873329076  0.0995924873720071  0.2834060167566718  1.0000
  S   S5        1.0  0.8633444463755282  0.7667021182326864  0.5329487613738735  1.0000
  S   S6        1.0  0.6366552264090687  0.4670489934874026  0.23329795278866072  1.0000
  S   S7        1.0  0.1366559801615352  0.2332992583216793  0.46705020998847857  1.0000
  S   S8        1.0  0.36334523448933714  0.5329514335567964  0.7667022536105108  1.0000
  S   S9        1.0  0.2500020071807397  0.7541089466944157  0.2458901175708945  1.0000
  S   S10       1.0  0.7499995083806539  0.24589053928653468  0.754110414871235  1.0000
  O   O1        1.0  0.9036070582384426  0.7256653626535653  0.2181572197929711  1.0000
  O   O2        1.0  0.5963955287562541  0.7818417912978931  0.27433550390209394  1.0000
  O   O3        1.0  0.0963923436637515  0.2743360105791767  0.7818417903188432  1.0000
  O   O4        1.0  0.40360493214215143  0.21815863574630612  0.7256647024970773  1.0000
  O   O5        1.0  0.745385001232492  0.8057319978138863  0.44649645871840704  1.0000
  O   O6        1.0  0.7546179077882089  0.5535036293141786  0.19426737120647172  1.0000
  O   O7        1.0  0.254617504602443  0.19426844099886148  0.5535027999374549  1.0000
  O   O8        1.0  0.245381554170244  0.4464958551488182  0.8057323684901972  1.0000
  O   O9        1.0  0.8817965305799333  0.45318311455024934  0.4314866142722096  1.0000
  O   O10       1.0  0.6182026326542669  0.5685138736814395  0.5468131041632844  1.0000
  O   O11       1.0  0.11820408045910817  0.546812590569587  0.5685154160890916  1.0000
  O   O12       1.0  0.3817957703079884  0.4314865569700999  0.45318543924602744  1.0000
  O   O13       1.0  0.8783529202964644  0.9705023216139705  0.224853658815988  1.0000
  O   O14       1.0  0.6216477173838796  0.7751475770358952  0.029495218482381208  1.0000
  O   O15       1.0  0.12165060584013078  0.029498125645695004  0.7751446908460264  1.0000
  O   O16       1.0  0.3783527091531909  0.2248537995184705  0.9705037528799706  1.0000
  O   O17       1.0  0.1052325360489732  0.9409681803212279  0.5784184894788494  1.0000
  O   O18       1.0  0.39475931560784255  0.42158015445468083  0.059036004495318664  1.0000
  O   O19       1.0  0.8947667971305504  0.0590350919318539  0.421578050559333  1.0000
  O   O20       1.0  0.6052411709854794  0.5784193333299399  0.9409636964518882  1.0000
  O   O21       1.0  0.992997728311579  0.7985425592474231  0.455697854732655  1.0000
  O   O22       1.0  0.5070027813844221  0.5443016525244245  0.20145735362938672  1.0000
  O   O23       1.0  0.007003757221689  0.20145787111840008  0.544302312917054  1.0000
  O   O24       1.0  0.4929977008756978  0.45569784038549704  0.798541477073435  1.0000
  O   O25       1.0  0.05824869555619469  0.1704143859314087  0.1497511809811627  1.0000
  O   O26       1.0  0.4417541498468438  0.8502472708544178  0.8295840868431268  1.0000
  O   O27       1.0  0.941753741556063  0.8295879519016721  0.8502456076010744  1.0000
  O   O28       1.0  0.5582453121116088  0.14975221360857918  0.1704156528535421  1.0000
  O   O29       1.0  0.9516978152781519  0.3460758994499713  0.1905061798045082  1.0000
  O   O30       1.0  0.5483031973678081  0.8094937323236948  0.6539224040777325  1.0000
  O   O31       1.0  0.04830267564837949  0.6539235832093553  0.8094943913870907  1.0000
  O   O32       1.0  0.4516972935587233  0.1905057503356318  0.346078167113859  1.0000
  O   O33       1.0  0.27887672435355176  0.8722895857184199  0.4934436335400391  1.0000
  O   O34       1.0  0.2211187531630827  0.506555396389551  0.12771086413490443  1.0000
  O   O35       1.0  0.7211237665729797  0.12770989694090668  0.5065569376515526  1.0000
  O   O36       1.0  0.7788797485499684  0.49344219085677565  0.8722905141404594  1.0000
  O   O37       1.0  0.8295269999185989  0.24070276030437293  0.07792374526410131  1.0000
  O   O38       1.0  0.6704735309452302  0.9220786293120397  0.7592939800181496  1.0000
  O   O39       1.0  0.1704715017944523  0.7592948269419538  0.9220776330112698  1.0000
  O   O40       1.0  0.3295258752901731  0.07792273879540092  0.24070590033804956  1.0000
  O   O41       1.0  0.027619983361354593  0.37141293113429447  0.9800278557170258  1.0000
  O   O42       1.0  0.4723789136961756  0.0199710474970445  0.6285873011315387  1.0000
  O   O43       1.0  0.972378359544642  0.6285893882869898  0.019969958107431324  1.0000
  O   O44       1.0  0.5276195236274148  0.9800284336443211  0.37141247731459265  1.0000
  O   O45       1.0  0.1622714043259421  0.6437826543952809  0.27417259337309463  1.0000
  O   O46       1.0  0.3377260778641897  0.725830549360154  0.3562145705164069  1.0000
  O   O47       1.0  0.8377290909337985  0.3562168231387517  0.7258288480628888  1.0000
  O   O48       1.0  0.6622743873674182  0.2741698725587511  0.6437865061271424  1.0000
  O   O49       1.0  0.8615763305399182  0.6270474615558044  0.6050997259517245  1.0000
  O   O50       1.0  0.6384234116987813  0.3948988113429125  0.3729540212959391  1.0000
  O   O51       1.0  0.13842515932655888  0.3729529636847245  0.3949013119423697  1.0000
  O   O52       1.0  0.3615761103159301  0.6050987843503393  0.6270464479855846  1.0000
  O   O53       1.0  0.1637480817504482  0.8693164614685571  0.22537852005899597  1.0000
  O   O54       1.0  0.33624695643487  0.7746196386691083  0.13068525651169688  1.0000
  O   O55       1.0  0.8362524091760832  0.13068302119076952  0.7746220511325959  1.0000
  O   O56       1.0  0.6637525398849249  0.22537889628372199  0.8693157182217844  1.0000
  O   O57       1.0  0.8511714894781689  0.8283223060581192  0.622818745848754  1.0000
  O   O58       1.0  0.6488287767445938  0.3771817548987499  0.1716794716919239  1.0000
  O   O59       1.0  0.1488289370589015  0.17167907049624628  0.3771802255135981  1.0000
  O   O60       1.0  0.3511716754873929  0.6228186823960443  0.8283189942184704  1.0000
