data_image0
_chemical_formula_structural       Dy2P2H24C26N2O22
_chemical_formula_sum              "Dy2 P2 H24 C26 N2 O22"
_cell_length_a       7.263379579408609
_cell_length_b       9.554392082926983
_cell_length_c       12.312478984324688
_cell_angle_alpha    68.65713102599194
_cell_angle_beta     91.70235186127086
_cell_angle_gamma    88.90630830346487

_space_group_name_H-M_alt    "P 1"
_space_group_IT_number       1

loop_
  _space_group_symop_operation_xyz
  'x, y, z'

loop_
  _atom_site_type_symbol
  _atom_site_label
  _atom_site_symmetry_multiplicity
  _atom_site_fract_x
  _atom_site_fract_y
  _atom_site_fract_z
  _atom_site_occupancy
  Dy  Dy1       1.0  0.7453522296569658  0.6998320321001473  0.5910688894781868  1.0000
  Dy  Dy2       1.0  0.2546276622005266  0.30018074860944916  0.4089306932009079  1.0000
  P   P1        1.0  0.7142436382809336  0.48239083473744415  0.8922633389896362  1.0000
  P   P2        1.0  0.2857534491440035  0.5176047951374086  0.10773809678617852  1.0000
  H   H1        1.0  0.12044491466593141  0.7288031590759942  0.6576683188595566  1.0000
  H   H2        1.0  0.8795268278230637  0.2711943376865591  0.3423234505157993  1.0000
  H   H3        1.0  0.10055199680576983  0.9012634419731711  0.5862989031349172  1.0000
  H   H4        1.0  0.8994367406838534  0.0987417774092805  0.41369075337979666  1.0000
  H   H5        1.0  0.6415204728922249  0.5311268752784457  0.04986482857621164  1.0000
  H   H6        1.0  0.35846939156739666  0.4688705711583195  0.9501327770695692  1.0000
  H   H7        1.0  0.7713093061212817  0.7275181296698746  0.29203341921958526  1.0000
  H   H8        1.0  0.2287055582293007  0.27247965951109887  0.7079707723826087  1.0000
  H   H9        1.0  0.5835780190918242  0.7432978556298053  0.042339787977837856  1.0000
  H   H10       1.0  0.41642341103042213  0.2566957376807223  0.9576606461766914  1.0000
  H   H11       1.0  0.5154134137741623  0.7910219964368324  0.8469719191169386  1.0000
  H   H12       1.0  0.4845979951071015  0.2089788591652919  0.1530207969085566  1.0000
  H   H13       1.0  0.5893293195526469  0.043911239636443604  0.6955800740089513  1.0000
  H   H14       1.0  0.41068572846808854  0.9560842614446019  0.3044215331911459  1.0000
  H   H15       1.0  0.7352998253599594  0.23190393170489904  0.7577539418384375  1.0000
  H   H16       1.0  0.2646976678222543  0.7681008148445584  0.24224972699288114  1.0000
  H   H17       1.0  0.964147971937294  0.21993587797341263  0.13690457207361817  1.0000
  H   H18       1.0  0.035857456595508146  0.7800602661823602  0.863100838527572  1.0000
  H   H19       1.0  0.889801758391755  0.9670026042827047  0.27409403924972503  1.0000
  H   H20       1.0  0.11020961320985379  0.032988125111458495  0.7259048626840181  1.0000
  H   H21       1.0  0.9187395490035968  0.3491845523078112  0.8134224228928912  1.0000
  H   H22       1.0  0.0812639794616103  0.6508148243189141  0.18657797432592105  1.0000
  H   H23       1.0  0.018305436458248895  0.3859357368286851  0.9319301577495905  1.0000
  H   H24       1.0  0.9816875380466143  0.61405966393  0.06807131377286883  1.0000
  C   C1        1.0  0.5870765086590167  0.8762332366150645  0.8693735242714665  1.0000
  C   C2        1.0  0.412937757436687  0.1237678277797585  0.13062321424159506  1.0000
  C   C3        1.0  0.6298122220077786  0.015449287073487  0.7867878363167261  1.0000
  C   C4        1.0  0.37020159260266183  0.9845438271161342  0.21320957986934985  1.0000
  C   C5        1.0  0.7135396690637421  0.12066856325706961  0.8225042458582053  1.0000
  C   C6        1.0  0.2864696656654289  0.8793300869050854  0.17750290413470537  1.0000
  C   C7        1.0  0.7640651719178846  0.08680265753972799  0.9415539118582144  1.0000
  C   C8        1.0  0.23594354150286986  0.9131992566265622  0.05844497578183197  1.0000
  C   C9        1.0  0.8530908248321367  0.18949563834053146  0.9841091258793921  1.0000
  C   C10       1.0  0.14690594098047427  0.810503401264782  0.01589456797210433  1.0000
  C   C11       1.0  0.89509193047099  0.1430594514486501  0.10293786725608099  1.0000
  C   C12       1.0  0.10491164410131398  0.8569399475975104  0.8970641484902017  1.0000
  C   C13       1.0  0.853540988821173  0.9992081266229748  0.18161355904305754  1.0000
  C   C14       1.0  0.14647592738617016  0.0007942345659230967  0.8183844478399604  1.0000
  C   C15       1.0  0.7660347679269747  0.8968201878961253  0.14297063351930475  1.0000
  C   C16       1.0  0.2339789694536023  0.10318537423054149  0.8570256089518221  1.0000
  C   C17       1.0  0.7206930239096111  0.9419606722769488  0.02169303855250603  1.0000
  C   C18       1.0  0.27931254218624707  0.0580331613594609  0.9783081691191168  1.0000
  C   C19       1.0  0.8943771744645518  0.3439310622265097  0.9020910282304794  1.0000
  C   C20       1.0  0.10562302262650998  0.6560613330814249  0.09790974416602441  1.0000
  C   C21       1.0  0.5439208864656919  0.4290330004151174  0.5479994912907101  1.0000
  C   C22       1.0  0.4560524717582339  0.5709747998149055  0.4519933636344574  1.0000
  C   C23       1.0  0.958955369255733  0.5402819002992487  0.4375346266405343  1.0000
  C   C24       1.0  0.041056547940868875  0.4597227685831769  0.5624894809550723  1.0000
  C   C25       1.0  0.5749442579847327  0.0397532162070604  0.4566142807472246  1.0000
  C   C26       1.0  0.42504614941612556  0.9602498474961083  0.5433768257685114  1.0000
  N   N1        1.0  0.6308028423390938  0.844461692095159  0.9818430485808133  1.0000
  N   N2        1.0  0.36921048966330977  0.1555359422457414  0.01815549009079119  1.0000
  O   O1        1.0  0.7455389917125286  0.6216743393258853  0.7830396444134421  1.0000
  O   O2        1.0  0.25445382141750633  0.3783209829647732  0.21695616226287479  1.0000
  O   O3        1.0  0.028012212414282082  0.8093276404421985  0.6216392150756817  1.0000
  O   O4        1.0  0.9719649371173915  0.19068379863445273  0.378355862178516  1.0000
  O   O5        1.0  0.7561612022853694  0.5192658673181542  0.0062095724680374925  1.0000
  O   O6        1.0  0.24383681923286823  0.4807331926106286  0.9937900631492337  1.0000
  O   O7        1.0  0.5211671439625575  0.42117605637040617  0.8959843475186628  1.0000
  O   O8        1.0  0.4788281359880742  0.5788240397031003  0.10401984118569635  1.0000
  O   O9        1.0  0.7186224597846332  0.7579959730102958  0.20958201743613353  1.0000
  O   O10       1.0  0.2813952379686313  0.24199963597599347  0.7904163288779245  1.0000
  O   O11       1.0  0.6529601926084112  0.4526049433154213  0.6214769959755486  1.0000
  O   O12       1.0  0.34701465223571404  0.5474041782240774  0.37852442260872715  1.0000
  O   O13       1.0  0.5010549813771448  0.3030342917952353  0.5446201072817232  1.0000
  O   O14       1.0  0.4989298414677706  0.6969797142581982  0.4553645346615339  1.0000
  O   O15       1.0  0.8679214605563956  0.6628992334370382  0.42118771901973406  1.0000
  O   O16       1.0  0.13209757818478352  0.33711248894429247  0.5788246479592585  1.0000
  O   O17       1.0  0.9859148265503846  0.4809302774763893  0.3635126232650591  1.0000
  O   O18       1.0  0.014106020802415666  0.5190805453727947  0.6365105785533557  1.0000
  O   O19       1.0  0.7279882000728432  0.9656878768383025  0.46881701283140126  1.0000
  O   O20       1.0  0.27201679082168795  0.034309243221670706  0.5311775510148279  1.0000
  O   O21       1.0  0.5351220209634704  0.1682721615455591  0.3823429586100672  1.0000
  O   O22       1.0  0.4648552595952752  0.8317131815584489  0.6176491275543086  1.0000
