data_image0
_chemical_formula_structural       Ag4H40C20S4N4O8
_chemical_formula_sum              "Ag4 H40 C20 S4 N4 O8"
_cell_length_a       7.71861877889952
_cell_length_b       11.029195161251486
_cell_length_c       8.984820601636793
_cell_angle_alpha    93.86498505152512
_cell_angle_beta     89.9992452588008
_cell_angle_gamma    89.9986025452464

_space_group_name_H-M_alt    "P 1"
_space_group_IT_number       1

loop_
  _space_group_symop_operation_xyz
  'x, y, z'

loop_
  _atom_site_type_symbol
  _atom_site_label
  _atom_site_symmetry_multiplicity
  _atom_site_fract_x
  _atom_site_fract_y
  _atom_site_fract_z
  _atom_site_occupancy
  Ag  Ag1       1.0  0.20872931727508603  0.1001750511265485  0.39248666995150944  1.0000
  Ag  Ag2       1.0  0.7087239420440169  0.39982475361468783  0.6075192515909721  1.0000
  Ag  Ag3       1.0  0.7912642868431874  0.8998210782496372  0.6075162264288991  1.0000
  Ag  Ag4       1.0  0.29128002612134907  0.6001907723153794  0.39247025836871796  1.0000
  H   H1        1.0  0.11580355646325557  0.257809466155642  0.8058525524376137  1.0000
  H   H2        1.0  0.6158353698257599  0.24218516262479287  0.1941535889732222  1.0000
  H   H3        1.0  0.8842004117092798  0.7421939767270306  0.19414894721560935  1.0000
  H   H4        1.0  0.38417118952334306  0.7578108533551742  0.8058548618749698  1.0000
  H   H5        1.0  0.6835400507622964  0.16082248538868532  0.9778270857381345  1.0000
  H   H6        1.0  0.1835453885469533  0.33917215597168854  0.0221846595500779  1.0000
  H   H7        1.0  0.31642764126792844  0.8392013522608366  0.022156685041665  1.0000
  H   H8        1.0  0.8164404417844363  0.6607959912471703  0.9778506897451963  1.0000
  H   H9        1.0  0.8725357349060232  0.07332685279839522  0.9326073270997952  1.0000
  H   H10       1.0  0.3725409100335709  0.4266667963718406  0.06738853399080821  1.0000
  H   H11       1.0  0.1274449097614152  0.9267027302520463  0.06740715601827672  1.0000
  H   H12       1.0  0.6274591744639009  0.5733020791823904  0.932611271823305  1.0000
  H   H13       1.0  0.7881529224087912  0.17316204724626522  0.799929879665541  1.0000
  H   H14       1.0  0.2881629562592564  0.3268420759059297  0.2000810684402978  1.0000
  H   H15       1.0  0.2118342036186789  0.8268507528336855  0.2000593203172372  1.0000
  H   H16       1.0  0.711835827052525  0.6731551425878309  0.7999575785042837  1.0000
  H   H17       1.0  0.3992347083164489  0.0002614564237716971  0.6341094360521426  1.0000
  H   H18       1.0  0.8992284310178817  0.49973175860337443  0.365891249516352  1.0000
  H   H19       1.0  0.600761487797314  0.9997274507867927  0.3658904147082609  1.0000
  H   H20       1.0  0.1007755382078628  0.5002663699716409  0.6341029674121332  1.0000
  H   H21       1.0  0.5337295273847148  0.13092157800186047  0.636398244376899  1.0000
  H   H22       1.0  0.033744018845865795  0.3690726793363696  0.3635807884330262  1.0000
  H   H23       1.0  0.4662666695802073  0.8690721900211644  0.3635865709336201  1.0000
  H   H24       1.0  0.9662625417183577  0.6309282884503206  0.6364081839364104  1.0000
  H   H25       1.0  0.2646416225628839  0.0723025360099001  0.8761562167341594  1.0000
  H   H26       1.0  0.764649005972103  0.4276888829545059  0.12383314554701742  1.0000
  H   H27       1.0  0.7353532783849487  0.9276920494507124  0.12383314456731397  1.0000
  H   H28       1.0  0.23535755571697334  0.572303999627863  0.8761504565213942  1.0000
  H   H29       1.0  0.4017850782566795  0.20237758676952214  0.8886092580336253  1.0000
  H   H30       1.0  0.9018072175535962  0.2976186728696533  0.11138312044736412  1.0000
  H   H31       1.0  0.5982150042375379  0.7976168168412131  0.11138898959827509  1.0000
  H   H32       1.0  0.09819804727368359  0.70237109755292  0.8886190553348995  1.0000
  H   H33       1.0  0.0888947028628664  0.0430847173754501  0.6628662800172905  1.0000
  H   H34       1.0  0.5889029840248056  0.4569130132843569  0.3371375435936201  1.0000
  H   H35       1.0  0.9111027872847968  0.9569186798367896  0.3371374408095278  1.0000
  H   H36       1.0  0.41109450703920913  0.5430915426286094  0.6628540619340272  1.0000
  H   H37       1.0  0.9814439870739943  0.15968491041902413  0.5964560973947215  1.0000
  H   H38       1.0  0.4814579002005174  0.34030941131794634  0.40353616692724614  1.0000
  H   H39       1.0  0.0185573907545091  0.8403150122711198  0.4035394362151195  1.0000
  H   H40       1.0  0.5185473635276949  0.6596921691692403  0.5964673482481118  1.0000
  C   C1        1.0  0.2968644585063487  0.3111827910694062  0.6439543893018681  1.0000
  C   C2        1.0  0.7968975477947141  0.18881836970253826  0.35604706782655177  1.0000
  C   C3        1.0  0.7031291453969784  0.6888216509967509  0.35604276980736677  1.0000
  C   C4        1.0  0.2031193767979786  0.8111861867303463  0.6439445387236304  1.0000
  C   C5        1.0  0.20274969979003998  0.20973050115525643  0.723564981046657  1.0000
  C   C6        1.0  0.702771374151304  0.2902627843300537  0.2764318161507262  1.0000
  C   C7        1.0  0.7972464963688565  0.7902649245608302  0.2764278156248849  1.0000
  C   C8        1.0  0.2972351856656488  0.7097352078228881  0.7235690654574114  1.0000
  C   C9        1.0  0.7548416783013251  0.11211393020641942  0.8869558734707113  1.0000
  C   C10       1.0  0.25484829092356875  0.38788754748578214  0.11304924445148863  1.0000
  C   C11       1.0  0.24514026466515296  0.8879033210731611  0.11303828441946712  1.0000
  C   C12       1.0  0.7451491990951381  0.612097225424975  0.8869746309149562  1.0000
  C   C13       1.0  0.46331322090835403  0.0701367278953668  0.7074068406031556  1.0000
  C   C14       1.0  0.963323110474107  0.42986028021785233  0.29258281690680127  1.0000
  C   C15       1.0  0.5366855660953789  0.9298558359991207  0.292592311657316  1.0000
  C   C16       1.0  0.0366847452101879  0.5701415050757463  0.7074107015899216  1.0000
  C   C17       1.0  0.3340737276492192  0.13766417639099163  0.8109149022076211  1.0000
  C   C18       1.0  0.8340811235878218  0.36233379684961875  0.1890765219625195  1.0000
  C   C19       1.0  0.6659289461705882  0.8623312040012655  0.18908011631919666  1.0000
  C   C20       1.0  0.16592543675572807  0.6376615381494943  0.8109207182832422  1.0000
  S   S1        1.0  0.6245808410909672  0.9874938784834488  0.8079998051134327  1.0000
  S   S2        1.0  0.124586467022759  0.5125120954115516  0.1919984302778275  1.0000
  S   S3        1.0  0.37542053543715065  0.012515015128954608  0.1920023125848829  1.0000
  S   S4        1.0  0.8754239801304138  0.48748512487025414  0.8079956839612594  1.0000
  N   N1        1.0  0.1030154493162385  0.12756497168798833  0.6207958195240622  1.0000
  N   N2        1.0  0.6030256331710362  0.37242715532200077  0.379208768950889  1.0000
  N   N3        1.0  0.8969794505525996  0.8724312032199892  0.37920485541007315  1.0000
  N   N4        1.0  0.3969809259760097  0.6275790357780837  0.6207919291721639  1.0000
  O   O1        1.0  0.2723711464984859  0.31804329157070305  0.5047023635944399  1.0000
  O   O2        1.0  0.7724080036232054  0.18195578675272375  0.4952897486415965  1.0000
  O   O3        1.0  0.7276405972571282  0.6819458207928832  0.49528749116900883  1.0000
  O   O4        1.0  0.22763482892135298  0.8180665074808221  0.5047250242638768  1.0000
  O   O5        1.0  0.39218996166751197  0.3816197508267507  0.7265933701397956  1.0000
  O   O6        1.0  0.8922227377021555  0.11837247556373144  0.2733920332660276  1.0000
  O   O7        1.0  0.607801050754034  0.6183873938210384  0.2734052086810408  1.0000
  O   O8        1.0  0.10776179761805338  0.8816236990669497  0.726608641122759  1.0000
