data_image0
_chemical_formula_structural       Co3H72C120N24
_chemical_formula_sum              "Co3 H72 C120 N24"
_cell_length_a       9.29067508519396
_cell_length_b       19.118747569228013
_cell_length_c       19.115114929012655
_cell_angle_alpha    117.43684677242439
_cell_angle_beta     99.33263959518787
_cell_angle_gamma    99.3179448009708

_space_group_name_H-M_alt    "P 1"
_space_group_IT_number       1

loop_
  _space_group_symop_operation_xyz
  'x, y, z'

loop_
  _atom_site_type_symbol
  _atom_site_label
  _atom_site_symmetry_multiplicity
  _atom_site_fract_x
  _atom_site_fract_y
  _atom_site_fract_z
  _atom_site_occupancy
  Co  Co1       1.0  0.5000157014204163  0.5000040324923203  0.5000154427737653  1.0000
  Co  Co2       1.0  0.9999910837283607  5.3596531656999465e-06  0.5000084218935752  1.0000
  Co  Co3       1.0  0.9999992108241925  0.49997933508571885  0.9999787204642342  1.0000
  H   H1        1.0  0.08965018164622042  0.34296226608418573  0.573665538533703  1.0000
  H   H2        1.0  0.06218787896401074  0.4981544004570538  0.6427603727056166  1.0000
  H   H3        1.0  0.6610766755789328  0.23042304367751137  0.34348319497767216  1.0000
  H   H4        1.0  0.43091793019276997  0.1888930172409715  0.398903178673386  1.0000
  H   H5        1.0  0.03313220433312834  0.4136108856061824  0.4311853470397293  1.0000
  H   H6        1.0  0.18028890045151508  0.33121663566720366  0.34282030485296383  1.0000
  H   H7        1.0  0.8028586872503852  0.2020073345505935  0.14329918077613965  1.0000
  H   H8        1.0  0.6381029310986862  0.27782063623410386  0.22400981715308885  1.0000
  H   H9        1.0  0.4355840483518563  0.2638161907880985  0.5830428383963591  1.0000
  H   H10       1.0  0.31988154246762684  0.1321149046732089  0.5753833768758267  1.0000
  H   H11       1.0  0.9441799847873044  0.0803515420754195  0.39253150837840417  1.0000
  H   H12       1.0  0.04556286583243008  0.2090520765163504  0.3911955123972106  1.0000
  H   H13       1.0  0.9103454515957308  0.6570549785242435  0.4263599571828038  1.0000
  H   H14       1.0  0.9378177405488942  0.5018610050534278  0.35724884496666215  1.0000
  H   H15       1.0  0.33891641056641925  0.7695825676634981  0.6565184300422046  1.0000
  H   H16       1.0  0.5691006847620558  0.811115655790907  0.6011060536018107  1.0000
  H   H17       1.0  0.9668778924775623  0.5863916634218428  0.5688046981311956  1.0000
  H   H18       1.0  0.8197023449812447  0.6687852994095067  0.6571596017832559  1.0000
  H   H19       1.0  0.19710875132328448  0.7980080676293612  0.8566923789419931  1.0000
  H   H20       1.0  0.36188427644352567  0.7221972156325903  0.7759896603138755  1.0000
  H   H21       1.0  0.5644358740257758  0.7361863656921274  0.4169877434899689  1.0000
  H   H22       1.0  0.6801261318407796  0.8678980583264674  0.4246567892580656  1.0000
  H   H23       1.0  0.055828952747041985  0.9196595845546797  0.6075073880549837  1.0000
  H   H24       1.0  0.9544516024571905  0.7909504797756951  0.6088341165215637  1.0000
  H   H25       1.0  0.7468175792084539  0.230671679809987  0.6570923270201162  1.0000
  H   H26       1.0  0.5640671574058375  0.144539447433047  0.5018966497398906  1.0000
  H   H27       1.0  0.4310647801027301  0.1133272905000808  0.769697664738082  1.0000
  H   H28       1.0  0.24213100939698504  0.2101020875064847  0.8113101613378999  1.0000
  H   H29       1.0  0.620286400999042  0.017550482561361498  0.5863780864123453  1.0000
  H   H30       1.0  0.8496798754728517  0.0116513719916469  0.6689936892120371  1.0000
  H   H31       1.0  0.6009144652211375  0.9414596175966992  0.7980220711894571  1.0000
  H   H32       1.0  0.3606499540133043  0.9466059067965702  0.7222129636616968  1.0000
  H   H33       1.0  0.1717514698165061  0.3193703252158429  0.7362812218723035  1.0000
  H   H34       1.0  0.18749082423942545  0.4434716555423464  0.8679468325621398  1.0000
  H   H35       1.0  0.8639573838507388  0.3123028590057046  0.9197282437343544  1.0000
  H   H36       1.0  0.8365786873598041  0.18225232581839626  0.7909658295735225  1.0000
  H   H37       1.0  0.2531613159074125  0.7693186339126257  0.34292885842386767  1.0000
  H   H38       1.0  0.43591364532358046  0.8554808582789943  0.4981337961445431  1.0000
  H   H39       1.0  0.5689511928461783  0.8866979105809775  0.2303268216658337  1.0000
  H   H40       1.0  0.7578886184691527  0.7899151550155352  0.18870362218297027  1.0000
  H   H41       1.0  0.37972189594598366  0.9824790018320608  0.4136409677737871  1.0000
  H   H42       1.0  0.15031835945010372  0.9883536281050807  0.33101224503288745  1.0000
  H   H43       1.0  0.39906882532579163  0.058526405663862094  0.20196557187725966  1.0000
  H   H44       1.0  0.6393463650785806  0.053403988904257495  0.2777887974692489  1.0000
  H   H45       1.0  0.8282532939915512  0.6806193731074401  0.2637213155587545  1.0000
  H   H46       1.0  0.8125238509423554  0.5565247757431208  0.13205801849257875  1.0000
  H   H47       1.0  0.1360550708533166  0.687697857026613  0.08027892965852595  1.0000
  H   H48       1.0  0.16341461098779322  0.8177471651177443  0.20903613113947733  1.0000
  H   H49       1.0  0.5162322845166329  0.4261389605414152  0.7691683973268155  1.0000
  H   H50       1.0  0.41961211949580973  0.3572037860215858  0.8553841272066477  1.0000
  H   H51       1.0  0.31742858635949023  0.6564309492178423  0.886747430964462  1.0000
  H   H52       1.0  0.03162783146736093  0.6013038299975406  0.7900174968525915  1.0000
  H   H53       1.0  0.6025440833178094  0.5687190165408893  0.9823555051406031  1.0000
  H   H54       1.0  0.8379245279768668  0.6572912316900954  0.9885170461512587  1.0000
  H   H55       1.0  0.6592488703058308  0.8564805249733497  0.05859472853054382  1.0000
  H   H56       1.0  0.41392266325699006  0.7755608980883935  0.053487717565197164  1.0000
  H   H57       1.0  0.8525767875923762  0.41709224847041776  0.6808249580446598  1.0000
  H   H58       1.0  0.7448286931475181  0.42482264851597046  0.5567253738926395  1.0000
  H   H59       1.0  0.551191827833257  0.6072887133351087  0.6876857505089331  1.0000
  H   H60       1.0  0.65397286309895  0.60872235228139  0.8177903915393967  1.0000
  H   H61       1.0  0.4837403633928901  0.5738519577920583  0.23081229219998528  1.0000
  H   H62       1.0  0.5803697146393603  0.6427706038941494  0.1445792079180279  1.0000
  H   H63       1.0  0.6825538198416083  0.34354894863420077  0.11321325548808399  1.0000
  H   H64       1.0  0.9683569490679815  0.39868953722236  0.20996684635345986  1.0000
  H   H65       1.0  0.3974629732101603  0.43125782267456  0.017613561505811535  1.0000
  H   H66       1.0  0.16206844021179018  0.34269233816397804  0.01144197915549228  1.0000
  H   H67       1.0  0.34071149244885396  0.14349019150942868  0.9413626066146321  1.0000
  H   H68       1.0  0.5860581206288772  0.22440920846314327  0.9464808853468651  1.0000
  H   H69       1.0  0.14741258454676395  0.5829103005902923  0.31916554680260123  1.0000
  H   H70       1.0  0.25519988452610676  0.57520377160661  0.44327137112433945  1.0000
  H   H71       1.0  0.4488295004535273  0.39272975120748294  0.3123166976586588  1.0000
  H   H72       1.0  0.34601341019050114  0.39127836129457444  0.18220373178368018  1.0000
  C   C1        1.0  0.7321086281713889  0.6073944667353643  0.4707428191457622  1.0000
  C   C2        1.0  0.15140649221827823  0.39476193408041377  0.5712357522536634  1.0000
  C   C3        1.0  0.13722221906007798  0.4727105296135433  0.6057317592499414  1.0000
  C   C4        1.0  0.24552916168708072  0.518143527561058  0.5850937881542817  1.0000
  C   C5        1.0  0.2715681031823465  0.6020115607752389  0.6141869095391854  1.0000
  C   C6        1.0  0.38432054353798856  0.6459698170533201  0.5984161466391881  1.0000
  C   C7        1.0  0.5946697431171089  0.2687529969223235  0.3773348621097198  1.0000
  C   C8        1.0  0.4798978567892577  0.24807693586438262  0.4061615887611437  1.0000
  C   C9        1.0  0.43131812069320574  0.3208226801997043  0.4486656566933717  1.0000
  C   C10       1.0  0.6824314637454094  0.6765582222877029  0.511670666362086  1.0000
  C   C11       1.0  0.8224731990183756  0.35253865139371493  0.3348957386165238  1.0000
  C   C12       1.0  0.977687564754909  0.36743365054075366  0.36745114076531127  1.0000
  C   C13       1.0  0.05967197763717278  0.32087977388267325  0.31770724179697396  1.0000
  C   C14       1.0  0.8504608493892221  0.2490630107753589  0.20776837809069085  1.0000
  C   C15       1.0  0.7584039521012045  0.2916131347959308  0.2525828765505834  1.0000
  C   C16       1.0  0.7512383794608154  0.7526334433067844  0.5121859449827182  1.0000
  C   C17       1.0  0.6741194127101477  0.7753343085368909  0.46008103678816065  1.0000
  C   C18       1.0  0.7383062181197104  0.8485843574299068  0.4641924311276354  1.0000
  C   C19       1.0  0.052542925911559686  0.1229003362809777  0.4342613784349112  1.0000
  C   C20       1.0  0.10865180554269217  0.1947363318861903  0.4339119124843975  1.0000
  C   C21       1.0  0.26792011378883984  0.3926148218257667  0.52928528161857  1.0000
  C   C22       1.0  0.848608986548868  0.6052491895926551  0.4287869175304024  1.0000
  C   C23       1.0  0.8627890282988274  0.5273030408474993  0.39428333412499217  1.0000
  C   C24       1.0  0.7544869669195222  0.48186453448077765  0.41492124446657624  1.0000
  C   C25       1.0  0.7284389919800062  0.3979958881525291  0.38582242052392945  1.0000
  C   C26       1.0  0.6156958908215273  0.3540388568044506  0.4015976225206046  1.0000
  C   C27       1.0  0.40533687352998277  0.7312556762899407  0.622675517471329  1.0000
  C   C28       1.0  0.5201202813097153  0.7519329628900236  0.5938565410186172  1.0000
  C   C29       1.0  0.5687090515137712  0.6791878322439899  0.5513613148387719  1.0000
  C   C30       1.0  0.3175975849633801  0.323451678952189  0.48836087973315045  1.0000
  C   C31       1.0  0.17752185552004104  0.6474730795262715  0.6651010138256339  1.0000
  C   C32       1.0  0.022314378311030097  0.632574406755225  0.6325381840995162  1.0000
  C   C33       1.0  0.9403215439328534  0.6791288943145943  0.6822759463844078  1.0000
  C   C34       1.0  0.14951841417669692  0.7509542268453018  0.7922192043829239  1.0000
  C   C35       1.0  0.24158434490896485  0.7084047159387977  0.7474104084807747  1.0000
  C   C36       1.0  0.2487805848906532  0.24737156087962123  0.4878420271475079  1.0000
  C   C37       1.0  0.32589361948055273  0.22467192012931037  0.5399491246888884  1.0000
  C   C38       1.0  0.26170289073883163  0.1514249318534553  0.5358398776604787  1.0000
  C   C39       1.0  0.9474784881139016  0.8771095655966263  0.5657737515773604  1.0000
  C   C40       1.0  0.8913697803601011  0.805271733124023  0.5661192458781411  1.0000
  C   C41       1.0  0.12456718479229065  0.8633647179494089  0.39260334488057663  1.0000
  C   C42       1.0  0.7566938716542142  0.17641161490885082  0.60527432572637  1.0000
  C   C43       1.0  0.664500300438327  0.13291852885854638  0.5273203350867419  1.0000
  C   C44       1.0  0.7272525779601936  0.0668209408537521  0.4818576689032809  1.0000
  C   C45       1.0  0.6691013653413264  0.0119464608160271  0.3979960342055263  1.0000
  C   C46       1.0  0.7378554806810342  0.9521763247768648  0.3539970178391911  1.0000
  C   C47       1.0  0.3263730496678292  0.108866137907313  0.7313402521873298  1.0000
  C   C48       1.0  0.2321361057068572  0.158299201264505  0.7520510551355952  1.0000
  C   C49       1.0  0.11081539212167263  0.12803148124601904  0.6792578025420042  1.0000
  C   C50       1.0  0.005637100746596922  0.8349803177324874  0.32340238319448383  1.0000
  C   C51       1.0  0.4704373811592502  0.9825887875154746  0.6474765461913136  1.0000
  C   C52       1.0  0.6108350022390071  0.00010458208523539998  0.6326058015351137  1.0000
  C   C53       1.0  0.7393005885097991  0.9969098274887002  0.6792567577262858  1.0000
  C   C54       1.0  0.6016715135120377  0.9589126984534386  0.7510163663478904  1.0000
  C   C55       1.0  0.4672051279309174  0.9612835885958405  0.7084432574937196  1.0000
  C   C56       1.0  0.9985169716483712  0.759422090661417  0.24733979371291773  1.0000
  C   C57       1.0  0.8988147128549073  0.6845778314093279  0.22460385530354887  1.0000
  C   C58       1.0  0.889854367599945  0.6154073966370532  0.1513605836225409  1.0000
  C   C59       1.0  0.929702167801139  0.3114805884978225  0.877160710970493  1.0000
  C   C60       1.0  0.913972962503081  0.23928932778764528  0.8053001559378643  1.0000
  C   C61       1.0  0.8754138509258524  0.1366298787723963  0.6074105659332787  1.0000
  C   C62       1.0  0.24328481092751972  0.8235848189310174  0.39474495442716767  1.0000
  C   C63       1.0  0.33547550906055784  0.8670852489626882  0.4726958245904739  1.0000
  C   C64       1.0  0.27272275169590177  0.9331840601015529  0.5181532619025757  1.0000
  C   C65       1.0  0.33089461077027915  0.9880671092906675  0.6020173326186434  1.0000
  C   C66       1.0  0.2621490891357041  0.047834797848750596  0.6460200836160155  1.0000
  C   C67       1.0  0.6736395945713411  0.891148044675738  0.2686752332775484  1.0000
  C   C68       1.0  0.7678682513544857  0.8417180412866402  0.24796309463094693  1.0000
  C   C69       1.0  0.8891853321364351  0.8719741324292157  0.3207564577331751  1.0000
  C   C70       1.0  0.9943529653182422  0.16501488941905512  0.6766025806020932  1.0000
  C   C71       1.0  0.5295583260949286  0.0174198842658626  0.3525261722644401  1.0000
  C   C72       1.0  0.3891648568798442  0.9999102109417773  0.36740111063513575  1.0000
  C   C73       1.0  0.2606976461919075  0.0030951724162945997  0.32074813012042813  1.0000
  C   C74       1.0  0.39831575691160026  0.0410812828243081  0.24897891888395657  1.0000
  C   C75       1.0  0.5327886096026689  0.03871896245610169  0.2915580551504604  1.0000
  C   C76       1.0  0.0014786819375486944  0.24057556497816526  0.7526667384434516  1.0000
  C   C77       1.0  0.10119406971663379  0.31541554014737727  0.7754038300470893  1.0000
  C   C78       1.0  0.11016252861269035  0.3845847503809167  0.84864456108955  1.0000
  C   C79       1.0  0.07031124448657494  0.6885176794448423  0.12284697938205359  1.0000
  C   C80       1.0  0.08603093882076963  0.7607095521882671  0.19470759016684983  1.0000
  C   C81       1.0  0.26122772762623464  0.5293401945960524  0.13666296642495718  1.0000
  C   C82       1.0  0.58034223184319  0.4286186759152598  0.8234566037378882  1.0000
  C   C83       1.0  0.5316610468437021  0.39422032388227285  0.8669730898104149  1.0000
  C   C84       1.0  0.6605533506821359  0.4149462613996277  0.9331217855955101  1.0000
  C   C85       1.0  0.6573268816028631  0.38597712003807777  0.9879876647490065  1.0000
  C   C86       1.0  0.7859319743942521  0.4016314449517182  0.04767686936320807  1.0000
  C   C87       1.0  0.2172017572866095  0.6226398204966656  0.8912793078213637  1.0000
  C   C88       1.0  0.07348873631032396  0.5939529643278831  0.8418836449472733  1.0000
  C   C89       1.0  0.9825123685150103  0.5514406639888065  0.8721532070204105  1.0000
  C   C90       1.0  0.1708564627480697  0.48833189505775465  0.16489972007045137  1.0000
  C   C91       1.0  0.4877206305527721  0.66484440853354  0.01742779505037368  1.0000
  C   C92       1.0  0.6105705454352801  0.6324179523354874  0.9999106799362281  1.0000
  C   C93       1.0  0.7422525225635184  0.6822729127601548  0.0032026938391283427  1.0000
  C   C94       1.0  0.642608094866077  0.7920367298020493  0.04116437227613543  1.0000
  C   C95       1.0  0.5057876682392503  0.7471141737507523  0.038780310701305505  1.0000
  C   C96       1.0  0.2392777059079663  0.4878581129235329  0.24047953959637874  1.0000
  C   C97       1.0  0.21408177467150574  0.5398706291389742  0.31526903382349747  1.0000
  C   C98       1.0  0.27403257985172746  0.5357343881423586  0.3844391158092291  1.0000
  C   C99       1.0  0.6179879321234338  0.5656557863435907  0.6885530296142546  1.0000
  C   C100      1.0  0.6743761653772609  0.5660039468001727  0.7607588661680466  1.0000
  C   C101      1.0  0.7387643648454941  0.47063725732728295  0.8633099117980335  1.0000
  C   C102      1.0  0.4196460702869515  0.5713642845416159  0.17651694439197732  1.0000
  C   C103      1.0  0.46832423299338183  0.6057522304677505  0.13299333311398695  1.0000
  C   C104      1.0  0.3394391637602965  0.5850189476048584  0.06684025363335165  1.0000
  C   C105      1.0  0.34267091416523937  0.6139899252550265  0.011975113504284735  1.0000
  C   C106      1.0  0.21407559975699536  0.5983398853871975  0.9522896999179336  1.0000
  C   C107      1.0  0.7827915970835377  0.37733579390665983  0.10868602231182932  1.0000
  C   C108      1.0  0.9264981696033063  0.40602938458219734  0.15809265028729402  1.0000
  C   C109      1.0  0.017478766815571572  0.4485392364076617  0.12782124703934983  1.0000
  C   C110      1.0  0.829134461929037  0.5116541270857481  0.8350817230836893  1.0000
  C   C111      1.0  0.5122755581240881  0.3351281467680636  0.9825436730037892  1.0000
  C   C112      1.0  0.3894297942212361  0.3675607234448321  6.0796239566215686e-05  1.0000
  C   C113      1.0  0.2577441986287424  0.3177094346863213  0.996765480593808  1.0000
  C   C114      1.0  0.3573690316687603  0.20794133319940036  0.9588034231386043  1.0000
  C   C115      1.0  0.49419992750686953  0.2528608297030033  0.9611910851155796  1.0000
  C   C116      1.0  0.7607149383963544  0.5121444360008242  0.7595101767137393  1.0000
  C   C117      1.0  0.7859203024912703  0.460139877032077  0.6847240456282149  1.0000
  C   C118      1.0  0.7259874839922205  0.4642859117152582  0.61555884686868  1.0000
  C   C119      1.0  0.3820264120938787  0.4343596178765522  0.3114490277009238  1.0000
  C   C120      1.0  0.3256240762723905  0.4340028876124151  0.23923708525808252  1.0000
  N   N1        1.0  0.675670836898064  0.5317328447092535  0.46259022230802305  1.0000
  N   N2        1.0  0.48610409872838994  0.6144563903738387  0.5549508550143257  1.0000
  N   N3        1.0  0.99898530892375  0.2623872378056618  0.23899396421337823  1.0000
  N   N4        1.0  0.87324945519768  0.8989643838002764  0.5158865310325281  1.0000
  N   N5        1.0  0.32435292937878296  0.46827521928332766  0.537435352771709  1.0000
  N   N6        1.0  0.5139215033934689  0.38555534566481237  0.44507341768832015  1.0000
  N   N7        1.0  0.0009925958742726226  0.7376251022381339  0.7609870695309907  1.0000
  N   N8        1.0  0.12676633164554119  0.10104735370197908  0.4841458624717417  1.0000
  N   N9        1.0  0.14387095739751726  0.9309259428892815  0.468287400867446  1.0000
  N   N10       1.0  0.8712678558004683  0.9402848553658673  0.38551051301895695  1.0000
  N   N11       1.0  0.7369484231641151  0.9767174900507596  0.7377477603440423  1.0000
  N   N12       1.0  0.9743268317395674  0.6167448767398014  0.10097342222920247  1.0000
  N   N13       1.0  0.856098479316458  0.0690759980496551  0.5317247946370073  1.0000
  N   N14       1.0  0.12872990315165111  0.059721371220341296  0.614508504323389  1.0000
  N   N15       1.0  0.26304089541739734  0.0232740429640543  0.2622470814029398  1.0000
  N   N16       1.0  0.025689757835131343  0.383246657695274  0.8990288003510968  1.0000
  N   N17       1.0  0.2129155704486507  0.5374030340419511  0.06907544451524932  1.0000
  N   N18       1.0  0.9311850545015331  0.44499381405832844  0.05953091306892588  1.0000
  N   N19       1.0  0.7600939654876698  0.7609546492114633  0.02340639285390011  1.0000
  N   N20       1.0  0.3574123679683296  0.48412903359290743  0.3831666730913311  1.0000
  N   N21       1.0  0.7870708779574471  0.4625609507589913  0.9308860758717611  1.0000
  N   N22       1.0  0.06881767806317633  0.5549787405870958  0.9404368851145078  1.0000
  N   N23       1.0  0.2398873513560957  0.23902524986841203  0.9765610092333641  1.0000
  N   N24       1.0  0.6426134571546882  0.5158918795151308  0.6168377806814789  1.0000
