data_image0
_chemical_formula_structural       Zr6H28C78N18O32
_chemical_formula_sum              "Zr6 H28 C78 N18 O32"
_cell_length_a       17.867853785102582
_cell_length_b       22.219547283736357
_cell_length_c       22.221715959177708
_cell_angle_alpha    65.328800537051
_cell_angle_beta     88.74855169833155
_cell_angle_gamma    88.73867880871161

_space_group_name_H-M_alt    "P 1"
_space_group_IT_number       1

loop_
  _space_group_symop_operation_xyz
  'x, y, z'

loop_
  _atom_site_type_symbol
  _atom_site_label
  _atom_site_symmetry_multiplicity
  _atom_site_fract_x
  _atom_site_fract_y
  _atom_site_fract_z
  _atom_site_occupancy
  Zr  Zr1       1.0  0.20537448112497  0.9738194742987574  0.04688679137417754  1.0000
  Zr  Zr2       1.0  0.9370860227172528  0.9508566473632171  0.02587639477812337  1.0000
  Zr  Zr3       1.0  0.07296111717496959  0.8533981515358139  0.14231197204939136  1.0000
  Zr  Zr4       1.0  0.0694225242774777  0.072004123882202  0.9309812062430326  1.0000
  Zr  Zr5       1.0  0.09920443248300612  0.8995070297139663  0.9645298267472596  1.0000
  Zr  Zr6       1.0  0.04192143870147899  0.026150344801784797  0.10500173733371551  1.0000
  H   H1        1.0  0.6221037522490321  0.07195272917226701  0.4922954878762695  1.0000
  H   H2        1.0  0.5135469296776876  0.84686585556473  0.5864551817634476  1.0000
  H   H3        1.0  0.6481969489039514  0.4058263642647618  0.48306226900932353  1.0000
  H   H4        1.0  0.4908281826834937  0.5171011378993741  0.5952904750045462  1.0000
  H   H5        1.0  0.5225555223788874  0.5077146868318039  0.9276514277294652  1.0000
  H   H6        1.0  0.6303044454609007  0.41252927539715506  0.15301353601192605  1.0000
  H   H7        1.0  0.1992828945452985  0.0095350032115533  0.9078291694300376  1.0000
  H   H8        1.0  0.9860592289337758  0.8180743482891161  0.04799020597859283  1.0000
  H   H9        1.0  0.9397836651039596  0.08933102353836381  0.9972304506400178  1.0000
  H   H10       1.0  0.1541365176046412  0.9402913559688671  0.1822176220363828  1.0000
  H   H11       1.0  0.1703878094821718  0.7736293094970038  0.014436662949066155  1.0000
  H   H12       1.0  0.0894924092855689  0.822255792136929  0.2740718901964385  1.0000
  H   H13       1.0  0.9723634912352919  0.9697993603663305  0.23092412797553422  1.0000
  H   H14       1.0  0.08032018235101648  0.9413530032688513  0.8341364158833854  1.0000
  H   H15       1.0  0.057324824558264716  0.10801676289275262  0.8024536196421507  1.0000
  H   H16       1.0  0.0770650869496166  0.1991060267720286  0.9065895509942052  1.0000
  H   H17       1.0  0.03536400231705271  0.15550329241435884  0.0018928927368265193  1.0000
  H   H18       1.0  0.028254889936491195  0.8130246554760207  0.9322533161553466  1.0000
  H   H19       1.0  0.8413266309355762  0.9270777380387685  0.9379604777015373  1.0000
  H   H20       1.0  0.2832649568660841  0.020111585124702503  0.1351478448353305  1.0000
  H   H21       1.0  0.1172271174242425  0.05142780047128069  0.1948274020062328  1.0000
  H   H22       1.0  0.1043322163497251  0.011306140352125703  0.837846058173426  1.0000
  H   H23       1.0  0.8332395103641943  0.8672219032075792  0.008264257244590394  1.0000
  H   H24       1.0  0.1348785182996082  0.7351239520556945  0.17430415879193367  1.0000
  H   H25       1.0  0.1137704639564987  0.7697449284306757  0.07442066116080068  1.0000
  H   H26       1.0  0.0683048166778661  0.15401693525144114  0.07171473791391489  1.0000
  H   H27       1.0  0.0354531046042368  0.9146531839425195  0.23286558051029965  1.0000
  H   H28       1.0  0.1988561957861492  0.05239272293619731  0.123629191597793  1.0000
  C   C1        1.0  0.7365018930605558  0.1250176325135328  0.7401268732283769  1.0000
  C   C2        1.0  0.6639641932723848  0.09915466162399868  0.672602463073865  1.0000
  C   C3        1.0  0.6633691557305426  0.20389661075230245  0.6654394595311786  1.0000
  C   C4        1.0  0.45088556221666914  0.8144687374531543  0.8959665100582299  1.0000
  C   C5        1.0  0.517377646149292  0.7248532598008809  0.9004029892593267  1.0000
  C   C6        1.0  0.5153141016315743  0.8189209015319037  0.8054246236710512  1.0000
  C   C7        1.0  0.692028670195043  0.10260905482175532  0.1851959783147308  1.0000
  C   C8        1.0  0.6288764934725322  0.19397038782168616  0.18011779557770066  1.0000
  C   C9        1.0  0.626238390705211  0.0993955555143984  0.2746081762531531  1.0000
  C   C10       1.0  0.5904366818976072  0.9884044672729857  0.5817491350612726  1.0000
  C   C11       1.0  0.5595072567819486  0.9236298034259323  0.6093069359636303  1.0000
  C   C12       1.0  0.5375311785460042  0.8961395723163081  0.5660578462047495  1.0000
  C   C13       1.0  0.5446772569786303  0.9306151581997637  0.49695453663201766  1.0000
  C   C14       1.0  0.5763194144593199  0.995123732481041  0.46951154252735694  1.0000
  C   C15       1.0  0.5979540314049813  0.022739496510851602  0.5126896800863889  1.0000
  C   C16       1.0  0.4064135189779705  0.7977042146638451  0.33026273715796617  1.0000
  C   C17       1.0  0.4724308949179132  0.8233369402692221  0.40178566486044076  1.0000
  C   C18       1.0  0.4756051040317359  0.7185755744349009  0.4088061582191145  1.0000
  C   C19       1.0  0.4047066590928594  0.2585306322284993  0.8771289386776431  1.0000
  C   C20       1.0  0.4784087539597265  0.3265224920409793  0.9013278587676367  1.0000
  C   C21       1.0  0.4768512004620575  0.3329434837989922  0.7969796581542425  1.0000
  C   C22       1.0  0.7385535066724458  0.666615011662458  0.20445528834083146  1.0000
  C   C23       1.0  0.6660103104510284  0.5905340962543095  0.28263850740732005  1.0000
  C   C24       1.0  0.6706054732888161  0.5964325197846493  0.17833879415797327  1.0000
  C   C25       1.0  0.5918433108683843  0.39456174725300025  0.5737920319298695  1.0000
  C   C26       1.0  0.5468784913697958  0.4263873245234961  0.6060121243004986  1.0000
  C   C27       1.0  0.5254367675360356  0.49282264440360274  0.5708068024650929  1.0000
  C   C28       1.0  0.5470282504830237  0.5283349763742607  0.504491664941682  1.0000
  C   C29       1.0  0.5922437369260579  0.496562776048215  0.4723600851613057  1.0000
  C   C30       1.0  0.613629747809746  0.4301449360284622  0.5075312794994815  1.0000
  C   C31       1.0  0.5679364926834936  0.53004284499832  0.004930915366905713  1.0000
  C   C32       1.0  0.5993094413385265  0.5023414917077674  0.06955785472305823  1.0000
  C   C33       1.0  0.6065604698808471  0.4331920346923469  0.1036423926531995  1.0000
  C   C34       1.0  0.5849326808293044  0.39019967289419105  0.07572573885791914  1.0000
  C   C35       1.0  0.5539702788560491  0.4179912218738693  0.010954482688873706  1.0000
  C   C36       1.0  0.5465278263963214  0.48708913633304  0.9769386356272918  1.0000
  C   C37       1.0  0.28155264725243967  0.891090484478177  0.9693632035240045  1.0000
  C   C38       1.0  0.2461117800228365  0.11511891192147064  0.934232257037678  1.0000
  C   C39       1.0  0.2539401349396613  0.8519217828242205  0.18177926515263462  1.0000
  C   C40       1.0  0.8932371296658773  0.8133235131780977  0.14808455252941852  1.0000
  C   C41       1.0  0.8597244330773037  0.02415134750857821  0.11208095042859159  1.0000
  C   C42       1.0  0.8934695716384979  0.06876421859671211  0.8849451662398877  1.0000
  C   C43       1.0  0.7919320104913437  0.7181589201401979  0.18670627507993492  1.0000
  C   C44       1.0  0.8383159931137953  0.7613171544286175  0.17284582773031335  1.0000
  C   C45       1.0  0.6468463043415299  0.5704570925632524  0.13319266072871735  1.0000
  C   C46       1.0  0.6238716063082849  0.5418187006200412  0.10111050580923837  1.0000
  C   C47       1.0  0.6162955659475458  0.531229592899699  0.40598140625788665  1.0000
  C   C48       1.0  0.6386428429148978  0.5596897942528898  0.349066092614855  1.0000
  C   C49       1.0  0.3495616541014854  0.20847057056175794  0.8965872361619134  1.0000
  C   C50       1.0  0.3016156865898196  0.166484574771772  0.9122567063938902  1.0000
  C   C51       1.0  0.5054590109591787  0.3515205764776966  0.946161912150565  1.0000
  C   C52       1.0  0.5291988326662889  0.3788925349126657  0.979122088457956  1.0000
  C   C53       1.0  0.5020063264208973  0.3635020582736175  0.729797753747647  1.0000
  C   C54       1.0  0.5233571281972544  0.39178672297906303  0.6725570940300258  1.0000
  C   C55       1.0  0.3090824601835394  0.8290039393270734  0.23363924094032024  1.0000
  C   C56       1.0  0.35455396021770014  0.815728208770949  0.2774456426153762  1.0000
  C   C57       1.0  0.5231807077668976  0.5947596868982572  0.46989354562435176  1.0000
  C   C58       1.0  0.5014134296732421  0.6517868075375548  0.4408048816899281  1.0000
  C   C59       1.0  0.5197151579399062  0.8996957552809735  0.4570754148889548  1.0000
  C   C60       1.0  0.4963989460759564  0.8683188307038068  0.42783349890047595  1.0000
  C   C61       1.0  0.7944781531947456  0.0481549663746748  0.1354797077978347  1.0000
  C   C62       1.0  0.7443570042239499  0.07214104869357392  0.15673099401028878  1.0000
  C   C63       1.0  0.588811779800601  0.030882537122522508  0.4005593321201033  1.0000
  C   C64       1.0  0.6034734093179566  0.0633293705711893  0.34212599851304754  1.0000
  C   C65       1.0  0.5961920885695235  0.32104484105553144  0.1114620267824833  1.0000
  C   C66       1.0  0.6089521508118736  0.2621705693039331  0.14367557593808297  1.0000
  C   C67       1.0  0.3473930713040687  0.8662596870238701  0.9473997947584395  1.0000
  C   C68       1.0  0.39796243309057633  0.8435627610526168  0.9252740371569316  1.0000
  C   C69       1.0  0.5552901241694954  0.5990226869720203  0.969346181857027  1.0000
  C   C70       1.0  0.5404168573923868  0.6574582078452664  0.9369551776196657  1.0000
  C   C71       1.0  0.5357551602848929  0.8551817102356692  0.737275884877299  1.0000
  C   C72       1.0  0.5484149149024304  0.8875995100190934  0.6784424400581132  1.0000
  C   C73       1.0  0.7914530528067375  0.10644293784224601  0.7904134316502223  1.0000
  C   C74       1.0  0.8387991716261283  0.0912071721935774  0.8328741986044434  1.0000
  C   C75       1.0  0.6380051528175342  0.0536883439107996  0.6480269679331556  1.0000
  C   C76       1.0  0.6148618990076216  0.0202495429361633  0.6209372591570599  1.0000
  C   C77       1.0  0.6368880697925619  0.27064189415719403  0.6350762236346625  1.0000
  C   C78       1.0  0.6152403929481026  0.3278855947482953  0.607734836670609  1.0000
  N   N1        1.0  0.71327837415906  0.07735749503620332  0.7225234963134072  1.0000
  N   N2        1.0  0.6373200138815633  0.1617775491897788  0.641671525605851  1.0000
  N   N3        1.0  0.7133008842975385  0.18875961911027872  0.7144097663346685  1.0000
  N   N4        1.0  0.47333221065233755  0.7516915609770152  0.9331401319244605  1.0000
  N   N5        1.0  0.5393594332495226  0.7554280019239883  0.8362905144552002  1.0000
  N   N6        1.0  0.4714615524224753  0.8514201585500134  0.8326156377546139  1.0000
  N   N7        1.0  0.6722500948927461  0.16606542426178814  0.14791410232604818  1.0000
  N   N8        1.0  0.6048409752424675  0.1636085913945564  0.24366738491833936  1.0000
  N   N9        1.0  0.6695829597887054  0.06596363799688731  0.24805545093392567  1.0000
  N   N10       1.0  0.426411805651739  0.8452552282914495  0.3493647606555187  1.0000
  N   N11       1.0  0.49807973557513924  0.7605499125373212  0.43414966368168  1.0000
  N   N12       1.0  0.42983305537198646  0.7340122474298099  0.3568614569040633  1.0000
  N   N13       1.0  0.4289893764838837  0.27678209163701695  0.9240534943046582  1.0000
  N   N14       1.0  0.5041251696798525  0.35709486297161425  0.838376319329072  1.0000
  N   N15       1.0  0.4270735741691852  0.2838308818796094  0.8130786073362444  1.0000
  N   N16       1.0  0.7136158837546134  0.6411095531136084  0.26772267392200183  1.0000
  N   N17       1.0  0.6431175278826232  0.5653367382522987  0.24065301147236803  1.0000
  N   N18       1.0  0.7183679974409997  0.6475543774315682  0.1568948560356134  1.0000
  O   O1        1.0  0.24372669214433526  0.03744396438313661  0.1028087355781153  1.0000
  O   O2        1.0  0.2904134548885651  0.925658347746435  0.0017364931170148407  1.0000
  O   O3        1.0  0.2726619656541374  0.9036473936333852  0.13057299194251457  1.0000
  O   O4        1.0  0.1810391635811257  0.130675206987064  0.9108446055125015  1.0000
  O   O5        1.0  0.19264801329711634  0.821281657920288  0.19266909133725815  1.0000
  O   O6        1.0  0.2695951958614486  0.058552326132407  0.9757985956545383  1.0000
  O   O7        1.0  0.2199331801256221  0.8748477897884048  0.9525255959353274  1.0000
  O   O8        1.0  0.14024637228239814  0.8964122998176693  0.05642936538353652  1.0000
  O   O9        1.0  0.16275044424731527  0.99524996112136  0.9439208671754927  1.0000
  O   O10       1.0  0.13153742691743284  0.9458823878056819  0.14090148385817974  1.0000
  O   O11       1.0  0.1160344667908788  0.038830854455717705  0.028030802357640997  1.0000
  O   O12       1.0  0.0415336905442487  0.1645485876086283  0.931027777861253  1.0000
  O   O13       1.0  0.11947828929961453  0.7841269014245995  0.023640223016968775  1.0000
  O   O14       1.0  0.022750127847587  0.9754408962953818  0.9583381943716702  1.0000
  O   O15       1.0  0.009082491469861497  0.8584400364349849  0.04498637991047623  1.0000
  O   O16       1.0  0.0010502909082816944  0.937887377746016  0.10426802680151323  1.0000
  O   O17       1.0  0.9761634794614907  0.05318979394761671  0.009491624029664105  1.0000
  O   O18       1.0  0.09507112640311989  0.7600258546228604  0.14464755872397453  1.0000
  O   O19       1.0  0.9565145169780324  0.8024546426058877  0.17445292718352323  1.0000
  O   O20       1.0  0.8708902059052618  0.8655463895832727  0.0983934903117643  1.0000
  O   O21       1.0  0.1203919154013704  0.06856235326176122  0.1468287377727862  1.0000
  O   O22       1.0  0.8504862339006394  0.9947756268529985  0.07473138193518743  1.0000
  O   O23       1.0  0.055460637044078005  0.847461776987224  0.2386447125796565  1.0000
  O   O24       1.0  0.0245843588668464  0.9655124590993437  0.21969363544883436  1.0000
  O   O25       1.0  0.027756208903682005  0.1384513408230532  0.053340032488343105  1.0000
  O   O26       1.0  0.9218231165126272  0.036556691897843115  0.1319561317917533  1.0000
  O   O27       1.0  0.8693344840830122  0.8934980725045989  0.9741714061447766  1.0000
  O   O28       1.0  0.0945845095582882  0.08278614151379321  0.8349515852180858  1.0000
  O   O29       1.0  0.8716108246692115  0.020562590526111507  0.9385537513129236  1.0000
  O   O30       1.0  0.9557834638596604  0.09708664416183409  0.8733378820586069  1.0000
  O   O31       1.0  0.11622624460070342  0.9617588586431082  0.8521962646203037  1.0000
  O   O32       1.0  0.041107146658497094  0.8595062007482569  0.9132700537164168  1.0000
