data_image0
_chemical_formula_structural       Co3H30C18O24
_chemical_formula_sum              "Co3 H30 C18 O24"
_cell_length_a       6.44001274088198
_cell_length_b       10.727689080417155
_cell_length_c       10.727616402196468
_cell_angle_alpha    75.11591710456933
_cell_angle_beta     73.20570665817866
_cell_angle_gamma    73.20444156500528

_space_group_name_H-M_alt    "P 1"
_space_group_IT_number       1

loop_
  _space_group_symop_operation_xyz
  'x, y, z'

loop_
  _atom_site_type_symbol
  _atom_site_label
  _atom_site_symmetry_multiplicity
  _atom_site_fract_x
  _atom_site_fract_y
  _atom_site_fract_z
  _atom_site_occupancy
  Co  Co1       1.0  0.23295425288146285  0.2327571560030108  0.24846903156768715  1.0000
  Co  Co2       1.0  0.7670578415930435  0.7515363202800103  0.7672435161001374  1.0000
  Co  Co3       1.0  0.999995552577545  0.20376777585417474  0.7962347146360071  1.0000
  H   H1        1.0  0.5000175416380301  0.8635557768827342  0.13645339777254142  1.0000
  H   H2        1.0  0.2991852404742944  0.7124780833664986  0.553183917849516  1.0000
  H   H3        1.0  0.7007902384022201  0.44681328266435844  0.2875096428666525  1.0000
  H   H4        1.0  0.20082910515453276  0.7550139473092373  0.9805423089093278  1.0000
  H   H5        1.0  0.7991898188987676  0.019459570200510302  0.24499659878196667  1.0000
  H   H6        1.0  0.9999963549502482  0.6020141024617235  0.3979775631001488  1.0000
  H   H7        1.0  0.035801229168207285  0.10777600068746551  0.4600309266389572  1.0000
  H   H8        1.0  0.9641821515618717  0.539964421636981  0.8922272551429344  1.0000
  H   H9        1.0  0.8599996110740022  0.2584438407678817  0.449911457362596  1.0000
  H   H10       1.0  0.13998591892756448  0.5500791033720845  0.7415604083209288  1.0000
  H   H11       1.0  0.5544178563670242  0.0970407196856726  0.3929732516039976  1.0000
  H   H12       1.0  0.44557105516353357  0.6070339730607088  0.9029693246464204  1.0000
  H   H13       1.0  0.5413299992724133  0.2521585135014278  0.36911947700642134  1.0000
  H   H14       1.0  0.45861395593991017  0.6309316864974336  0.7478520834733189  1.0000
  H   H15       1.0  0.5903284051340592  0.20811810678441847  0.043070184777171436  1.0000
  H   H16       1.0  0.409686358001011  0.9569390164220692  0.7918826594539893  1.0000
  H   H17       1.0  0.4274344936636042  0.3568846412868893  0.040801170663769384  1.0000
  H   H18       1.0  0.5725684994212584  0.9591965120565649  0.643115423983616  1.0000
  H   H19       1.0  0.9328528508644709  0.22135419346067672  0.11885404933764222  1.0000
  H   H20       1.0  0.06716926461299269  0.8811381853545512  0.778650229580073  1.0000
  H   H21       1.0  0.9166644830764809  0.37354528364561906  0.11785818426132265  1.0000
  H   H22       1.0  0.08334793045344925  0.8821413539047426  0.6264577016298671  1.0000
  H   H23       1.0  0.6674405848882472  0.41295110436365706  0.7431486781708186  1.0000
  H   H24       1.0  0.33254731394426784  0.25682432126258453  0.5870535952795635  1.0000
  H   H25       1.0  0.8568106666268208  0.45861766310590474  0.7829360179377075  1.0000
  H   H26       1.0  0.143175464176025  0.21704667333283104  0.5413910701326117  1.0000
  H   H27       1.0  0.2995809687436477  0.25066048160628185  0.9297845461073704  1.0000
  H   H28       1.0  0.7004168260289276  0.0702118866682824  0.7493372173063477  1.0000
  H   H29       1.0  0.3185338023803154  0.33497846375750845  0.7848792169341079  1.0000
  H   H30       1.0  0.6814719919924244  0.2151119411141735  0.6650141924439907  1.0000
  C   C1        1.0  0.3860460691564853  0.8027833483645495  0.3466218560042477  1.0000
  C   C2        1.0  0.6139574777348571  0.6533844705206634  0.1972223750860706  1.0000
  C   C3        1.0  0.50001796057942  0.7805164075728969  0.21948783562871185  1.0000
  C   C4        1.0  0.5000002139874624  0.5674525080254613  0.4325426393223849  1.0000
  C   C5        1.0  0.3876386152233879  0.6961558389102366  0.4536681688170814  1.0000
  C   C6        1.0  0.6123630275041663  0.5463328227241462  0.30384154065786356  1.0000
  C   C7        1.0  0.26478716589495127  0.9416212221298466  0.36149127924487345  1.0000
  C   C8        1.0  0.7352266656770399  0.638514689687071  0.05837638142576646  1.0000
  C   C9        1.0  0.4999836467390963  0.45350115845628386  0.5464906395897912  1.0000
  C   C10       1.0  0.11210243036962445  0.6627337614044964  0.18663573133518696  1.0000
  C   C11       1.0  0.8879058733640122  0.8133589503946438  0.337266483020315  1.0000
  C   C12       1.0  0.11341930524393001  0.7700808924837192  0.08052681261530371  1.0000
  C   C13       1.0  0.8865885526093541  0.9194762910006774  0.22991620944160468  1.0000
  C   C14       1.0  1.7975800758443235e-06  0.8979584713086697  0.10203673980002037  1.0000
  C   C15       1.0  1.859489081773653e-06  0.6851602646289977  0.3148359729248823  1.0000
  C   C16       1.0  0.22459159595997844  0.5249342226347765  0.16174309558419958  1.0000
  C   C17       1.0  0.7754056387361742  0.8382545822886772  0.4750708328716725  1.0000
  C   C18       1.0  1.6324830348001537e-05  0.010397087498560595  0.9896046455890184  1.0000
  O   O1        1.0  0.29703066375654436  0.03177551956111561  0.25953902558269687  1.0000
  O   O2        1.0  0.7030060224834145  0.7404702802238958  0.9682257266199483  1.0000
  O   O3        1.0  0.13356041653471348  0.9633864972850077  0.4730589114848911  1.0000
  O   O4        1.0  0.8664168258909228  0.5269395906047762  0.03661460973148682  1.0000
  O   O5        1.0  0.569776452072702  0.33442538348764833  0.5239645035039401  1.0000
  O   O6        1.0  0.43020957725050113  0.4759961708853383  0.6655507930045914  1.0000
  O   O7        1.0  0.1781579569897431  0.42989176949546976  0.25578392763547697  1.0000
  O   O8        1.0  0.8218383357270014  0.7442171800331111  0.5701096223223984  1.0000
  O   O9        1.0  0.35690112736752166  0.5091060471399658  0.049005397007356025  1.0000
  O   O10       1.0  0.6430918707363917  0.9509928251365238  0.4908912326188854  1.0000
  O   O11       1.0  0.10759929402948386  0.9942590614075332  0.8712279020616973  1.0000
  O   O12       1.0  0.8924106977030635  0.12877683930882708  0.005747189607852463  1.0000
  O   O13       1.0  0.017996645982442768  0.2104745524151924  0.4367492608907425  1.0000
  O   O14       1.0  0.981988433235898  0.5632512603910416  0.7895282321549785  1.0000
  O   O15       1.0  0.5097312777564441  0.1850497101082454  0.3350877675911903  1.0000
  O   O16       1.0  0.49026973651924527  0.6649258998494789  0.8149672204894429  1.0000
  O   O17       1.0  0.4330787511749534  0.257724213986613  0.05404841199123208  1.0000
  O   O18       1.0  0.5669308147856781  0.9459594907037217  0.742269417873146  1.0000
  O   O19       1.0  0.951487849037136  0.28080133069600793  0.16910204244475566  1.0000
  O   O20       1.0  0.04853776886063333  0.8308919725334365  0.7192023478172443  1.0000
  O   O21       1.0  0.78838063632994  0.3825269129572178  0.7907427944034351  1.0000
  O   O22       1.0  0.21162427352002314  0.2092191076631522  0.6174826929521655  1.0000
  O   O23       1.0  0.24059918966696608  0.26976600516832866  0.8493033277659876  1.0000
  O   O24       1.0  0.7593958851556479  0.1506979446302594  0.730232030678131  1.0000
