data_image0
_chemical_formula_structural       Zn2H32C46Br4N4Cl4O8
_chemical_formula_sum              "Zn2 H32 C46 Br4 N4 Cl4 O8"
_cell_length_a       10.07570166522555
_cell_length_b       11.333212607313545
_cell_length_c       12.49439685739845
_cell_angle_alpha    104.12414018258649
_cell_angle_beta     96.85313599446346
_cell_angle_gamma    96.45617883920465

_space_group_name_H-M_alt    "P 1"
_space_group_IT_number       1

loop_
  _space_group_symop_operation_xyz
  'x, y, z'

loop_
  _atom_site_type_symbol
  _atom_site_label
  _atom_site_symmetry_multiplicity
  _atom_site_fract_x
  _atom_site_fract_y
  _atom_site_fract_z
  _atom_site_occupancy
  Zn  Zn1       1.0  0.48605856305685086  0.8021535553549552  0.17575066852452187  1.0000
  Zn  Zn2       1.0  0.5139410493043711  0.19784541635874575  0.8242499432714612  1.0000
  H   H1        1.0  0.30785264552074654  0.9911085403297121  0.22201525711183487  1.0000
  H   H2        1.0  0.6921468203617993  0.008889513086593599  0.777985939047369  1.0000
  H   H3        1.0  0.15847933381034104  0.10066085577665256  0.11479147738965172  1.0000
  H   H4        1.0  0.8415191321595685  0.899337195870906  0.8852096221082065  1.0000
  H   H5        1.0  0.3023906089455296  0.913090502886732  0.8164414611316251  1.0000
  H   H6        1.0  0.697612736465267  0.0869130734412309  0.18356052243986207  1.0000
  H   H7        1.0  0.4413517586875598  0.8071338686295063  0.9353018244221121  1.0000
  H   H8        1.0  0.5586504397809549  0.1928687829396906  0.0646982446867241  1.0000
  H   H9        1.0  0.21189375016388817  0.2229859287181029  0.7006708841955743  1.0000
  H   H10       1.0  0.7881091545252873  0.7770148817681886  0.2993272474150076  1.0000
  H   H11       1.0  0.88993748914357  0.9368634793302986  0.6929030935044198  1.0000
  H   H12       1.0  0.11006656303884911  0.06313826060739558  0.3070993547333316  1.0000
  H   H13       1.0  0.7484311739241464  0.9946065152365833  0.5402024676948401  1.0000
  H   H14       1.0  0.25157129151266133  0.005391541921717599  0.45979821772688473  1.0000
  H   H15       1.0  0.1903678497098014  0.3476353996502226  0.5587289191259687  1.0000
  H   H16       1.0  0.8096310555124832  0.6523654053253267  0.4412696265607396  1.0000
  H   H17       1.0  0.8265415070841797  0.2830856645851653  0.32208582635566074  1.0000
  H   H18       1.0  0.1734559587894395  0.7169123837294505  0.6779143757593503  1.0000
  H   H19       1.0  0.7242786339206193  0.12216933176232199  0.4076890047093614  1.0000
  H   H20       1.0  0.2757208317782728  0.8778287200897666  0.5923113907283339  1.0000
  H   H21       1.0  0.2711425451872813  0.7827251460615158  0.31665029108124554  1.0000
  H   H22       1.0  0.7288552138273445  0.21727474041210115  0.6833495430288397  1.0000
  H   H23       1.0  0.13639815618266476  0.6184909136624768  0.3779274536576055  1.0000
  H   H24       1.0  0.8635996030156151  0.3815089743753575  0.622073181173981  1.0000
  H   H25       1.0  0.3060033005559574  0.35010057123684385  0.14460810664657234  1.0000
  H   H26       1.0  0.6939944584586685  0.649899315236773  0.8553917274635127  1.0000
  H   H27       1.0  0.432759363946289  0.5252394830835596  0.09173913405658854  1.0000
  H   H28       1.0  0.5672392485022969  0.4747594868614016  0.9082613810780558  1.0000
  H   H29       1.0  0.9335484039638828  0.5628887922664774  0.18380178595442942  1.0000
  H   H30       1.0  0.06645220830997542  0.4371101812159637  0.8161989225028992  1.0000
  H   H31       1.0  0.8039189353288733  0.5460122337478167  0.06516685658341004  1.0000
  H   H32       1.0  0.19608126349802293  0.4539904158481107  0.9348338199242435  1.0000
  C   C1        1.0  0.3009147186606426  0.975537406432991  0.13174109675780707  1.0000
  C   C2        1.0  0.6990848937005794  0.024461565280709897  0.8682595150381829  1.0000
  C   C3        1.0  0.21904609569570974  0.03577834784861269  0.07224832161900713  1.0000
  C   C4        1.0  0.7809526635988606  0.9642215435221717  0.9277532105954338  1.0000
  C   C5        1.0  0.21729228773995862  0.012409379895039799  0.9570603304184786  1.0000
  C   C6        1.0  0.7827089109995738  0.9875932714696274  0.0429404427505204  1.0000
  C   C7        1.0  0.299137322141739  0.930749253114669  0.9055971101801108  1.0000
  C   C8        1.0  0.7008638765977936  0.0692533982499981  0.09440366298888851  1.0000
  C   C9        1.0  0.3768197563247  0.8728923922375313  0.9707046751105894  1.0000
  C   C10       1.0  0.6231821490028011  0.1271084211726574  0.02929576200316571  1.0000
  C   C11       1.0  0.12518988064104522  0.0733996981635627  0.8922617620408104  1.0000
  C   C12       1.0  0.874812024686463  0.9266011152466189  0.10773867507294452  1.0000
  C   C13       1.0  0.10965664539976669  0.17645843152411797  0.6662027609090586  1.0000
  C   C14       1.0  0.8903464059517462  0.823543298823779  0.33379558705981094  1.0000
  C   C15       1.0  0.0549557781092744  0.08158152277228228  0.7052741311893629  1.0000
  C   C16       1.0  0.9450482737058368  0.9184202140369915  0.29472671560537833  1.0000
  C   C17       1.0  0.9248933848570575  0.0151095430275561  0.6620460681288665  1.0000
  C   C18       1.0  0.07510837417542862  0.9848903536494406  0.3379557540696113  1.0000
  C   C19       1.0  0.848481272995585  0.04597306541603529  0.5766676492638539  1.0000
  C   C20       1.0  0.1515214857658762  0.9540268314654838  0.4233334688744535  1.0000
  C   C21       1.0  0.9005443161286025  0.1418825604460707  0.5314209627796629  1.0000
  C   C22       1.0  0.09945729569058409  0.8581164116766827  0.46857824089600103  1.0000
  C   C23       1.0  0.03384633866904348  0.2075205158592936  0.5765791847705587  1.0000
  C   C24       1.0  0.966155273150143  0.7924784562634596  0.42342001890510517  1.0000
  C   C25       1.0  0.0888874303005309  0.2977925828512794  0.5266061054633868  1.0000
  C   C26       1.0  0.9111133280846958  0.7022073058001296  0.4733924171877178  1.0000
  C   C27       1.0  0.0138328270792414  0.3197954794960225  0.43616646420530714  1.0000
  C   C28       1.0  0.9861657848183826  0.6802034857563014  0.5638316487648184  1.0000
  C   C29       1.0  0.8814174243409383  0.25966847283208955  0.39279824612498976  1.0000
  C   C30       1.0  0.1185820413579535  0.740329579019999  0.6072021493127054  1.0000
  C   C31       1.0  0.8256998699075241  0.17219315225626985  0.4407599260001619  1.0000
  C   C32       1.0  0.17430059552035002  0.8278048998003484  0.5592397653773704  1.0000
  C   C33       1.0  0.14695239005684613  0.3677337289425111  0.3052847066715643  1.0000
  C   C34       1.0  0.8530462220244318  0.632265237874023  0.69471420702007  1.0000
  C   C35       1.0  0.2742219253150182  0.6855970620311425  0.27977982929125034  1.0000
  C   C36       1.0  0.7257766871335676  0.31440190791381173  0.7202206858433942  1.0000
  C   C37       1.0  0.2002412564788827  0.5941043220034669  0.3140308870035327  1.0000
  C   C38       1.0  0.7997572087564037  0.4058937233872513  0.6859670096083053  1.0000
  C   C39       1.0  0.21311376484457165  0.47137283158955523  0.2669837730535393  1.0000
  C   C40       1.0  0.7868841408323846  0.5286279747456747  0.7330162774148407  1.0000
  C   C41       1.0  0.29557908638646785  0.444638041258841  0.18444934818757736  1.0000
  C   C42       1.0  0.7044185257821739  0.5553609237889603  0.8155494688427043  1.0000
  C   C43       1.0  0.3654849086805855  0.5413654743891384  0.15433756201315427  1.0000
  C   C44       1.0  0.6345138500630226  0.4586344122890083  0.845661568036775  1.0000
  C   C45       1.0  0.850760890518231  0.5014765273059325  0.12510510826326987  1.0000
  C   C46       1.0  0.14923786840903117  0.49852336093642435  0.8748948225081608  1.0000
  Br  Br1       1.0  0.9211671191819802  0.3584015470058475  0.04584017632315352  1.0000
  Br  Br2       1.0  0.07883078631132179  0.641599257765172  0.9541590734237178  1.0000
  Br  Br3       1.0  0.7116870791735651  0.4603962732656725  0.21175064682154246  1.0000
  Br  Br4       1.0  0.2883109729820674  0.5396054513669525  0.7882488192836237  1.0000
  N   N1        1.0  0.37687536555802137  0.8944485810251092  0.0815665183212531  1.0000
  N   N2        1.0  0.6231243932818842  0.10555130898598719  0.918433509111523  1.0000
  N   N3        1.0  0.35631029733356456  0.6596667975636804  0.20236903246374285  1.0000
  N   N4        1.0  0.6436873148350699  0.3403321674841138  0.7976297845665459  1.0000
  Cl  Cl1       1.0  0.5403179468679581  0.9298640226909142  0.3452564314403191  1.0000
  Cl  Cl2       1.0  0.459680812242958  0.07013586711565269  0.6547443000526201  1.0000
  Cl  Cl3       1.0  0.6241634035910479  0.710832383535461  0.06602688252552005  1.0000
  Cl  Cl4       1.0  0.3758363552488505  0.2891675064756356  0.933973144907256  1.0000
  O   O1        1.0  0.04706454291306271  0.14052538886885196  0.9317587093513994  1.0000
  O   O2        1.0  0.9529346565521662  0.8594772636509731  0.06824427265942032  1.0000
  O   O3        1.0  0.1376226997182854  0.03959932466862169  0.7823265403326118  1.0000
  O   O4        1.0  0.862379792442205  0.9604051697522137  0.21767556293581702  1.0000
  O   O5        1.0  0.0705229178794937  0.408591716499501  0.3860140751320032  1.0000
  O   O6        1.0  0.9294736941928506  0.5914072452153505  0.6139838445154383  1.0000
  O   O7        1.0  0.16268192293795639  0.2606126887793963  0.2712281025603644  1.0000
  O   O8        1.0  0.8373178359019421  0.7393872012317005  0.7287719248724119  1.0000
