data_image0
_chemical_formula_structural       Cd2H28C28S4N8
_chemical_formula_sum              "Cd2 H28 C28 S4 N8"
_cell_length_a       5.608687969052405
_cell_length_b       11.449940940467663
_cell_length_c       12.895217872655872
_cell_angle_alpha    102.69909043895724
_cell_angle_beta     90.00363287830974
_cell_angle_gamma    89.99759171616454

_space_group_name_H-M_alt    "P 1"
_space_group_IT_number       1

loop_
  _space_group_symop_operation_xyz
  'x, y, z'

loop_
  _atom_site_type_symbol
  _atom_site_label
  _atom_site_symmetry_multiplicity
  _atom_site_fract_x
  _atom_site_fract_y
  _atom_site_fract_z
  _atom_site_occupancy
  Cd  Cd1       1.0  0.4999203395842001  0.9999989660317538  0.5000015365195053  1.0000
  Cd  Cd2       1.0  0.00010438146178869999  0.9999899765494505  6.260272016317001e-06  1.0000
  H   H1        1.0  0.2179987814206044  0.20463592959323756  0.5950042816537859  1.0000
  H   H2        1.0  0.28200987537557154  0.2046100074650283  0.0950032736666273  1.0000
  H   H3        1.0  0.7819479050287299  0.7953895543123012  0.405014991895392  1.0000
  H   H4        1.0  0.7180402220044897  0.795413643119801  0.9050141297076237  1.0000
  H   H5        1.0  0.34007648429350473  0.1509587281624007  0.6925110237588611  1.0000
  H   H6        1.0  0.159937785992966  0.15093217034711162  0.19250650597088992  1.0000
  H   H7        1.0  0.6599147757646051  0.8490640070856729  0.3075054428693633  1.0000
  H   H8        1.0  0.8401051791105659  0.8490858369276424  0.8074998265223884  1.0000
  H   H9        1.0  0.7266473988427578  0.2131032908917875  0.767484613396725  1.0000
  H   H10       1.0  0.7733585461841771  0.21310617450904346  0.26748679486482974  1.0000
  H   H11       1.0  0.273329596782375  0.7868857191698666  0.23250346104248373  1.0000
  H   H12       1.0  0.22666302349676928  0.7868929114726697  0.7325115747388722  1.0000
  H   H13       1.0  0.0516832961028939  0.3631634387513429  0.7811662696892796  1.0000
  H   H14       1.0  0.44831050349841917  0.3631695150892186  0.2811501698386962  1.0000
  H   H15       1.0  0.9483150948661602  0.6368363533377848  0.21882524172348644  1.0000
  H   H16       1.0  0.5516950194326853  0.6368186626741591  0.7188400866478517  1.0000
  H   H17       1.0  0.067342325835412  0.501005660857892  0.6572878574316973  1.0000
  H   H18       1.0  0.43263065282346264  0.5010075112101974  0.15726582868855843  1.0000
  H   H19       1.0  0.9326542818809428  0.4989912780231478  0.3426969495113639  1.0000
  H   H20       1.0  0.5673588235320963  0.49896534629768763  0.8427178703297358  1.0000
  H   H21       1.0  0.7522403119017866  0.4879968834831347  0.5175850158301714  1.0000
  H   H22       1.0  0.7477576680557476  0.48800217011885394  0.017586742176554513  1.0000
  H   H23       1.0  0.24775986185080964  0.5119911261751895  0.4823990056109864  1.0000
  H   H24       1.0  0.252230025619383  0.5119807218218639  0.9824056925694151  1.0000
  H   H25       1.0  0.42645699567134443  0.33808129522747526  0.5039487586190887  1.0000
  H   H26       1.0  0.0735648824551518  0.3380858039098272  0.003959905919032296  1.0000
  H   H27       1.0  0.5734986046617366  0.6619266576607287  0.4960480574383014  1.0000
  H   H28       1.0  0.9264566870638049  0.6619204001905247  0.9960381568842253  1.0000
  C   C1        1.0  0.0098316198208153  0.0877615991457645  0.40376049696979516  1.0000
  C   C2        1.0  0.49016352138445274  0.0877588171708155  0.9037727742498589  1.0000
  C   C3        1.0  0.9900277030613365  0.9122589361078967  0.5962734237257905  1.0000
  C   C4        1.0  0.509961461427217  0.9122215441024507  0.09625800511764737  1.0000
  C   C5        1.0  0.553500623139108  0.26844972620507696  0.6360312287245122  1.0000
  C   C6        1.0  0.9465155797535374  0.2684470726516396  0.1360531011601154  1.0000
  C   C7        1.0  0.4464763720933504  0.7315597852346659  0.36395732756204074  1.0000
  C   C8        1.0  0.0535042069203513  0.7315573834721079  0.8639462073724644  1.0000
  C   C9        1.0  0.7312378814348363  0.2742403075656911  0.7134100475265654  1.0000
  C   C10       1.0  0.7687668459598597  0.2742443643167007  0.2134184826837853  1.0000
  C   C11       1.0  0.26874089626449665  0.7257671615588421  0.28656884335381955  1.0000
  C   C12       1.0  0.2312529407950237  0.7257565327477169  0.7865809792490167  1.0000
  C   C13       1.0  0.9148035418416641  0.357911730171189  0.7203139525842702  1.0000
  C   C14       1.0  0.5851789016157979  0.3579308602810869  0.2203164188019002  1.0000
  C   C15       1.0  0.08516275555184899  0.6420923061702768  0.27966976773292634  1.0000
  C   C16       1.0  0.41481770668249135  0.6420627717942722  0.7796778939890884  1.0000
  C   C17       1.0  0.9240071026899273  0.4355352914562827  0.6504410413658448  1.0000
  C   C18       1.0  0.5759753046996464  0.435544376323648  0.15042592257268686  1.0000
  C   C19       1.0  0.0759788067356197  0.5644514449722564  0.3495287946971359  1.0000
  C   C20       1.0  0.424012388206947  0.5644435283784405  0.8495542018279991  1.0000
  C   C21       1.0  0.7467280854842784  0.42863963933262267  0.5730776728189467  1.0000
  C   C22       1.0  0.7532961547811823  0.42865124798164095  0.073087674753225  1.0000
  C   C23       1.0  0.25324177804127146  0.5713582159098892  0.4269080695860837  1.0000
  C   C24       1.0  0.24671115122831822  0.5713441950269883  0.9269077305541202  1.0000
  C   C25       1.0  0.5620498269493694  0.345830824155435  0.5657885687075037  1.0000
  C   C26       1.0  0.937973441970783  0.34582641703897826  0.06580363675585228  1.0000
  C   C27       1.0  0.4379146879010988  0.6541707163372622  0.4342016964409083  1.0000
  C   C28       1.0  0.062046345014778105  0.6541610967659964  0.9341950365291609  1.0000
  S   S1        1.0  0.2656975585165355  0.07948528226115312  0.3420222144730332  1.0000
  S   S2        1.0  0.23431441682158283  0.07949037539793123  0.8420255682715592  1.0000
  S   S3        1.0  0.73417067869142  0.9205233443494977  0.6579995401340994  1.0000
  S   S4        1.0  0.7658551391962046  0.9204933341895797  0.15799726465807853  1.0000
  N   N1        1.0  0.17218162563627  0.9046979445516783  0.5491031411578362  1.0000
  N   N2        1.0  0.32788082792360734  0.9046888371137598  0.04907406162838159  1.0000
  N   N3        1.0  0.8276866115078221  0.0953088499764689  0.4509167417227999  1.0000
  N   N4        1.0  0.6723190382425769  0.0952768876239887  0.9509425244213644  1.0000
  N   N5        1.0  0.37501617620458216  0.1785994045726937  0.623305217162823  1.0000
  N   N6        1.0  0.12498947535334538  0.17858734010842175  0.12331057124782062  1.0000
  N   N7        1.0  0.624923378090962  0.8214168979845908  0.3767039182762417  1.0000
  N   N8        1.0  0.8750552729390223  0.8214316882919163  0.8767005939886586  1.0000
