data_image0
_chemical_formula_structural       Zn2H28C26I4N4
_chemical_formula_sum              "Zn2 H28 C26 I4 N4"
_cell_length_a       5.590019576883238
_cell_length_b       10.793616270061179
_cell_length_c       12.873585053738628
_cell_angle_alpha    90.00371556476394
_cell_angle_beta     90.00269254916319
_cell_angle_gamma    91.5891488238537

_space_group_name_H-M_alt    "P 1"
_space_group_IT_number       1

loop_
  _space_group_symop_operation_xyz
  'x, y, z'

loop_
  _atom_site_type_symbol
  _atom_site_label
  _atom_site_symmetry_multiplicity
  _atom_site_fract_x
  _atom_site_fract_y
  _atom_site_fract_z
  _atom_site_occupancy
  Zn  Zn1       1.0  0.0713474565269792  0.21370450956170112  0.7500042413237296  1.0000
  Zn  Zn2       1.0  0.9286496278522095  0.7862977249485468  0.2499936418137452  1.0000
  H   H1        1.0  0.4102349597974636  0.30758710980058607  0.2500150852965461  1.0000
  H   H2        1.0  0.5897761755636637  0.6924068680124049  0.7499859048999794  1.0000
  H   H3        1.0  0.5571569641140925  0.1652826727947456  0.2500065443409909  1.0000
  H   H4        1.0  0.442848715240892  0.8347084931959614  0.7499952225085593  1.0000
  H   H5        1.0  0.8910854194750754  0.25529336139955916  0.3547042708763398  1.0000
  H   H6        1.0  0.10890286349004442  0.7446893055697856  0.8546548727852397  1.0000
  H   H7        1.0  0.1089239560430713  0.7447015327937193  0.6452998264644448  1.0000
  H   H8        1.0  0.8910850391688001  0.25530546199028226  0.1453375725668096  1.0000
  H   H9        1.0  0.7672239451089312  0.40473893821199164  0.34538095175498995  1.0000
  H   H10       1.0  0.2327614120186254  0.5952401934506566  0.845314393065287  1.0000
  H   H11       1.0  0.2327821740644609  0.5952661292105859  0.6546177083353868  1.0000
  H   H12       1.0  0.7672373443358682  0.4047583444610865  0.15468271320543886  1.0000
  H   H13       1.0  0.33898763909733987  0.43454336395101467  0.41644926689124867  1.0000
  H   H14       1.0  0.6609841155009661  0.5654376056525405  0.9164201493111646  1.0000
  H   H15       1.0  0.6610237017683787  0.5654571013786267  0.5835548306194694  1.0000
  H   H16       1.0  0.3390020276203671  0.43455807850471456  0.08358084067593552  1.0000
  H   H17       1.0  0.087306913392311  0.3900719270127198  0.5730320286509993  1.0000
  H   H18       1.0  0.9126916701731816  0.6099135339550867  0.0729991862747497  1.0000
  H   H19       1.0  0.912706568818166  0.6099396700756188  0.4269720691810122  1.0000
  H   H20       1.0  0.0872980223160766  0.39008124445985  0.9270018037242449  1.0000
  H   H21       1.0  0.47853639057053954  0.08149077433206738  0.6470692605963322  1.0000
  H   H22       1.0  0.5214647629263282  0.9184885142218132  0.14705123884751  1.0000
  H   H23       1.0  0.5214735717357898  0.9185226553619259  0.3529371676022066  1.0000
  H   H24       1.0  0.47853000398001194  0.0814970278144642  0.8529443134641069  1.0000
  H   H25       1.0  0.7511277446380833  0.11534328174717247  0.49687625529242735  1.0000
  H   H26       1.0  0.24884427544279927  0.8846496121076798  0.9968442367561676  1.0000
  H   H27       1.0  0.2488730362533715  0.884662681213541  0.5031301726114704  1.0000
  H   H28       1.0  0.75113312621297  0.11535250684112701  0.0031559765303086  1.0000
  C   C1        1.0  0.5882311231855084  0.2663134114445426  0.2500157935818166  1.0000
  C   C2        1.0  0.4117764336930136  0.7336805454953037  0.7499890804995815  1.0000
  C   C3        1.0  0.7222825208576681  0.30481292486884826  0.3494776728817897  1.0000
  C   C4        1.0  0.27770857805543164  0.6951637858791883  0.8494368276409148  1.0000
  C   C5        1.0  0.2777287903697214  0.6951866134735097  0.6505209871129124  1.0000
  C   C6        1.0  0.7222919679112891  0.3048347627325042  0.1505649393547657  1.0000
  C   C7        1.0  0.5698178858070904  0.2790703411740765  0.4433909868423313  1.0000
  C   C8        1.0  0.4301407621190023  0.7209117562284888  0.943357748628948  1.0000
  C   C9        1.0  0.4301772038480252  0.7209253953984387  0.5566061193155888  1.0000
  C   C10       1.0  0.5698508370521012  0.2790867397820449  0.05664324148952459  1.0000
  C   C11       1.0  0.37748111170285625  0.3554111637070036  0.4659349120590477  1.0000
  C   C12       1.0  0.6224963203539318  0.644577460957869  0.9659084884019433  1.0000
  C   C13       1.0  0.6225305225787849  0.6445985693884919  0.5340707392727424  1.0000
  C   C14       1.0  0.37750249510266803  0.355422930804508  0.0340963857632275  1.0000
  C   C15       1.0  0.2358556649628483  0.331419301459185  0.5521760843530714  1.0000
  C   C16       1.0  0.764124559963527  0.6685671819077114  0.05215734396021079  1.0000
  C   C17       1.0  0.7641487239622504  0.6685876092999904  0.4478303436131839  1.0000
  C   C18       1.0  0.2358598817187243  0.3314312719847051  0.9478420925152092  1.0000
  C   C19       1.0  0.4533170712220169  0.15903481647834639  0.5942373211388982  1.0000
  C   C20       1.0  0.5466528904078629  0.8409336228788648  0.0942249639601584  1.0000
  C   C21       1.0  0.5466890775024352  0.840971177869548  0.4057652228986939  1.0000
  C   C22       1.0  0.4533259777622405  0.15905831198576686  0.9057721419297876  1.0000
  C   C23       1.0  0.6047849825793676  0.1783663417154527  0.5096864068941116  1.0000
  C   C24       1.0  0.39518530546163066  0.8216232075967865  0.0096637011870087  1.0000
  C   C25       1.0  0.39522298478470225  0.8216405898858807  0.4903153604028815  1.0000
  C   C26       1.0  0.60480790710632  0.17836973833643546  0.9903380655830603  1.0000
  I   I1        1.0  0.9280075464263645  0.9849652298914361  0.7499894616921453  1.0000
  I   I2        1.0  0.072011007975668  0.015037129237988698  0.24996958244815906  1.0000
  I   I3        1.0  0.7873689802725607  0.4005544411767373  0.7499987162010626  1.0000
  I   I4        1.0  0.2126281335267705  0.5994487201658669  0.2500007205304371  1.0000
  N   N1        1.0  0.2729627279992215  0.23502442490973854  0.6162881012321151  1.0000
  N   N2        1.0  0.7270298042086268  0.7649588637314223  0.11626757403093539  1.0000
  N   N3        1.0  0.7270417487499188  0.764985266036653  0.3837152196722258  1.0000
  N   N4        1.0  0.2729615897633479  0.23503314497934713  0.8837357462641363  1.0000
