data_image0
_chemical_formula_structural       Zn8H32C24N32O16
_chemical_formula_sum              "Zn8 H32 C24 N32 O16"
_cell_length_a       9.105648084
_cell_length_b       10.446078369
_cell_length_c       12.504
_cell_angle_alpha    90.0
_cell_angle_beta     90.0
_cell_angle_gamma    90.0

_space_group_name_H-M_alt    "P 1"
_space_group_IT_number       1

loop_
  _space_group_symop_operation_xyz
  'x, y, z'

loop_
  _atom_site_type_symbol
  _atom_site_label
  _atom_site_symmetry_multiplicity
  _atom_site_fract_x
  _atom_site_fract_y
  _atom_site_fract_z
  _atom_site_occupancy
  Zn  Zn1       1.0  0.08763791359367447  0.39674410372978736  0.0999520153550861  1.0000
  Zn  Zn2       1.0  0.4123605442865496  0.6032560524053635  0.5999512156110072  1.0000
  Zn  Zn3       1.0  0.9123611986057083  0.8967432245003124  0.4000479846449139  1.0000
  Zn  Zn4       1.0  0.5876385679128333  0.1032559743377917  0.9000495841330787  1.0000
  Zn  Zn5       1.0  0.9123622968251723  0.6032560524053635  0.9000479846449139  1.0000
  Zn  Zn6       1.0  0.5876385679128333  0.39674410372978736  0.4000487843889927  1.0000
  Zn  Zn7       1.0  0.08763791359367447  0.1032559743377917  0.5999520153550861  1.0000
  Zn  Zn8       1.0  0.4123616425060135  0.8967441817973592  0.09995121561100717  1.0000
  H   H1        1.0  0.2818668123699908  0.428506262530412  0.9063075815738982  1.0000
  H   H2        1.0  0.2181327437296972  0.5714948509017859  0.4063067818298123  1.0000
  H   H3        1.0  0.7181322998293922  0.9285063405979911  0.5936932181701877  1.0000
  H   H4        1.0  0.7818674666891496  0.0714947728342068  0.0936924184261017  1.0000
  H   H5        1.0  0.7181333980488558  0.5714938936047318  0.0936924184261017  1.0000
  H   H6        1.0  0.7818674666891496  0.428506262530412  0.5936924184261017  1.0000
  H   H7        1.0  0.2818668123699908  0.0714938155371598  0.4063075815738983  1.0000
  H   H8        1.0  0.2181327437296972  0.9285063405979911  0.9063067818298123  1.0000
  H   H9        1.0  0.407231859368224  0.3354837936502548  0.8363043825975678  1.0000
  H   H10       1.0  0.092767696731471  0.6645173197819432  0.33630358285348894  1.0000
  H   H11       1.0  0.5927672528311589  0.8354848290148807  0.663696417146511  1.0000
  H   H12       1.0  0.9072325136873829  0.1645172417143641  0.16369641714651095  1.0000
  H   H13       1.0  0.5927683510506299  0.6645163624848891  0.16369561740243196  1.0000
  H   H14       1.0  0.9072325136873829  0.3354837936502548  0.663696417146511  1.0000
  H   H15       1.0  0.407231859368224  0.16451628441731708  0.33630438259756795  1.0000
  H   H16       1.0  0.092767696731471  0.8354838717178267  0.836303582853489  1.0000
  H   H17       1.0  0.1706380463714865  0.10439324323242259  0.1659492962252074  1.0000
  H   H18       1.0  0.32936260794767946  0.8956069129027212  0.6659476967370422  1.0000
  H   H19       1.0  0.8293588693889618  0.6043933213000017  0.3340515035188716  1.0000
  H   H20       1.0  0.6706376024711744  0.3956068348351494  0.8340515035188715  1.0000
  H   H21       1.0  0.8293621640473674  0.8956069129027212  0.8340507037747926  1.0000
  H   H22       1.0  0.6706408971295801  0.10439420052947668  0.3340507037747926  1.0000
  H   H23       1.0  0.1706369481520156  0.3956068348351494  0.6659484964811284  1.0000
  H   H24       1.0  0.32936260794767946  0.6043933213000017  0.16594849648112833  1.0000
  H   H25       1.0  0.048609390118834  0.3523647698186281  0.4005950095969267  1.0000
  H   H26       1.0  0.45139236241978853  0.647631557128328  0.9005950095969268  1.0000
  H   H27       1.0  0.9513908203000127  0.852365805183247  0.0994041906589871  1.0000
  H   H28       1.0  0.5486089462185291  0.14763147906074886  0.5994049904030732  1.0000
  H   H29       1.0  0.9513908203000127  0.647635386316523  0.5994041906589871  1.0000
  H   H30       1.0  0.5486100444379999  0.35236572711567493  0.0994041906589871  1.0000
  H   H31       1.0  0.048609390118834  0.147636265545998  0.9005958093410129  1.0000
  H   H32       1.0  0.45139016598085385  0.852365805183247  0.4005958093410128  1.0000
  C   C1        1.0  0.23417333728796308  0.1357600383516697  0.09730006397952447  1.0000
  C   C2        1.0  0.2658273170311957  0.8642410750805283  0.5972992642354455  1.0000
  C   C3        1.0  0.7658246766919561  0.6357591591221947  0.4027007357645545  1.0000
  C   C4        1.0  0.734172893387651  0.3642409970129563  0.9026999360204754  1.0000
  C   C5        1.0  0.7658268731308907  0.8642410750805283  0.9026991362763894  1.0000
  C   C6        1.0  0.7341750898265855  0.1357590810546228  0.4026991362763894  1.0000
  C   C7        1.0  0.2341722390684922  0.3642409970129563  0.5973000639795245  1.0000
  C   C8        1.0  0.2658273170311957  0.6357591591221947  0.09729926423544548  1.0000
  C   C9        1.0  0.3222725030584427  0.25331994520095685  0.9712348048624406  1.0000
  C   C10       1.0  0.17772815126071603  0.7466811682312409  0.4712340051183617  1.0000
  C   C11       1.0  0.6777266091409402  0.753320023268536  0.5287659948816383  1.0000
  C   C12       1.0  0.8222720591581376  0.24668204746071606  0.028765994881638293  1.0000
  C   C13       1.0  0.677727707360404  0.7466811682312409  0.0287651951375594  1.0000
  C   C14       1.0  0.8222720591581376  0.25331898790390983  0.5287659948816383  1.0000
  C   C15       1.0  0.3222714048389719  0.24668013286661508  0.4712348048624405  1.0000
  C   C16       1.0  0.17772815126071603  0.7533190659714819  0.9712340051183617  1.0000
  C   C17       1.0  0.050372032365928  0.3312937044652173  0.3135076775431855  1.0000
  C   C18       1.0  0.44962642551429605  0.6687026224817316  0.8135084772872716  1.0000
  C   C19       1.0  0.9496281780529185  0.8312937825327964  0.18649152271272837  1.0000
  C   C20       1.0  0.5503726866850869  0.16870350171120654  0.6864923224568144  1.0000
  C   C21       1.0  0.9496281780529185  0.6687074089669807  0.6864923224568144  1.0000
  C   C22       1.0  0.5503748831240216  0.3312937044652173  0.18649312220089334  1.0000
  C   C23       1.0  0.050372032365928  0.1687073308994016  0.8135076775431855  1.0000
  C   C24       1.0  0.44962642551429605  0.8312937825327964  0.3135068777991066  1.0000
  N   N1        1.0  0.2221610127404929  0.2538129531813809  0.0528630838131789  1.0000
  N   N2        1.0  0.2778396415786659  0.7461881602508171  0.5528614843250139  1.0000
  N   N3        1.0  0.7778370012394191  0.7538120739519059  0.44713771593089996  1.0000
  N   N4        1.0  0.7221605688401879  0.24618808218324517  0.9471377159308998  1.0000
  N   N5        1.0  0.7778402958978248  0.7461881602508171  0.947136916186821  1.0000
  N   N6        1.0  0.7221616670596589  0.2538119958843268  0.44713771593089996  1.0000
  N   N7        1.0  0.2221599145210291  0.24618712488619815  0.552863083813179  1.0000
  N   N8        1.0  0.2778407397981296  0.7538120739519059  0.0528614843250139  1.0000
  N   N9        1.0  0.3334084484699672  0.06487506373790099  0.0479598528470859  1.0000
  N   N10       1.0  0.1665922058491915  0.935125092397243  0.547959053103007  1.0000
  N   N11       1.0  0.6665895655099447  0.56487514180548  0.45204174664107194  1.0000
  N   N12       1.0  0.8334080045696621  0.43512501432967093  0.9520401471529141  1.0000
  N   N13       1.0  0.6665917619488795  0.935125092397243  0.9520401471529141  1.0000
  N   N14       1.0  0.8334091027891333  0.06487506373790099  0.45204014715291396  1.0000
  N   N15       1.0  0.3334073502505034  0.43512501432967093  0.5479598528470859  1.0000
  N   N16       1.0  0.1665922058491915  0.56487514180548  0.0479598528470859  1.0000
  N   N17       1.0  0.3920819217989902  0.1395260449438425  0.9663675623800358  1.0000
  N   N18       1.0  0.10791763430070488  0.8604750684883554  0.4663667626359569  1.0000
  N   N19       1.0  0.6079160921809218  0.6395261230114144  0.5336340371081221  1.0000
  N   N20       1.0  0.892082576118149  0.36047594771783037  0.0336324376199642  1.0000
  N   N21       1.0  0.6079182886198637  0.8604750684883554  0.0336324376199642  1.0000
  N   N22       1.0  0.892082576118149  0.1395250876467955  0.5336324376199642  1.0000
  N   N23       1.0  0.3920819217989902  0.3604749904207835  0.46636756238003574  1.0000
  N   N24       1.0  0.10791763430070488  0.6395251657143675  0.9663667626359569  1.0000
  N   N25       1.0  0.3514620783141638  0.35292574588955  0.9063059820857331  1.0000
  N   N26       1.0  0.1485374777855313  0.6470753675426479  0.4063051823416473  1.0000
  N   N27       1.0  0.6485370338852192  0.8529267812541689  0.5936948176583527  1.0000
  N   N28       1.0  0.8514627326333226  0.147075289475076  0.0936940179142667  1.0000
  N   N29       1.0  0.6485381321046901  0.6470744102456009  0.0936932181701877  1.0000
  N   N30       1.0  0.8514627326333226  0.3529247885924959  0.5936948176583527  1.0000
  N   N31       1.0  0.3514620783141638  0.147074332178029  0.4063059820857333  1.0000
  N   N32       1.0  0.14853857600499504  0.8529258239571218  0.9063051823416473  1.0000
  O   O1        1.0  0.0938373624938791  0.4260268631725808  0.2554006717850257  1.0000
  O   O2        1.0  0.4061588989474031  0.5739723356655232  0.7554006717850257  1.0000
  O   O3        1.0  0.9061628479249748  0.9260259839431058  0.2445993282149743  1.0000
  O   O4        1.0  0.5938402132519726  0.0739722575979442  0.7446001279590533  1.0000
  O   O5        1.0  0.9061628479249748  0.5739742502596172  0.7445993282149742  1.0000
  O   O6        1.0  0.5938402132519726  0.42602590587552663  0.2445993282149743  1.0000
  O   O7        1.0  0.0938373624938791  0.0739741721920453  0.7554006717850257  1.0000
  O   O8        1.0  0.4061599971668741  0.9260259839431058  0.2554014715291117  1.0000
  O   O9        1.0  0.0120716283987647  0.2233038962183542  0.2811884197056926  1.0000
  O   O10       1.0  0.4879290259203941  0.7766914734315478  0.7811868202175276  1.0000
  O   O11       1.0  0.9879285820200819  0.7233039742859331  0.2188107805502213  1.0000
  O   O12       1.0  0.5120700862789889  0.27669139536396864  0.7188131797824723  1.0000
  O   O13       1.0  0.9879285820200819  0.7766962599167897  0.7188115802943073  1.0000
  O   O14       1.0  0.5120722827179234  0.22330772540655627  0.2188123800383863  1.0000
  O   O15       1.0  0.0120716283987647  0.2766961818492176  0.7811884197056924  1.0000
  O   O16       1.0  0.48792792770092314  0.7233078034741282  0.2811876199616137  1.0000
