data_image0
_chemical_formula_structural       Cu2H24C20N24Cl4
_chemical_formula_sum              "Cu2 H24 C20 N24 Cl4"
_cell_length_a       7.662900774938895
_cell_length_b       8.053644327862672
_cell_length_c       13.860207822052736
_cell_angle_alpha    89.99997100621648
_cell_angle_beta     89.99969331048338
_cell_angle_gamma    100.03643254407395

_space_group_name_H-M_alt    "P 1"
_space_group_IT_number       1

loop_
  _space_group_symop_operation_xyz
  'x, y, z'

loop_
  _atom_site_type_symbol
  _atom_site_label
  _atom_site_symmetry_multiplicity
  _atom_site_fract_x
  _atom_site_fract_y
  _atom_site_fract_z
  _atom_site_occupancy
  Cu  Cu1       1.0  1.7102626728028831e-06  0.9999999806059134  0.999999435648057  1.0000
  Cu  Cu2       1.0  0.5000008780853946  5.226733889997652e-07  0.4999996952412787  1.0000
  H   H1        1.0  0.3114802487445729  0.31964363550176944  0.0117359655429752  1.0000
  H   H2        1.0  0.188516317870679  0.6803572805167021  0.5117358131090413  1.0000
  H   H3        1.0  0.6885201566570843  0.6803590899796318  0.988264720304315  1.0000
  H   H4        1.0  0.8114812452715369  0.3196441879945837  0.4882627082729628  1.0000
  H   H5        1.0  0.964105631509625  0.10531336559997577  0.2307079330953812  1.0000
  H   H6        1.0  0.5358915199296489  0.89468174796945  0.7307074501514421  1.0000
  H   H7        1.0  0.03589123254175059  0.8946843200031365  0.7692920312680231  1.0000
  H   H8        1.0  0.4641079533642411  0.10531593363774758  0.2692925142080824  1.0000
  H   H9        1.0  0.3676360773536587  0.6110724059957916  0.2395325675863518  1.0000
  H   H10       1.0  0.13235819039063304  0.38892793124777103  0.7395333898214461  1.0000
  H   H11       1.0  0.6323640950237888  0.38892905851774623  0.760467396771574  1.0000
  H   H12       1.0  0.8676435196322742  0.6110747922356695  0.2604672960239043  1.0000
  H   H13       1.0  0.5188288550826313  0.5528780178345867  0.15014480260133212  1.0000
  H   H14       1.0  0.9811658945980282  0.44712108932531436  0.6501445695034463  1.0000
  H   H15       1.0  0.481168242000237  0.44712092873822223  0.8498544402716419  1.0000
  H   H16       1.0  0.018831202473918993  0.5528778572447449  0.3498568378392335  1.0000
  H   H17       1.0  0.15443519670442638  0.8088771728617483  0.18287425356160011  1.0000
  H   H18       1.0  0.3455607144139988  0.19112204536936864  0.6828752211352693  1.0000
  H   H19       1.0  0.8455616673615155  0.19112051274503014  0.8171228248421941  1.0000
  H   H20       1.0  0.6544394579634484  0.808879419144169  0.3171247432226566  1.0000
  H   H21       1.0  0.28735600398157857  0.8144584127578863  0.8869147248355844  1.0000
  H   H22       1.0  0.21265089422668376  0.18554026707893456  0.3869152110212326  1.0000
  H   H23       1.0  0.7126491538566737  0.18554178279595845  0.1130845180252038  1.0000
  H   H24       1.0  0.7873488120950611  0.8144586754970433  0.6130847533377591  1.0000
  C   C1        1.0  0.24139699621953525  0.2979942709598831  0.0799118184570986  1.0000
  C   C2        1.0  0.258601258597892  0.702005206876535  0.5799114510411415  1.0000
  C   C3        1.0  0.7586024770597957  0.7020034106436481  0.920091031862043  1.0000
  C   C4        1.0  0.7413965375612503  0.2979975226007736  0.4200892348100354  1.0000
  C   C5        1.0  0.06549895459703947  0.19309164907342338  0.1933469027570709  1.0000
  C   C6        1.0  0.43449899403038467  0.8069050166182592  0.6933459808475959  1.0000
  C   C7        1.0  0.9344996801276578  0.8069085564683716  0.8066537830932319  1.0000
  C   C8        1.0  0.5655017838884006  0.19309266299189418  0.3066532620200846  1.0000
  C   C9        1.0  0.38102300618758267  0.5624531210519876  0.1662573187815184  1.0000
  C   C10       1.0  0.1189754488473156  0.43754487443585777  0.666256723520256  1.0000
  C   C11       1.0  0.6189758615613244  0.4375483454576709  0.833744088558156  1.0000
  C   C12       1.0  0.8810237914150816  0.5624515462016433  0.3337439623297058  1.0000
  C   C13       1.0  0.20769255557070207  0.7839728130970086  0.1126443508045227  1.0000
  C   C14       1.0  0.2923121250412279  0.21602783255048755  0.6126461910115779  1.0000
  C   C15       1.0  0.7923071507583258  0.21602612948079516  0.8873541705746606  1.0000
  C   C16       1.0  0.7076908896029364  0.7839748889349917  0.38735449483183976  1.0000
  C   C17       1.0  0.27991294699792485  0.7831030679648734  0.9629669912381404  1.0000
  C   C18       1.0  0.220092345144586  0.21689794257788717  0.4629674460159805  1.0000
  C   C19       1.0  0.7200922108403275  0.21689712758897164  0.03703225162264801  1.0000
  C   C20       1.0  0.7799091318504663  0.7831035199367733  0.5370332398299027  1.0000
  N   N1        1.0  0.11375168821098211  0.16761477314226167  0.1001772360594728  1.0000
  N   N2        1.0  0.38624636209141266  0.8323846532044571  0.6001771717318434  1.0000
  N   N3        1.0  0.8862497887840772  0.8323866893723987  0.8998234497864175  1.0000
  N   N4        1.0  0.613752039609075  0.16761429136947467  0.39982279262908793  1.0000
  N   N5        1.0  0.15514815308470986  0.3337825777512293  0.23123146190549454  1.0000
  N   N6        1.0  0.3448481086020934  0.6662139936838327  0.7312301268673665  1.0000
  N   N7        1.0  0.84484941004294  0.6662188907563829  0.7687699454361194  1.0000
  N   N8        1.0  0.6551526693203298  0.33378368592723706  0.26876839451041695  1.0000
  N   N9        1.0  0.2671738953413154  0.397865560884803  0.15823165881807452  1.0000
  N   N10       1.0  0.23282203144232475  0.6021324589897076  0.6582313976106988  1.0000
  N   N11       1.0  0.7328245063555343  0.602133383688219  0.8417690270327612  1.0000
  N   N12       1.0  0.767175531696246  0.39786900952065435  0.3417678452612094  1.0000
  N   N13       1.0  0.3231893361438125  0.6782948931494273  0.09829231737369781  1.0000
  N   N14       1.0  0.1768091992325083  0.3217070599229643  0.5982930271621427  1.0000
  N   N15       1.0  0.6768103701815702  0.32170404942746694  0.9017069254953967  1.0000
  N   N16       1.0  0.823190740117084  0.6782931436217862  0.4017069371963161  1.0000
  N   N17       1.0  0.17828189837917557  0.8522064883769003  0.0277040996841009  1.0000
  N   N18       1.0  0.32172541012027267  0.14779689302569204  0.5277029865374558  1.0000
  N   N19       1.0  0.8217206502238522  0.1477937111746925  0.9722937002007654  1.0000
  N   N20       1.0  0.6782791421766419  0.8522070874315304  0.4722969778135777  1.0000
  N   N21       1.0  0.3694348011000628  0.6749056444249388  0.0032431692048291  1.0000
  N   N22       1.0  0.130569445920635  0.3250940202147134  0.5032432941345135  1.0000
  N   N23       1.0  0.6305692851447873  0.32509581409564686  0.9967560736573733  1.0000
  N   N24       1.0  0.8694315650260049  0.674904920364227  0.4967559487326341  1.0000
  Cl  Cl1       1.0  0.22224592589276423  0.16442804558104734  0.8520020212678008  1.0000
  Cl  Cl2       1.0  0.27774944355252984  0.8355770477785995  0.35200645071174114  1.0000
  Cl  Cl3       1.0  0.7777537804289733  0.8355708969949301  0.1479979430911911  1.0000
  Cl  Cl4       1.0  0.7222468149575076  0.16442442272789037  0.6479942351419083  1.0000
