data_image0
_chemical_formula_structural       Cu2H12C10N16
_chemical_formula_sum              "Cu2 H12 C10 N16"
_cell_length_a       5.153587691481622
_cell_length_b       9.012922763474405
_cell_length_c       10.098458225058785
_cell_angle_alpha    105.50540493845318
_cell_angle_beta     90.12850887093018
_cell_angle_gamma    100.5554269003988

_space_group_name_H-M_alt    "P 1"
_space_group_IT_number       1

loop_
  _space_group_symop_operation_xyz
  'x, y, z'

loop_
  _atom_site_type_symbol
  _atom_site_label
  _atom_site_symmetry_multiplicity
  _atom_site_fract_x
  _atom_site_fract_y
  _atom_site_fract_z
  _atom_site_occupancy
  Cu  Cu1       1.0  0.6147728078388752  0.8496795137458691  0.5114288913748907  1.0000
  Cu  Cu2       1.0  0.38524012317390094  0.1503214069567989  0.488577747310053  1.0000
  H   H1        1.0  0.5946459757264507  0.4334116663526116  0.9106091758890353  1.0000
  H   H2        1.0  0.4053627403942953  0.5665880455108335  0.08939419066822293  1.0000
  H   H3        1.0  0.3848879048643212  0.40968613775503826  0.7704653032316597  1.0000
  H   H4        1.0  0.615107616234951  0.5903147286911474  0.22953726115023426  1.0000
  H   H5        1.0  0.4203386758497843  0.5967596399277896  0.6362274429351655  1.0000
  H   H6        1.0  0.579658111955318  0.40323300690161545  0.36377225644528  1.0000
  H   H7        1.0  0.9657693761400735  0.6666709016115246  0.9843620737558536  1.0000
  H   H8        1.0  0.034237406058700494  0.33333461619363897  0.015637659288579176  1.0000
  H   H9        1.0  0.20888352963755347  0.9027757396487743  0.9248846573522156  1.0000
  H   H10       1.0  0.7911158794656855  0.09723093574167047  0.07511430782267327  1.0000
  H   H11       1.0  0.04082968893650469  0.9789994878478154  0.7221109186781048  1.0000
  H   H12       1.0  0.9591582583999739  0.0209954092814399  0.277881322190673  1.0000
  C   C1        1.0  0.5931735957587704  0.6610991925565486  0.7033711075937318  1.0000
  C   C2        1.0  0.40682632903767063  0.3388969174153331  0.2966244511438204  1.0000
  C   C3        1.0  0.6685238076184633  0.6113787595567503  0.8163499270549008  1.0000
  C   C4        1.0  0.3314748856503869  0.38861972915270837  0.18364914022246379  1.0000
  C   C5        1.0  0.8973031037996434  0.7002557688161842  0.8962235414612675  1.0000
  C   C6        1.0  0.1026983230220608  0.2997450327592688  0.10377310014805366  1.0000
  C   C7        1.0  0.03345033386077736  0.8322957326291415  0.8631949783852871  1.0000
  C   C8        1.0  0.966545285001061  0.1677050546315612  0.13680063607181833  1.0000
  C   C9        1.0  0.9438402947483835  0.8756159430649858  0.7513490348052441  1.0000
  C   C10       1.0  0.05615421156059601  0.1243813141808161  0.2486447746516375  1.0000
  N   N1        1.0  0.4983343299240913  0.9523643671171129  0.37025377407802995  1.0000
  N   N2        1.0  0.5016764390933518  0.047623630052143505  0.6297479124520321  1.0000
  N   N3        1.0  0.4716265313992309  0.8977467081414902  0.24645263135707998  1.0000
  N   N4        1.0  0.5283795561773061  0.10224479341569288  0.7535488401745878  1.0000
  N   N5        1.0  0.44875797046702826  0.8460554524661391  0.12762591000121398  1.0000
  N   N6        1.0  0.5512332726298081  0.1539500686444413  0.8723747244074286  1.0000
  N   N7        1.0  0.2326785692835003  0.6696328830528272  0.464128458291462  1.0000
  N   N8        1.0  0.7673239840571499  0.3303714372253167  0.5358689954716807  1.0000
  N   N9        1.0  0.04289839726283873  0.7029933120047146  0.42479051967491427  1.0000
  N   N10       1.0  0.9571013035502318  0.297014604159898  0.575214673296301  1.0000
  N   N11       1.0  0.8521208573952421  0.7375808237430092  0.3814502948136961  1.0000
  N   N12       1.0  0.1478749062695357  0.2624271356687585  0.6185588466725631  1.0000
  N   N13       1.0  0.7276595406220565  0.7888362276754675  0.6734524748424914  1.0000
  N   N14       1.0  0.2723377064858497  0.21115752418155856  0.32654153817750836  1.0000
  N   N15       1.0  0.5160845514649778  0.48455284138634613  0.8459456750030225  1.0000
  N   N16       1.0  0.48391556003264924  0.5154504067999639  0.15406043222449733  1.0000
