data_image0
_chemical_formula_structural       Zn2H28C40N8Cl4O8
_chemical_formula_sum              "Zn2 H28 C40 N8 Cl4 O8"
_cell_length_a       9.598974131842033
_cell_length_b       10.24157807664089
_cell_length_c       13.133655730597658
_cell_angle_alpha    107.39839367087728
_cell_angle_beta     110.72027233119782
_cell_angle_gamma    94.49482079862508

_space_group_name_H-M_alt    "P 1"
_space_group_IT_number       1

loop_
  _space_group_symop_operation_xyz
  'x, y, z'

loop_
  _atom_site_type_symbol
  _atom_site_label
  _atom_site_symmetry_multiplicity
  _atom_site_fract_x
  _atom_site_fract_y
  _atom_site_fract_z
  _atom_site_occupancy
  Zn  Zn1       1.0  0.23623246566774728  0.7307576285245362  0.12176460594902494  1.0000
  Zn  Zn2       1.0  0.763767037338738  0.2692462213859699  0.8782339935798333  1.0000
  H   H1        1.0  0.06166628913220514  0.46623942357690146  0.15031543019435395  1.0000
  H   H2        1.0  0.9383437166669566  0.5337613898887383  0.8496866478030612  1.0000
  H   H3        1.0  0.9741817065368323  0.8738229444191108  0.2039603019224431  1.0000
  H   H4        1.0  0.025817212592251296  0.12617784752463018  0.7960427873062914  1.0000
  H   H5        1.0  0.792097361494605  0.7272428130019648  0.27376307912073383  1.0000
  H   H6        1.0  0.20790350455207124  0.2727516946446115  0.7262367902608702  1.0000
  H   H7        1.0  0.8626557686225097  0.3563691848313155  0.19969155143857623  1.0000
  H   H8        1.0  0.13735224320595318  0.6436274608431206  0.8003106020534005  1.0000
  H   H9        1.0  0.7254728881284577  0.45068136567840617  0.22800164845426  1.0000
  H   H10       1.0  0.27453448836157435  0.5493173860404709  0.7720023457960538  1.0000
  H   H11       1.0  0.7223202778804847  0.4018944747793398  0.3949983042510468  1.0000
  H   H12       1.0  0.2776805912415909  0.5981052419933376  0.6050019860928941  1.0000
  H   H13       1.0  0.850271436923322  0.4335076832077647  0.6035190398506103  1.0000
  H   H14       1.0  0.1497359122985031  0.5664910459536685  0.396483419447776  1.0000
  H   H15       1.0  0.5233502451527415  0.9780512133174002  0.3289405339741052  1.0000
  H   H16       1.0  0.4766515569923797  0.021952708569813198  0.6710624681642869  1.0000
  H   H17       1.0  0.3732628603012174  0.5703714110562643  0.3095555774927021  1.0000
  H   H18       1.0  0.6267355514140291  0.4296272444940358  0.6904438534109049  1.0000
  H   H19       1.0  0.6115352404077754  0.7127372609375726  0.5272545360648238  1.0000
  H   H20       1.0  0.3884680588529222  0.2872634945000385  0.4727450787675167  1.0000
  H   H21       1.0  0.7476841574699336  0.9674527281286345  0.6304761783449636  1.0000
  H   H22       1.0  0.2523216431753  0.0325543314936212  0.36952701931793547  1.0000
  H   H23       1.0  0.6913151656510268  0.0871003903251406  0.5581398606027079  1.0000
  H   H24       1.0  0.3086852536690118  0.912902444295085  0.4418602622823046  1.0000
  H   H25       1.0  0.18743842237424257  0.8556476471107147  0.5606744264735256  1.0000
  H   H26       1.0  0.8125626762619333  0.14435832442733698  0.4393265790433674  1.0000
  H   H27       1.0  0.9569402215877646  0.8447553972364191  0.6048075203496026  1.0000
  H   H28       1.0  0.043060042539480016  0.1552516572642446  0.3951965666669395  1.0000
  C   C1        1.0  0.37747765254462007  0.5052654393103638  0.04043578971057831  1.0000
  C   C2        1.0  0.6225192484209502  0.49473637141082344  0.959566261023106  1.0000
  C   C3        1.0  0.43629626470528393  0.38303799034906666  0.023028814886515626  1.0000
  C   C4        1.0  0.5636943249874307  0.6169605993816488  0.9769678702371678  1.0000
  C   C5        1.0  0.5506513376924788  0.368964335070487  0.9789236405925053  1.0000
  C   C6        1.0  0.4493430997154775  0.6310259961761207  0.021076708776199483  1.0000
  C   C7        1.0  0.12131915077747392  0.9802984976237145  0.09572581709702635  1.0000
  C   C8        1.0  0.8786679455633147  0.019705153792500596  0.9042619989088153  1.0000
  C   C9        1.0  0.0730692180627983  0.10756767892223709  0.11428936488739791  1.0000
  C   C10       1.0  0.9269272792207062  0.8924329395362777  0.8857024144481045  1.0000
  C   C11       1.0  0.9591156949760421  0.1346501949247809  0.025023413138377793  1.0000
  C   C12       1.0  0.04088281739558407  0.8653441956301862  0.9749689837298379  1.0000
  C   C13       1.0  0.01825518820786702  0.559680512783693  0.17660950865979433  1.0000
  C   C14       1.0  0.9817503996327589  0.4403255124780117  0.8233941622684426  1.0000
  C   C15       1.0  0.9676369596000497  0.7681027360937449  0.20440652862588132  1.0000
  C   C16       1.0  0.03236300684256582  0.2318980072479278  0.7955930058378728  1.0000
  C   C17       1.0  0.8756446193411378  0.6969051345490768  0.2383364069957281  1.0000
  C   C18       1.0  0.1243547086876617  0.30309250571094287  0.7616645472640329  1.0000
  C   C19       1.0  0.8483334509615263  0.4561075579450249  0.2525771843125214  1.0000
  C   C20       1.0  0.15167611559431293  0.543891175520784  0.7474250727395954  1.0000
  C   C21       1.0  0.9271787515827584  0.48118389975339665  0.3809605318705139  1.0000
  C   C22       1.0  0.07282859456366712  0.5188096202819352  0.6190415064655355  1.0000
  C   C23       1.0  0.8445854238167884  0.4448789120478977  0.4409767041886282  1.0000
  C   C24       1.0  0.1554212733571063  0.5551167027531532  0.5590264074297977  1.0000
  C   C25       1.0  0.9165016006480828  0.46315351192887266  0.5584401802730525  1.0000
  C   C26       1.0  0.08350422111456622  0.5368431519986245  0.441563710417114  1.0000
  C   C27       1.0  0.5140977994160851  0.8853808474910212  0.3518743952150701  1.0000
  C   C28       1.0  0.48590243436756003  0.11462097532609758  0.6481277358872077  1.0000
  C   C29       1.0  0.4393171029030754  0.6765318021295955  0.346761660404411  1.0000
  C   C30       1.0  0.5606809271806625  0.3234700276618696  0.6532414404200892  1.0000
  C   C31       1.0  0.5565842766478754  0.7445445864946905  0.4536492929188825  1.0000
  C   C32       1.0  0.4434106061541813  0.25545824300394326  0.5463517193197661  1.0000
  C   C33       1.0  0.7283093969754761  0.9871239823503192  0.5493576046149898  1.0000
  C   C34       1.0  0.27169215146273024  0.012878871340177503  0.45064356836083874  1.0000
  C   C35       1.0  0.8694870699847854  0.9933362824138996  0.5242960750963306  1.0000
  C   C36       1.0  0.13051022932178571  0.006667574470945698  0.4757034941547573  1.0000
  C   C37       1.0  0.10548896461024536  0.9197064878980327  0.5345197011807485  1.0000
  C   C38       1.0  0.8945108330054766  0.08029846404535591  0.4654830299385679  1.0000
  C   C39       1.0  0.9756548713534202  0.9125404111580053  0.5585967126131024  1.0000
  C   C40       1.0  0.024343570705426004  0.08746347607583968  0.44140467420476887  1.0000
  N   N1        1.0  0.05656878519157974  0.6817795275594918  0.1667711853035669  1.0000
  N   N2        1.0  0.9434314213238579  0.31822227270018283  0.8332294108467835  1.0000
  N   N3        1.0  0.9084040656319559  0.5649092228512984  0.2196234544308098  1.0000
  N   N4        1.0  0.09160441270802984  0.43508952538040563  0.7803800549583927  1.0000
  N   N5        1.0  0.4138508945250409  0.7661910837879021  0.28484806149486996  1.0000
  N   N6        1.0  0.5861451310292836  0.23381177605973144  0.7151547683105691  1.0000
  N   N7        1.0  0.6021079804905655  0.8770046154506019  0.45555188224417975  1.0000
  N   N8        1.0  0.3978902487636732  0.12299823742268501  0.5444499778390295  1.0000
  Cl  Cl1       1.0  0.3592351236244937  0.24272967906291146  0.04722739885234264  1.0000
  Cl  Cl2       1.0  0.640762224067707  0.7572638046846336  0.9527743983779472  1.0000
  Cl  Cl3       1.0  0.15954034552432012  0.2398653619376248  0.24949000581487724  1.0000
  Cl  Cl4       1.0  0.840449215706613  0.7601289437274872  0.7504985951825986  1.0000
  O   O1        1.0  0.26689000303049687  0.5208259408398278  0.07126875581845137  1.0000
  O   O2        1.0  0.7331044238187446  0.4791695882541589  0.9287312470366089  1.0000
  O   O3        1.0  0.5999748302498347  0.2580368808943235  0.9533488864820329  1.0000
  O   O4        1.0  0.4000290142516151  0.7419608356467932  0.04665626814099969  1.0000
  O   O5        1.0  0.9173384832407266  0.24998680717411048  0.036977898722149447  1.0000
  O   O6        1.0  0.08265025711537538  0.7500085927323356  0.9630145512509288  1.0000
  O   O7        1.0  0.2259816136828833  0.9506273320803873  0.17120173066079053  1.0000
  O   O8        1.0  0.774011946048155  0.04937011131975311  0.8287870658611922  1.0000
