data_image0
_chemical_formula_structural       Zn2H40C76N4O12
_chemical_formula_sum              "Zn2 H40 C76 N4 O12"
_cell_length_a       14.648387905072331
_cell_length_b       15.660753707571983
_cell_length_c       28.08973491339425
_cell_angle_alpha    90.10041618717618
_cell_angle_beta     105.95185938520935
_cell_angle_gamma    98.5175856035349

_space_group_name_H-M_alt    "P 1"
_space_group_IT_number       1

loop_
  _space_group_symop_operation_xyz
  'x, y, z'

loop_
  _atom_site_type_symbol
  _atom_site_label
  _atom_site_symmetry_multiplicity
  _atom_site_fract_x
  _atom_site_fract_y
  _atom_site_fract_z
  _atom_site_occupancy
  Zn  Zn1       1.0  0.5933505983355898  0.48274002155626056  0.5117754672978592  1.0000
  Zn  Zn2       1.0  0.4064067252422203  0.5169690227616144  0.4865741746702952  1.0000
  H   H1        1.0  0.6414376340021589  0.4805222524982398  0.36493154540271894  1.0000
  H   H2        1.0  0.3689815149553226  0.8522181633473879  0.5270375326154237  1.0000
  H   H3        1.0  0.9760568040895166  0.6713599949595377  0.4124006013694839  1.0000
  H   H4        1.0  0.02443365473861551  0.3295830627419037  0.5873086072100975  1.0000
  H   H5        1.0  0.7631041177346772  0.5332492898886869  0.4813488106489601  1.0000
  H   H6        1.0  0.2361721088453591  0.4645699563636327  0.5161510368933904  1.0000
  H   H7        1.0  0.6937412739100918  0.35241580166703557  0.5768610368079337  1.0000
  H   H8        1.0  0.30656413618341816  0.6491141307290533  0.4227287589931238  1.0000
  H   H9        1.0  0.1420648426640767  0.6932990794375797  0.401321606359474  1.0000
  H   H10       1.0  0.8584164047663518  0.30828500105202744  0.5986498357757029  1.0000
  H   H11       1.0  0.85818990659952  0.5956625487175344  0.4507606793606911  1.0000
  H   H12       1.0  0.3645695147755601  0.5338899805767382  0.6340162594207825  1.0000
  H   H13       1.0  0.14201845521995438  0.4044516206857267  0.5485206798349935  1.0000
  H   H14       1.0  0.6358408187512621  0.48000670016618585  0.27486154571085564  1.0000
  H   H15       1.0  0.36713346129401697  0.5311532769367986  0.7237934755354516  1.0000
  H   H16       1.0  0.6451974932700749  0.4601391177359062  0.6705608436874044  1.0000
  H   H17       1.0  0.3474347866843884  0.5213426948706469  0.3278634912057541  1.0000
  H   H18       1.0  0.6484139605399333  0.4566107260799512  0.7604412681816228  1.0000
  H   H19       1.0  0.34124915227746994  0.5216717481493018  0.23768652191128586  1.0000
  H   H20       1.0  0.5402893841422622  0.7090801247997901  0.8818459678176325  1.0000
  H   H21       1.0  0.4971643203331124  0.2866299882556759  0.1232730226744678  1.0000
  H   H22       1.0  0.5278630302100921  0.7138614146535645  0.96812688513252  1.0000
  H   H23       1.0  0.5406485515364918  0.22184348381494357  0.5227470072466645  1.0000
  H   H24       1.0  0.4970096537351551  0.28027609170550244  0.03505620637977099  1.0000
  H   H25       1.0  0.47966962913910993  0.7098841349288065  0.027819947361976488  1.0000
  H   H26       1.0  0.4644485493605756  0.27627314715535073  0.9617541044605674  1.0000
  H   H27       1.0  0.7628700604764161  0.055351146470307803  0.5693341465771837  1.0000
  H   H28       1.0  0.24606312301414585  0.9470220058029143  0.5127889964344732  1.0000
  H   H29       1.0  0.4576410574591277  0.7864543823771013  0.08799486207554  1.0000
  H   H30       1.0  0.4018919133412808  0.7328400154171321  0.1314195434971168  1.0000
  H   H31       1.0  0.526205344706561  0.7636521794160342  0.1486056931934883  1.0000
  H   H32       1.0  0.44731736846811987  0.195549873900319  0.8952110629711784  1.0000
  H   H33       1.0  0.3960732080906694  0.2382656533361782  0.8364612507454725  1.0000
  H   H34       1.0  0.46236721705811584  0.7791934151188685  0.5157390301866371  1.0000
  H   H35       1.0  0.5191996776672453  0.23530284047249236  0.8553264451144571  1.0000
  H   H36       1.0  0.2437717811013797  0.2489724295112197  0.48485700546550703  1.0000
  H   H37       1.0  0.7580309854540275  0.7512885612910908  0.5447795220760625  1.0000
  H   H38       1.0  0.8068742722393124  0.9102844286801071  0.564142931050597  1.0000
  H   H39       1.0  0.19901704993804964  0.09103158312020551  0.4952316572715888  1.0000
  H   H40       1.0  0.6400416816811468  0.15032493835380478  0.5550724839626895  1.0000
  C   C1        1.0  0.5744640199883762  0.6635137802801765  0.5147173587619491  1.0000
  C   C2        1.0  0.5168931171545025  0.571500510556042  0.8747305604240694  1.0000
  C   C3        1.0  0.49489749581648806  0.50139204376093  0.3516584908818174  1.0000
  C   C4        1.0  0.5044957864447708  0.4966360390397354  0.6471870381846827  1.0000
  C   C5        1.0  0.5031611959259407  0.5749942497186493  0.9732171960916106  1.0000
  C   C6        1.0  0.49046990510479543  0.4162827488175012  0.024648391457631594  1.0000
  C   C7        1.0  0.4874739147357302  0.4147025177132093  0.9721088630162171  1.0000
  C   C8        1.0  0.4918436030337218  0.5751932721356141  0.023386655878489596  1.0000
  C   C9        1.0  0.49738873146076645  0.4942515823900848  0.9479972384317747  1.0000
  C   C10       1.0  0.48980689502916147  0.4964677300112186  0.0487978017464101  1.0000
  C   C11       1.0  0.5196699991283182  0.6514109880698696  0.9490699241285157  1.0000
  C   C12       1.0  0.42506038040863786  0.3368197308374121  0.4962784864842718  1.0000
  C   C13       1.0  0.493733342751561  0.3418002989977466  0.0521321720093155  1.0000
  C   C14       1.0  0.5270480777646822  0.6496026067209825  0.9006584169762277  1.0000
  C   C15       1.0  0.4940216649948822  0.3445447098718191  0.10177984519792461  1.0000
  C   C16       1.0  0.49804732404639634  0.5009153958371827  0.4055246372059926  1.0000
  C   C17       1.0  0.5027036298083445  0.4983447332876593  0.5935541812652616  1.0000
  C   C18       1.0  0.4827692731410379  0.6500004752247932  0.04748077463317909  1.0000
  C   C19       1.0  0.47534573557251025  0.3377844365063396  0.9444962875671622  1.0000
  C   C20       1.0  0.6062880963642384  0.7577453228968593  0.5286996303894115  1.0000
  C   C21       1.0  0.39596045286435794  0.24308920138285825  0.5036818306982411  1.0000
  C   C22       1.0  0.7311415082549146  0.8814944635223512  0.5538115487732682  1.0000
  C   C23       1.0  0.4870694350617199  0.4990098209680695  0.0993260234798541  1.0000
  C   C24       1.0  0.2742488088528886  0.1198811630448375  0.5018552178196529  1.0000
  C   C25       1.0  0.7047188895586413  0.7937782022513885  0.5430599119955346  1.0000
  C   C26       1.0  0.29841288823907763  0.20706301393114052  0.4960664860757903  1.0000
  C   C27       1.0  0.5370397164705522  0.810036234458515  0.5271830843349861  1.0000
  C   C28       1.0  0.4669117612851323  0.1912073048876834  0.5180729040502356  1.0000
  C   C29       1.0  0.56164407522791  0.899718761491272  0.5380144172349404  1.0000
  C   C30       1.0  0.4446338630279384  0.10203876072903031  0.5242194576001822  1.0000
  C   C31       1.0  0.6611196332806769  0.9363774684441638  0.5506358591246184  1.0000
  C   C32       1.0  0.3456244848340119  0.0654461171225762  0.5150816971337946  1.0000
  C   C33       1.0  0.4896250335784629  0.9556122714888176  0.5336663468888858  1.0000
  C   C34       1.0  0.5015289682447132  0.4920994341712157  0.8977024036165488  1.0000
  C   C35       1.0  0.5177284326959607  0.04646033085613511  0.536334224030128  1.0000
  C   C36       1.0  0.6178501587780403  0.08055912327792207  0.5502404470692214  1.0000
  C   C37       1.0  0.3903314034153523  0.9216928003973878  0.5259637269305202  1.0000
  C   C38       1.0  0.6867632644950985  0.027756480065882296  0.5582204903179857  1.0000
  C   C39       1.0  0.32137841844489395  0.9744596865949334  0.5180627421824724  1.0000
  C   C40       1.0  0.48083889525429396  0.5786434181044982  0.17577283285167766  1.0000
  C   C41       1.0  0.49211405812163617  0.4119030879028641  0.8186110492258933  1.0000
  C   C42       1.0  0.15986721853295893  0.6421710982989025  0.4269582190809943  1.0000
  C   C43       1.0  0.8403414566400255  0.358638878853739  0.572501319470966  1.0000
  C   C44       1.0  0.2499862395024478  0.6185627337774379  0.4382640502168158  1.0000
  C   C45       1.0  0.48124440942738284  0.5776615155098455  0.12316725404306791  1.0000
  C   C46       1.0  0.7500954026130838  0.38200147362189085  0.5608822049771618  1.0000
  C   C47       1.0  0.21016063476210423  0.5143326348670314  0.4912000952137633  1.0000
  C   C48       1.0  0.7895060332300258  0.48466051097432933  0.5070863697639396  1.0000
  C   C49       1.0  0.11598294294619649  0.5333292721798415  0.48223926407887774  1.0000
  C   C50       1.0  0.8840346471648811  0.46632271331710473  0.5165836430664896  1.0000
  C   C51       1.0  0.09011444092538311  0.5996421154984974  0.4486408040347812  1.0000
  C   C52       1.0  0.9100342771452785  0.4006171351579584  0.5505855772068813  1.0000
  C   C53       1.0  0.046819708421523394  0.4884895366735478  0.5052496978822703  1.0000
  C   C54       1.0  0.9532599642587128  0.5111580311254328  0.4936247152389299  1.0000
  C   C55       1.0  0.9298743215203086  0.5778337241660979  0.45972294185300916  1.0000
  C   C56       1.0  0.4900287383717836  0.4119334625639723  0.8709945383150955  1.0000
  C   C57       1.0  0.0702570920651553  0.4221425663317859  0.5393936336287056  1.0000
  C   C58       1.0  0.9954722862546103  0.6205922069282153  0.4380849722563768  1.0000
  C   C59       1.0  0.004801117591632904  0.37986024577909216  0.561298037229534  1.0000
  C   C60       1.0  0.4897143982172165  0.419932608749285  0.1778480071472472  1.0000
  C   C61       1.0  0.5225839813826381  0.573979547639318  0.8230984789975154  1.0000
  C   C62       1.0  0.40676272508544997  0.5125666647085083  0.2657660120159449  1.0000
  C   C63       1.0  0.5864705716926579  0.47349346946353416  0.7325483264178416  1.0000
  C   C64       1.0  0.4102185401455569  0.5127617055511919  0.3157930074057802  1.0000
  C   C65       1.0  0.584671083444313  0.4751613168711017  0.6827425173378217  1.0000
  C   C66       1.0  0.5762239322393299  0.48989744163685595  0.3367818421779348  1.0000
  C   C67       1.0  0.47629145926535427  0.6536374406204571  0.09650054797900513  1.0000
  C   C68       1.0  0.4260675176383868  0.5167028054604187  0.6620342636504832  1.0000
  C   C69       1.0  0.5731831596012497  0.4896952607325176  0.28682570034672494  1.0000
  C   C70       1.0  0.4274889475851466  0.5151108276824914  0.711744954663125  1.0000
  C   C71       1.0  0.4883241832416229  0.5008867421182899  0.2515761272955288  1.0000
  C   C72       1.0  0.507748741349971  0.49352553517105235  0.7466786300211155  1.0000
  C   C73       1.0  0.4648220886489297  0.7388883469367542  0.1169414358662095  1.0000
  C   C74       1.0  0.4585056001652956  0.2457665492151975  0.8692857666070497  1.0000
  C   C75       1.0  0.47496559103023356  0.33374980550252076  0.8943658516520261  1.0000
  C   C76       1.0  0.49001717860227945  0.42148981303604666  0.1253503544157653  1.0000
  N   N1        1.0  0.48547308499500724  0.4995013225159822  0.1998111587001574  1.0000
  N   N2        1.0  0.5086345405691829  0.49320347841980816  0.7981876827316654  1.0000
  N   N3        1.0  0.2739612333157381  0.5549240334528988  0.4699718916075782  1.0000
  N   N4        1.0  0.7257079030251955  0.4444996696451113  0.5284305706843853  1.0000
  O   O1        1.0  0.638755183154714  0.6145630945450621  0.5218279400021403  1.0000
  O   O2        1.0  0.47985992971595687  0.3456829573215289  0.792401497126676  1.0000
  O   O3        1.0  0.5378894272183031  0.641675148609508  0.8023796294330765  1.0000
  O   O4        1.0  0.49310195920568106  0.3538632263368413  0.20154780337961134  1.0000
  O   O5        1.0  0.3601983237905129  0.385293457261639  0.48703225215822243  1.0000
  O   O6        1.0  0.4843509894673017  0.6391453146536036  0.4968207137733672  1.0000
  O   O7        1.0  0.5138767193023809  0.36140458237812834  0.5001627329506846  1.0000
  O   O8        1.0  0.5778248545188872  0.49308498926396993  0.4365690992985165  1.0000
  O   O9        1.0  0.4267748641137031  0.5161806364923152  0.5629255955617936  1.0000
  O   O10       1.0  0.42026985638567277  0.5081703353399334  0.4161209941224229  1.0000
  O   O11       1.0  0.5773983622223607  0.48174557288740516  0.5827391426411666  1.0000
  O   O12       1.0  0.47789655723424557  0.6442357309261484  0.19928814405653844  1.0000
