data_image0
_chemical_formula_structural       Ag4H36C24N16O16
_chemical_formula_sum              "Ag4 H36 C24 N16 O16"
_cell_length_a       8.757673094851258
_cell_length_b       9.18449161537375
_cell_length_c       12.175094663000147
_cell_angle_alpha    90.00000632836957
_cell_angle_beta     90.00001422203913
_cell_angle_gamma    106.29526331436963

_space_group_name_H-M_alt    "P 1"
_space_group_IT_number       1

loop_
  _space_group_symop_operation_xyz
  'x, y, z'

loop_
  _atom_site_type_symbol
  _atom_site_label
  _atom_site_symmetry_multiplicity
  _atom_site_fract_x
  _atom_site_fract_y
  _atom_site_fract_z
  _atom_site_occupancy
  Ag  Ag1       1.0  0.8306831832329421  0.07657485054259892  0.20160836625754544  1.0000
  Ag  Ag2       1.0  0.6693164221249789  0.9234246888807791  0.7016094273928317  1.0000
  Ag  Ag3       1.0  0.1693165653153912  0.9234246607389665  0.7983905603216  1.0000
  Ag  Ag4       1.0  0.3306825257981956  0.076575962451841  0.2983911418839895  1.0000
  H   H1        1.0  0.5869703744910667  0.8706652381341656  0.9251551129901044  1.0000
  H   H2        1.0  0.9130293248844056  0.12933435938155924  0.425154070967281  1.0000
  H   H3        1.0  0.4130285734321077  0.12933541319845435  0.07484545628671668  1.0000
  H   H4        1.0  0.08697042366409852  0.8706651519001201  0.574845676960713  1.0000
  H   H5        1.0  0.6548508950608393  0.9099996232453904  0.061790170282087296  1.0000
  H   H6        1.0  0.8451509318184519  0.08999986843489442  0.5617895512024802  1.0000
  H   H7        1.0  0.3451503331879806  0.0900010166786132  0.9382103989949399  1.0000
  H   H8        1.0  0.15485029643019743  0.9100007714890098  0.43821019672569855  1.0000
  H   H9        1.0  0.22456130755328021  0.416224322446837  0.0344720485684888  1.0000
  H   H10       1.0  0.2754376725629156  0.583776232159984  0.534472279236212  1.0000
  H   H11       1.0  0.7754384409952307  0.5837751888348351  0.9655276993595052  1.0000
  H   H12       1.0  0.7245620759859291  0.4162232791219013  0.46552911138947917  1.0000
  H   H13       1.0  0.1686179621670547  0.2635482248607063  0.1301271456587969  1.0000
  H   H14       1.0  0.3313821983420269  0.7364523488994977  0.6301273989838663  1.0000
  H   H15       1.0  0.8313817863812788  0.7364512864208594  0.8698717809203417  1.0000
  H   H16       1.0  0.6686178897437925  0.26354829672871466  0.369872348944206  1.0000
  H   H17       1.0  0.05527093976100872  0.39558187217348734  0.12248859667191428  1.0000
  H   H18       1.0  0.44473035769849645  0.6044186938975002  0.6224896807098546  1.0000
  H   H19       1.0  0.9447302884874631  0.6044187677503103  0.8775103299074088  1.0000
  H   H20       1.0  0.5552712100878097  0.3955830803731504  0.37751170991609934  1.0000
  H   H21       1.0  0.14514332178475803  0.36572011875606597  0.8527235828465436  1.0000
  H   H22       1.0  0.3548565928054117  0.6342793785033153  0.3527242149107295  1.0000
  H   H23       1.0  0.8548564267637532  0.6342793925256062  0.1472761650814576  1.0000
  H   H24       1.0  0.6451431557432697  0.3657201327784634  0.6472763543661131  1.0000
  H   H25       1.0  0.05778050724111949  0.32734872034533424  0.5637755120561181  1.0000
  H   H26       1.0  0.4422184851992768  0.6726518418764587  0.0637753415909259  1.0000
  H   H27       1.0  0.9422184406818844  0.672651930987179  0.43622423587185466  1.0000
  H   H28       1.0  0.5577827430495432  0.327348798047545  0.9362252276861013  1.0000
  H   H29       1.0  0.1926459305155035  0.3053799616313526  0.6701114520850239  1.0000
  H   H30       1.0  0.30735276710971954  0.6946194938771981  0.17011125929040113  1.0000
  H   H31       1.0  0.8073526778701846  0.6946195553546276  0.32988829584287055  1.0000
  H   H32       1.0  0.6926469814387846  0.3053800174044739  0.8298884886376001  1.0000
  H   H33       1.0  0.07165447796604948  0.43337118328802404  0.6881474459483171  1.0000
  H   H34       1.0  0.42834570694478197  0.5666294055497334  0.1881472642212358  1.0000
  H   H35       1.0  0.9283444699567768  0.5666294680443825  0.3118514806307999  1.0000
  H   H36       1.0  0.5716555213038603  0.4333712343741639  0.8118524837069357  1.0000
  C   C1        1.0  0.7959394896616133  0.04049756861819989  0.9462284447771268  1.0000
  C   C2        1.0  0.7040598790397892  0.9595009000274856  0.4462290767663788  1.0000
  C   C3        1.0  0.2040587791867524  0.9595008140212402  0.0537713031506897  1.0000
  C   C4        1.0  0.29593986950888507  0.040498611254292896  0.5537714925104709  1.0000
  C   C5        1.0  0.017881290057616222  0.23987069307933245  0.9894838992091266  1.0000
  C   C6        1.0  0.48211868205007136  0.7601288397194567  0.4894829217817218  1.0000
  C   C7        1.0  0.9821184584908947  0.7601288182023468  0.010515848718874598  1.0000
  C   C8        1.0  0.5178814060357482  0.23987180590875573  0.5105168261463504  1.0000
  C   C9        1.0  0.12352332752483619  0.3348096030320066  0.0736224504363392  1.0000
  C   C10       1.0  0.37647680921983107  0.6651909560444482  0.5736227059359109  1.0000
  C   C11       1.0  0.8764767605609836  0.665191042596206  0.926377297491733  1.0000
  C   C12       1.0  0.623522939328673  0.3348085552372311  0.4263770419920832  1.0000
  C   C13       1.0  0.045789520867970196  0.27153691110239464  0.8782305585893865  1.0000
  C   C14       1.0  0.4542104044496043  0.7284625927853271  0.3782303948920429  1.0000
  C   C15       1.0  0.9542102276805335  0.7284626001792773  0.12176918933860749  1.0000
  C   C16       1.0  0.5457893440989068  0.2715369184963449  0.6217693530359512  1.0000
  C   C17       1.0  0.9393475457238196  0.18093483042667202  0.8039043133540815  1.0000
  C   C18       1.0  0.5606524421943533  0.819065869926611  0.3039049080386107  1.0000
  C   C19       1.0  0.060652542361829355  0.8190658152014266  0.1960946132251422  1.0000
  C   C20       1.0  0.4393476458916368  0.18093477570170793  0.696095661238317  1.0000
  C   C21       1.0  0.07755889639314968  0.325769512445433  0.6523941265824931  1.0000
  C   C22       1.0  0.4224401333179486  0.6742310728054974  0.1523939527066531  1.0000
  C   C23       1.0  0.9224400515298539  0.6742311388870804  0.3476056213454796  1.0000
  C   C24       1.0  0.577560755393378  0.32576843277187356  0.8476057952214475  1.0000
  N   N1        1.0  0.8946794527641798  0.12437525517884046  0.0241124234358452  1.0000
  N   N2        1.0  0.6053212181061766  0.8756242324146299  0.524112647806092  1.0000
  N   N3        1.0  0.10532063532163963  0.875625390449372  0.9758873244922271  1.0000
  N   N4        1.0  0.394678530442505  0.12437527886714861  0.47588792147075054  1.0000
  N   N5        1.0  0.6744094368640534  0.9260462300870247  0.9796319069353885  1.0000
  N   N6        1.0  0.8255925657489342  0.0739533701770654  0.47963248736905234  1.0000
  N   N7        1.0  0.325592931547412  0.07395440413257151  0.0203678409928827  1.0000
  N   N8        1.0  0.17440832296256298  0.926046135400405  0.5203680819078897  1.0000
  N   N9        1.0  0.8145920153626066  0.06621745489825773  0.8360732464950473  1.0000
  N   N10       1.0  0.6854079860848259  0.933783253814596  0.33607305166638207  1.0000
  N   N11       1.0  0.1854080727232131  0.9337831907299547  0.163926501433032  1.0000
  N   N12       1.0  0.3145924415383163  0.06621852616014931  0.6639266962617681  1.0000
  N   N13       1.0  0.15973029733658714  0.32497665182315677  0.3416203695347165  1.0000
  N   N14       1.0  0.3402707527465978  0.6750228368464948  0.8416206193654149  1.0000
  N   N15       1.0  0.8402705913749172  0.6750228537543137  0.6583801997422256  1.0000
  N   N16       1.0  0.65972933533957  0.3249778087819237  0.1583807712603544  1.0000
  O   O1        1.0  0.949737302362081  0.20102719010060352  0.6945310382044951  1.0000
  O   O2        1.0  0.5502623000190354  0.798972347483435  0.1945308080162675  1.0000
  O   O3        1.0  0.05026130602343671  0.7989723268852701  0.30546788837455097  1.0000
  O   O4        1.0  0.4497377880667912  0.20102829814477735  0.8054689399118047  1.0000
  O   O5        1.0  0.0756649827878277  0.1846912130695273  0.3362815886763997  1.0000
  O   O6        1.0  0.424334924887006  0.8153082799169555  0.8362810438248828  1.0000
  O   O7        1.0  0.9243339651356876  0.8153094382633058  0.6637206232981184  1.0000
  O   O8        1.0  0.5756663033618068  0.1846923600070555  0.1637195254521373  1.0000
  O   O9        1.0  0.29930022316275995  0.3592537951351106  0.30300220322001076  1.0000
  O   O10       1.0  0.20070115021593443  0.640746817845461  0.8030024252223454  1.0000
  O   O11       1.0  0.700699525385751  0.6407457161465615  0.6969975447079904  1.0000
  O   O12       1.0  0.7993000780328856  0.35925382207855  0.1969981440546746  1.0000
  O   O13       1.0  0.10262780860838207  0.4223010590922343  0.3844709593042808  1.0000
  O   O14       1.0  0.39737245887115336  0.5776995807637633  0.8844712113017081  1.0000
  O   O15       1.0  0.897373759177583  0.5777007151782101  0.6155287886239691  1.0000
  O   O16       1.0  0.6026276292148438  0.42230106486455554  0.1155293579752126  1.0000
