data_image0
_chemical_formula_structural       Zn2H22C34N12O8
_chemical_formula_sum              "Zn2 H22 C34 N12 O8"
_cell_length_a       9.66926435271312
_cell_length_b       10.64955082940825
_cell_length_c       11.400486776474763
_cell_angle_alpha    68.31955571540072
_cell_angle_beta     64.48826757528059
_cell_angle_gamma    65.56112877797479

_space_group_name_H-M_alt    "P 1"
_space_group_IT_number       1

loop_
  _space_group_symop_operation_xyz
  'x, y, z'

loop_
  _atom_site_type_symbol
  _atom_site_label
  _atom_site_symmetry_multiplicity
  _atom_site_fract_x
  _atom_site_fract_y
  _atom_site_fract_z
  _atom_site_occupancy
  Zn  Zn1       1.0  0.3644484307548056  0.5077280465685661  0.25753657681138975  1.0000
  Zn  Zn2       1.0  0.6355450381547244  0.49227266670435904  0.7424657414963817  1.0000
  H   H1        1.0  0.927926410911148  0.38373506515905115  0.24169951433909642  1.0000
  H   H2        1.0  0.07206887450390552  0.616260335124018  0.7583031403458731  1.0000
  H   H3        1.0  0.957912357802755  0.10485866861739619  0.3295155379900264  1.0000
  H   H4        1.0  0.04208372833507923  0.8951377679974257  0.6704847068165519  1.0000
  H   H5        1.0  0.1404176812879143  0.11548949655537648  0.3180010919355141  1.0000
  H   H6        1.0  0.8595792055726931  0.8845079763911985  0.6819967429926875  1.0000
  H   H7        1.0  0.35581337818082664  0.110139881367914  0.12560674098583746  1.0000
  H   H8        1.0  0.6441842704330868  0.8898619433522085  0.8743989335859438  1.0000
  H   H9        1.0  0.9124596398960565  0.12084177864924325  0.14525077052081753  1.0000
  H   H10       1.0  0.08754599160293715  0.8791535623445129  0.8547455225445474  1.0000
  H   H11       1.0  0.11799213686816772  0.36674447195597537  0.4594650952688894  1.0000
  H   H12       1.0  0.8820168893442288  0.6332476603376164  0.5405293433109931  1.0000
  H   H13       1.0  0.9787304330065961  0.1994876323599328  0.9003272728576308  1.0000
  H   H14       1.0  0.021278308432783916  0.800511980465572  0.09966989627054094  1.0000
  H   H15       1.0  0.5579580048431154  0.3618278303274706  0.44199999925132266  1.0000
  H   H16       1.0  0.4420400752357594  0.6381728390245484  0.5579980311732413  1.0000
  H   H17       1.0  0.44190430046835166  0.19293015162767088  0.8796101341091144  1.0000
  H   H18       1.0  0.5581021700028687  0.8070726984505043  0.12039110365135046  1.0000
  H   H19       1.0  0.4997488746050962  0.2632962280327861  0.6838008468788883  1.0000
  H   H20       1.0  0.500253377432273  0.7367055633084901  0.3162014161077096  1.0000
  H   H21       1.0  0.0384926492741045  0.26871735499009464  0.7034444906789473  1.0000
  H   H22       1.0  0.961515222209478  0.7312747909192439  0.29655123894624313  1.0000
  C   C1        1.0  0.14775420661224825  0.9052020310391239  0.330859456058974  1.0000
  C   C2        1.0  0.8522486390738211  0.0948049090137317  0.6691284965854364  1.0000
  C   C3        1.0  0.9599767219031676  0.4338991990534852  0.13503408921992138  1.0000
  C   C4        1.0  0.040019695003017865  0.5660962192400234  0.8649699033138204  1.0000
  C   C5        1.0  0.10535481908135583  0.4655993747515693  0.06929606180219858  1.0000
  C   C6        1.0  0.8946398045569809  0.534401324905609  0.930704965460265  1.0000
  C   C7        1.0  0.8540092451135236  0.4673939702728021  0.06740590506597519  1.0000
  C   C8        1.0  0.14598996645648296  0.5326067170896566  0.9325934632073681  1.0000
  C   C9        1.0  0.20688814142214804  0.43269472566790773  0.15208282772849901  1.0000
  C   C10       1.0  0.793101709968106  0.5673165925006103  0.8479170652288132  1.0000
  C   C11       1.0  0.0891819884905303  0.0629732650376411  0.2871822705672571  1.0000
  C   C12       1.0  0.9108164533402742  0.9370263438248189  0.7128160023923513  1.0000
  C   C13       1.0  0.2818871473752651  0.1259111448695052  0.06861207875061845  1.0000
  C   C14       1.0  0.7181143734123621  0.874092777992956  0.9313905754639223  1.0000
  C   C15       1.0  0.03118371481654951  0.13008478983240926  0.08003899132694409  1.0000
  C   C16       1.0  0.9688208236807655  0.8699137431720844  0.919957450431312  1.0000
  C   C17       1.0  0.2626267018771813  0.2557419096672645  0.7180421380038452  1.0000
  C   C18       1.0  0.7373800456211587  0.7442534704210572  0.281957245506355  1.0000
  C   C19       1.0  0.22055183608794957  0.1993465169785154  0.8644091051377669  1.0000
  C   C20       1.0  0.7794534101814325  0.8006531788624612  0.13559544231844708  1.0000
  C   C21       1.0  0.19796184658610377  0.3430990065867547  0.5141661461823475  1.0000
  C   C22       1.0  0.8020444389437175  0.6568910455749447  0.4858326506035553  1.0000
  C   C23       1.0  0.0707624699360281  0.1760176209729494  0.9427277685096908  1.0000
  C   C24       1.0  0.92924399302931  0.823981976915803  0.057268477516991906  1.0000
  C   C25       1.0  0.44382058235477473  0.3402949206179357  0.5037805915212772  1.0000
  C   C26       1.0  0.5561823392052078  0.6597015608071644  0.4962224225898026  1.0000
  C   C27       1.0  0.32667580803937574  0.1720053071793473  0.9314262738740949  1.0000
  C   C28       1.0  0.6733340339075724  0.8279943658248499  0.06857573829497458  1.0000
  C   C29       1.0  0.41035222984322683  0.2828343266369515  0.6402832834859636  1.0000
  C   C30       1.0  0.5896526394224537  0.7171631880462285  0.3597169059994485  1.0000
  C   C31       1.0  0.15568076772620998  0.2861797383366848  0.6510783099139061  1.0000
  C   C32       1.0  0.8443236858062948  0.7138156478989969  0.34892190309084736  1.0000
  C   C33       1.0  0.6982268856122573  0.43360366600293054  0.1474422973673911  1.0000
  C   C34       1.0  0.3017692467609267  0.5663959700910082  0.8525585576828334  1.0000
  N   N1        1.0  0.2038119888815758  0.8180662222580821  0.24954340950394985  1.0000
  N   N2        1.0  0.7961864374574361  0.18193340768849706  0.7504566160517142  1.0000
  N   N3        1.0  0.2401410494935661  0.6883920214082265  0.32988502792337476  1.0000
  N   N4        1.0  0.7598452529854427  0.31161292810722335  0.6701166413845527  1.0000
  N   N5        1.0  0.20751548787562518  0.6967475123161505  0.453216955236279  1.0000
  N   N6        1.0  0.7924723850653734  0.30325955203105076  0.5467833995069994  1.0000
  N   N7        1.0  0.14922553544966635  0.8338459714279195  0.4560141361585508  1.0000
  N   N8        1.0  0.8507738613017467  0.1661642511195254  0.5439818050575411  1.0000
  N   N9        1.0  0.13576859648690492  0.1065295774927222  0.1404870123373527  1.0000
  N   N10       1.0  0.8642303073124181  0.8934753592963532  0.8595118473465533  1.0000
  N   N11       1.0  0.33876710267885096  0.3715830162764179  0.44151008057617974  1.0000
  N   N12       1.0  0.6612383743823006  0.6284060100955883  0.5584920023861315  1.0000
  O   O1        1.0  0.2492145202601463  0.5386473586948384  0.13991765621833013  1.0000
  O   O2        1.0  0.7507657935148375  0.4613650445526927  0.8600853121821782  1.0000
  O   O3        1.0  0.23666341308260297  0.3137094695019512  0.2301418855623751  1.0000
  O   O4        1.0  0.7633321964599205  0.6863018016719807  0.769853304764453  1.0000
  O   O5        1.0  0.5712349713656479  0.5433240079904635  0.1478804835434034  1.0000
  O   O6        1.0  0.4287565963135337  0.4566756087720237  0.8521194016018611  1.0000
  O   O7        1.0  0.6985915892299275  0.31005063048847603  0.21254772542491912  1.0000
  O   O8        1.0  0.30141139405719036  0.6899490293316219  0.7874541463337436  1.0000
