data_image0
_chemical_formula_structural       Cd3H26C22O22
_chemical_formula_sum              "Cd3 H26 C22 O22"
_cell_length_a       6.66182004288403
_cell_length_b       12.832254671117877
_cell_length_c       11.732274449794339
_cell_angle_alpha    124.29107461070993
_cell_angle_beta     91.1978571152632
_cell_angle_gamma    98.86211022436387

_space_group_name_H-M_alt    "P 1"
_space_group_IT_number       1

loop_
  _space_group_symop_operation_xyz
  'x, y, z'

loop_
  _atom_site_type_symbol
  _atom_site_label
  _atom_site_symmetry_multiplicity
  _atom_site_fract_x
  _atom_site_fract_y
  _atom_site_fract_z
  _atom_site_occupancy
  Cd  Cd1       1.0  7.410470686903382e-06  4.42862022250084e-06  0.49999920438888523  1.0000
  Cd  Cd2       1.0  0.041662662841900955  0.2743854564976759  0.8953275220524193  1.0000
  Cd  Cd3       1.0  0.9583669836530005  0.7255858645745263  0.10466652468592504  1.0000
  H   H1        1.0  0.49215828229782227  0.25656138810099083  0.8912712113694213  1.0000
  H   H2        1.0  0.5078441882770761  0.7434302532648758  0.10872696188864954  1.0000
  H   H3        1.0  0.3450241887102122  0.22148897017552827  0.9780613487583454  1.0000
  H   H4        1.0  0.6549456211503326  0.7785036489587469  0.021928572781675454  1.0000
  H   H5        1.0  0.7522424983917804  0.4169038047433631  0.8853982218758463  1.0000
  H   H6        1.0  0.2477419491157349  0.5830941476772864  0.11461124463083656  1.0000
  H   H7        1.0  0.7464518267194651  0.4298593695257011  0.02401919358087673  1.0000
  H   H8        1.0  0.2535347766222174  0.5701573693894916  0.9759960485340644  1.0000
  H   H9        1.0  0.3122232470700511  0.9243301323062668  0.6000003988921492  1.0000
  H   H10       1.0  0.6877744491526486  0.07566850767315  0.4000053709781852  1.0000
  H   H11       1.0  0.27531094584545457  0.058000558971329504  0.7293441916753309  1.0000
  H   H12       1.0  0.7246941451086572  0.9419923656544142  0.27065832362195863  1.0000
  H   H13       1.0  0.3835822275760279  0.660149649246847  0.34314127059298744  1.0000
  H   H14       1.0  0.6163951237372202  0.33981615240026747  0.6568110245316492  1.0000
  H   H15       1.0  0.3859672797549721  0.7209237360891834  0.7450236024285319  1.0000
  H   H16       1.0  0.6140186785066818  0.2790565032761592  0.25499302274096186  1.0000
  H   H17       1.0  0.1602871204740808  0.3422457674882722  0.3694894387923854  1.0000
  H   H18       1.0  0.8397517476774254  0.6577812087991576  0.6305355785787229  1.0000
  H   H19       1.0  0.6853680066990506  0.8515467731138598  0.7594015649215394  1.0000
  H   H20       1.0  0.314634082831681  0.14845281000300767  0.24059300893859614  1.0000
  H   H21       1.0  0.497070106557544  0.9498929003860823  0.8191853058485992  1.0000
  H   H22       1.0  0.5029329004041543  0.05009742518533501  0.18080791119427184  1.0000
  H   H23       1.0  0.2553784457361346  0.2994798634250273  0.5220331810593493  1.0000
  H   H24       1.0  0.7446198219614504  0.7005273936888871  0.4779659791527777  1.0000
  H   H25       1.0  0.9996393759768551  0.3268888668624185  0.536149748536765  1.0000
  H   H26       1.0  0.00036005308979977866  0.673110535318699  0.46384278400753237  1.0000
  C   C1        1.0  0.2653194694991612  0.49207058637808393  0.34168447193955853  1.0000
  C   C2        1.0  0.7347197260913274  0.5079482310383481  0.6583302416139888  1.0000
  C   C3        1.0  0.3465595300823452  0.6220666297381001  0.40452326261443994  1.0000
  C   C4        1.0  0.6534823174486704  0.37794001391688425  0.5954766410356811  1.0000
  C   C5        1.0  0.3928170448585888  0.7037040783222821  0.5498326127452984  1.0000
  C   C6        1.0  0.607202036814151  0.2963024179797102  0.45016702882306003  1.0000
  C   C7        1.0  0.34922672185660286  0.6592231400411279  0.6323362305559216  1.0000
  C   C8        1.0  0.6507686849526453  0.34078944775769326  0.36767239195724954  1.0000
  C   C9        1.0  0.26368414856116124  0.5283846070499224  0.567063737516584  1.0000
  C   C10       1.0  0.7363177406431022  0.4716358610804436  0.43295130497036655  1.0000
  C   C11       1.0  0.2233415748714265  0.44422133365178945  0.4223547321418551  1.0000
  C   C12       1.0  0.7766842850740192  0.555798341132082  0.5776601775253385  1.0000
  C   C13       1.0  0.23077543330263955  0.39950159576231686  0.1865502194043175  1.0000
  C   C14       1.0  0.7692424134936859  0.6005002464499611  0.8134597882381415  1.0000
  C   C15       1.0  0.6000679451553239  0.9078000012071925  0.7391173824245884  1.0000
  C   C16       1.0  0.3999368449243264  0.09219866052129792  0.2608769320280047  1.0000
  C   C17       1.0  0.7498255468358296  0.015719159359783002  0.747270309714203  1.0000
  C   C18       1.0  0.2501380630848614  0.9842849315419998  0.2527148010481498  1.0000
  C   C19       1.0  0.15395550752750614  0.3593739339431679  0.593982713707483  1.0000
  C   C20       1.0  0.8460399776880579  0.6406247542322562  0.4060125581091257  1.0000
  C   C21       1.0  0.1433233667185405  0.336712948643779  0.7066666758783244  1.0000
  C   C22       1.0  0.8566676331645552  0.6632820031806402  0.29332797369624347  1.0000
  O   O1        1.0  0.3653312513083334  0.19905279360427394  0.8824911351701844  1.0000
  O   O2        1.0  0.634657213459818  0.8009430084517534  0.11750288864797653  1.0000
  O   O3        1.0  0.7372984505776258  0.3625866216033913  0.9218535056328605  1.0000
  O   O4        1.0  0.2627196520115334  0.6374216210833552  0.07816765085803473  1.0000
  O   O5        1.0  0.2080226931677488  0.977991952642036  0.6385684825136978  1.0000
  O   O6        1.0  0.7919720133885022  0.022002970297485498  0.36143680060856553  1.0000
  O   O7        1.0  0.17850658177715675  0.44207734988518155  0.1152090394508037  1.0000
  O   O8        1.0  0.8214988417105148  0.5579117540093251  0.8847914897584845  1.0000
  O   O9        1.0  0.2522283385400925  0.28526875331539253  0.1326408685750238  1.0000
  O   O10       1.0  0.7477792942891242  0.7147239808008052  0.8673703744481076  1.0000
  O   O11       1.0  0.4867953667067013  0.8283180596152491  0.6019066360360129  1.0000
  O   O12       1.0  0.5132169401223123  0.1716832747623158  0.39808627092320154  1.0000
  O   O13       1.0  0.7569162895894407  0.013723526429394905  0.6387971656226981  1.0000
  O   O14       1.0  0.24304163011587585  0.9862777688208695  0.361187717799119  1.0000
  O   O15       1.0  0.8522408504214171  0.09995818727455942  0.8667826222011642  1.0000
  O   O16       1.0  0.1477151959048939  0.9000436735802212  0.13319809480848496  1.0000
  O   O17       1.0  0.22937161751269736  0.4923060244552316  0.6555206078655402  1.0000
  O   O18       1.0  0.7706179720664535  0.5077064149424119  0.34448658750778804  1.0000
  O   O19       1.0  0.050528275909627454  0.22431399510391967  0.6695474900792677  1.0000
  O   O20       1.0  0.9494611080528872  0.7756842443817932  0.3304539261714512  1.0000
  O   O21       1.0  0.2181507028428982  0.4225423570197222  0.8308837692616964  1.0000
  O   O22       1.0  0.7818297889587881  0.5774498835334184  0.16911201681828208  1.0000
