data_image0
_chemical_formula_structural       Cu10H78C72N18O34
_chemical_formula_sum              "Cu10 H78 C72 N18 O34"
_cell_length_a       15.83547728849464
_cell_length_b       17.54542300491008
_cell_length_c       17.547119533924096
_cell_angle_alpha    77.44465303495976
_cell_angle_beta     80.52991176815426
_cell_angle_gamma    80.5298772101316

_space_group_name_H-M_alt    "P 1"
_space_group_IT_number       1

loop_
  _space_group_symop_operation_xyz
  'x, y, z'

loop_
  _atom_site_type_symbol
  _atom_site_label
  _atom_site_symmetry_multiplicity
  _atom_site_fract_x
  _atom_site_fract_y
  _atom_site_fract_z
  _atom_site_occupancy
  Cu  Cu1       1.0  0.8615038160121172  0.7592398800726842  0.7586441646412256  1.0000
  Cu  Cu2       1.0  0.13859075327342646  0.2412841041656152  0.24072017259548772  1.0000
  Cu  Cu3       1.0  0.7540309027101627  0.6134929871542598  0.7662427512012402  1.0000
  Cu  Cu4       1.0  0.24600362589384867  0.23377935677139314  0.38655362152439215  1.0000
  Cu  Cu5       1.0  0.24610104112676368  0.38492871268694273  0.23392242500251834  1.0000
  Cu  Cu6       1.0  0.7539517270576538  0.7661038721438871  0.615039219274351  1.0000
  Cu  Cu7       1.0  0.5410848146237794  0.535467484079618  0.5378276924094294  1.0000
  Cu  Cu8       1.0  0.45880821829180707  0.4620928284229891  0.4644937229218158  1.0000
  Cu  Cu9       1.0  0.9990111671070708  0.5007652229353  0.0006347860075166472  1.0000
  Cu  Cu10      1.0  0.0010326120318637892  0.9994227747186887  0.49924072866040353  1.0000
  H   H1        1.0  0.8692871740326352  0.6591318395104298  0.6615675462937318  1.0000
  H   H2        1.0  0.1308930270081419  0.3384865825317079  0.3409032966118559  1.0000
  H   H3        1.0  0.7476780670353308  0.8255448283071872  0.8291115652971541  1.0000
  H   H4        1.0  0.2521199647397411  0.17055565293517116  0.1742493534357976  1.0000
  H   H5        1.0  0.8077357906054133  0.8926243138164979  0.8146776397533418  1.0000
  H   H6        1.0  0.1919873175391942  0.18482555399818779  0.10729096012881463  1.0000
  H   H7        1.0  0.9217061278942892  0.48048886547941555  0.7373953832112294  1.0000
  H   H8        1.0  0.07831307481522738  0.2626398665578834  0.5195883292936543  1.0000
  H   H9        1.0  0.08009591223805052  0.5200543972142172  0.2644136013861242  1.0000
  H   H10       1.0  0.919775344147588  0.7357064238120332  0.4797446619067927  1.0000
  H   H11       1.0  0.8691762708534014  0.47423498142254783  0.6724201504789987  1.0000
  H   H12       1.0  0.1308099625620969  0.32765522860580637  0.5258160215463549  1.0000
  H   H13       1.0  0.13731101655420022  0.5253699296704541  0.3261418343192162  1.0000
  H   H14       1.0  0.8624579650550855  0.6739640682026575  0.4746694156926596  1.0000
  H   H15       1.0  0.9771564269808974  0.7548136395680987  0.879975083925075  1.0000
  H   H16       1.0  0.0232485982406558  0.11977632167206312  0.24513878501933567  1.0000
  H   H17       1.0  0.01314174060497921  0.24868690416992933  0.1256695435170982  1.0000
  H   H18       1.0  0.9870107898336471  0.8742681748763277  0.751257749741072  1.0000
  H   H19       1.0  0.05895289682252523  0.6709499012411442  0.8938721189912545  1.0000
  H   H20       1.0  0.941252604646067  0.10620040113234099  0.3288507693010701  1.0000
  H   H21       1.0  0.9355808340049449  0.334780581011465  0.10744318031454012  1.0000
  H   H22       1.0  0.06450669825319011  0.8926747174303602  0.665153376340129  1.0000
  H   H23       1.0  0.9816118954264611  0.6919853160172382  0.974781486340895  1.0000
  H   H24       1.0  0.0185016309334927  0.0251085928402546  0.3081775173132044  1.0000
  H   H25       1.0  0.012745285321194894  0.30861923842853417  0.028666892372697785  1.0000
  H   H26       1.0  0.9872515842523483  0.9713353612765021  0.6914624482294516  1.0000
  H   H27       1.0  0.7961725289627635  0.45754910607672633  0.8771018531384202  1.0000
  H   H28       1.0  0.2036923519637313  0.12313838089769297  0.5425459355762074  1.0000
  H   H29       1.0  0.20525587244821958  0.5410873217587308  0.1227768633524065  1.0000
  H   H30       1.0  0.7946460351097997  0.8774643521988568  0.4589656824107422  1.0000
  H   H31       1.0  0.8102913954701593  0.45330723293152897  0.9766411279185051  1.0000
  H   H32       1.0  0.18980923501626273  0.023520025682557805  0.5467723126542625  1.0000
  H   H33       1.0  0.18735732667840205  0.5473212083043606  0.023802138129198614  1.0000
  H   H34       1.0  0.812667796896285  0.9764172917554321  0.4527372294022174  1.0000
  H   H35       1.0  0.8997471037518067  0.42058018848139517  0.9108150342073601  1.0000
  H   H36       1.0  0.1002004593823926  0.08924275675501292  0.5794350684803221  1.0000
  H   H37       1.0  0.10051177739464379  0.5799138306330107  0.09205922590438578  1.0000
  H   H38       1.0  0.8994124434865465  0.908092004234476  0.4200994831720807  1.0000
  H   H39       1.0  0.5635043899607763  0.4979831273726847  0.7604193768846274  1.0000
  H   H40       1.0  0.4366107375985919  0.23961032834667864  0.5020207742329248  1.0000
  H   H41       1.0  0.4424084174656429  0.4977913869100663  0.24339120657338498  1.0000
  H   H42       1.0  0.5577106910297546  0.7566701362936926  0.5022194522527174  1.0000
  H   H43       1.0  0.6759515231883242  0.467332738960991  0.7554877832737857  1.0000
  H   H44       1.0  0.3241528403499103  0.24447738413364567  0.5326539439542232  1.0000
  H   H45       1.0  0.3305052137616541  0.5274032856971758  0.24144673015940304  1.0000
  H   H46       1.0  0.6696197195933349  0.7585114979218588  0.47258108363480755  1.0000
  H   H47       1.0  0.6164153677771153  0.4492883141979149  0.6835838480302173  1.0000
  H   H48       1.0  0.38361582467641847  0.3164145059215003  0.5507451551984986  1.0000
  H   H49       1.0  0.3835161112867666  0.5488688476388008  0.31629072238631295  1.0000
  H   H50       1.0  0.6165141999497904  0.6836827936479111  0.4512038415117844  1.0000
  H   H51       1.0  0.4750325174889197  0.6445665838586481  0.9793300670141679  1.0000
  H   H52       1.0  0.5250159151614753  0.02078164448079891  0.3554118141786874  1.0000
  H   H53       1.0  0.5209667385436773  0.3521479408622525  0.013488702569460963  1.0000
  H   H54       1.0  0.47896521011272586  0.9864869938820536  0.647802054398781  1.0000
  H   H55       1.0  0.621972798995074  0.43374036811540145  0.9162799121837895  1.0000
  H   H56       1.0  0.37799880390327434  0.08374309815840773  0.5662098646898103  1.0000
  H   H57       1.0  0.3745402275883264  0.5628682137443877  0.07707146853741159  1.0000
  H   H58       1.0  0.6254928257169966  0.9229976009283264  0.4370956285249363  1.0000
  H   H59       1.0  0.2508032208120027  0.5327817577128258  0.8634392285846532  1.0000
  H   H60       1.0  0.7492460697859328  0.13658134996136786  0.4671215459690927  1.0000
  H   H61       1.0  0.7488698842764021  0.46671184141437294  0.13842284898632337  1.0000
  H   H62       1.0  0.2510748101401817  0.8614810807412709  0.5334209974817555  1.0000
  H   H63       1.0  0.14065903825881784  0.37335618735598797  0.7663206622914914  1.0000
  H   H64       1.0  0.8593089843158452  0.2337880080220671  0.6265325448686383  1.0000
  H   H65       1.0  0.8578673448854061  0.6264767316744582  0.23599631886852998  1.0000
  H   H66       1.0  0.1421094268474477  0.764059265023157  0.37353090150896406  1.0000
  H   H67       1.0  0.3745528613173903  0.5351325089794443  0.7539829849464397  1.0000
  H   H68       1.0  0.6254517079043821  0.246000745007251  0.46477580524217643  1.0000
  H   H69       1.0  0.6253345803292942  0.4632216511507751  0.24813743427827722  1.0000
  H   H70       1.0  0.3745644865103372  0.7517205240004259  0.5369078364163116  1.0000
  H   H71       1.0  0.2627478786057366  0.3790327828918905  0.6538621598224382  1.0000
  H   H72       1.0  0.7371618989208457  0.34620428433784417  0.6208469029630592  1.0000
  H   H73       1.0  0.7355123913987  0.6203756455042182  0.3483004782628782  1.0000
  H   H74       1.0  0.26443199401592205  0.6517190183812006  0.37961590262448647  1.0000
  H   H75       1.0  0.6498907499794695  0.7455052015274078  0.8201461158415957  1.0000
  H   H76       1.0  0.3499134026431462  0.1798650422945087  0.25435007019205363  1.0000
  H   H77       1.0  0.6520373780760381  0.8211221097135565  0.7469889368933451  1.0000
  H   H78       1.0  0.34772547934960585  0.2529557937979661  0.17873314982112024  1.0000
  C   C1        1.0  0.9911379308328137  0.6937282960441635  0.9109701255386184  1.0000
  C   C2        1.0  0.009096717068402402  0.08894630565464473  0.3062565484421427  1.0000
  C   C3        1.0  0.0027640059896967134  0.3091746637366768  0.09205950827320213  1.0000
  C   C4        1.0  0.9973163248922177  0.9079592273723949  0.6907983182154285  1.0000
  C   C5        1.0  0.9331456512928398  0.6440692825900528  0.892291639158927  1.0000
  C   C6        1.0  0.0669881395992959  0.10768462697753023  0.3559417331744542  1.0000
  C   C7        1.0  0.0627303179171363  0.35765184060017674  0.10968873215040283  1.0000
  C   C8        1.0  0.937348486394683  0.8903462331943643  0.6423174535647432  1.0000
  C   C9        1.0  0.867005236227186  0.5445020310777623  0.8940174500143812  1.0000
  C   C10       1.0  0.13303165433080008  0.10605474155521932  0.45554893049436646  1.0000
  C   C11       1.0  0.13148610244238063  0.4559873759108016  0.10697396351068988  1.0000
  C   C12       1.0  0.8685228895132723  0.8931356566075267  0.5440140502087092  1.0000
  C   C13       1.0  0.8415105579852451  0.4641020184472567  0.9152253370288435  1.0000
  C   C14       1.0  0.15847968178755423  0.08490797215834793  0.5359613708314086  1.0000
  C   C15       1.0  0.15805806449658627  0.5359510715791417  0.08578157488431513  1.0000
  C   C16       1.0  0.8419084426837953  0.9144153120871084  0.4640816735067191  1.0000
  C   C17       1.0  0.6397200637226914  0.5675529622847648  0.6676984485563937  1.0000
  C   C18       1.0  0.36034812602262883  0.33230360164077416  0.43247299511977394  1.0000
  C   C19       1.0  0.36186499026847224  0.4298532211840111  0.33347463575230313  1.0000
  C   C20       1.0  0.6382018321853238  0.6665358671219792  0.5701870897021025  1.0000
  C   C21       1.0  0.6236050004837779  0.49085989962170384  0.7196993949777379  1.0000
  C   C22       1.0  0.3764812480982371  0.2802989340283731  0.5091520343699258  1.0000
  C   C23       1.0  0.37991820349045463  0.505652532856516  0.2807032026747436  1.0000
  C   C24       1.0  0.6201628570944353  0.7193026893505916  0.4943758985894179  1.0000
  C   C25       1.0  0.6138007053298935  0.5944378223991791  0.884269161899752  1.0000
  C   C26       1.0  0.38619219794502146  0.1157956953805055  0.4055455117296205  1.0000
  C   C27       1.0  0.3831540791364389  0.4026471032728125  0.11042699654408493  1.0000
  C   C28       1.0  0.6167915575731655  0.8895704749937468  0.5973125044791773  1.0000
  C   C29       1.0  0.5544457247695433  0.5441484731295817  0.9422524300253273  1.0000
  C   C30       1.0  0.4455797592263835  0.057810585130894813  0.4558118513725802  1.0000
  C   C31       1.0  0.4420104715660713  0.45250104158589016  0.05110293428427331  1.0000
  C   C32       1.0  0.5579674045751376  0.9489134182864163  0.5474669853324629  1.0000
  C   C33       1.0  0.48438948787034514  0.5804883716344804  0.9874964933356413  1.0000
  C   C34       1.0  0.5156515314056804  0.012588088519983403  0.41947982331570444  1.0000
  C   C35       1.0  0.5117564301282725  0.41620788787132323  0.005528069414452814  1.0000
  C   C36       1.0  0.488202231565502  0.9944901028662373  0.583744491632274  1.0000
  C   C37       1.0  0.5675614591386305  0.46168557422034706  0.9516785789434296  1.0000
  C   C38       1.0  0.43242395483979823  0.048357902327602204  0.5382692511856818  1.0000
  C   C39       1.0  0.4287986973993866  0.5349871406185828  0.04148319230639429  1.0000
  C   C40       1.0  0.57121434856991  0.9585705577671251  0.464983493089683  1.0000
  C   C41       1.0  0.11038938314136706  0.4556401492788283  0.8824203393926808  1.0000
  C   C42       1.0  0.8896341304602727  0.11765964684692422  0.5442985333739545  1.0000
  C   C43       1.0  0.8889099766213346  0.5438283760807323  0.12010388480229048  1.0000
  C   C44       1.0  0.11108793271022675  0.879925362566738  0.45621443298536246  1.0000
  C   C45       1.0  0.187615875442944  0.45414088164667293  0.8201203079983657  1.0000
  C   C46       1.0  0.8123834858337559  0.17994464655598116  0.545766675711434  1.0000
  C   C47       1.0  0.8115322338171607  0.545403217414048  0.18215118831428612  1.0000
  C   C48       1.0  0.18843452376940212  0.8178392112350608  0.4546511305118133  1.0000
  C   C49       1.0  0.25411149317206855  0.49878729495725344  0.8177031826997593  1.0000
  C   C50       1.0  0.7459076862109554  0.18233622292308382  0.5011110025911806  1.0000
  C   C51       1.0  0.7452976345560172  0.5005339135902317  0.18434786950961524  1.0000
  C   C52       1.0  0.2546434923830673  0.8155760528458914  0.49957066528205746  1.0000
  C   C53       1.0  0.19195811558370215  0.40916676447563566  0.7622250158267719  1.0000
  C   C54       1.0  0.808012216817083  0.23785149526735694  0.5907327360543349  1.0000
  C   C55       1.0  0.80678259997336  0.5904424073166085  0.24003450907688517  1.0000
  C   C56       1.0  0.19318497452772485  0.7599795305426653  0.40958154940722846  1.0000
  C   C57       1.0  0.39399085087443814  0.4668826251331382  0.6275240918822436  1.0000
  C   C58       1.0  0.6058995169646619  0.3724605014981536  0.533021126966766  1.0000
  C   C59       1.0  0.6054777947632957  0.5310845677288326  0.3747493249993072  1.0000
  C   C60       1.0  0.39442065324242037  0.6251676950818849  0.46892502401329494  1.0000
  C   C61       1.0  0.32504169732926164  0.4580773730993998  0.6971612719268592  1.0000
  C   C62       1.0  0.6749088694048169  0.30286889326751526  0.5418162634821257  1.0000
  C   C63       1.0  0.6741751583284381  0.5406229768166995  0.3050363377919751  1.0000
  C   C64       1.0  0.3257525847908623  0.6949110773265519  0.45941875910901336  1.0000
  C   C65       1.0  0.32285876099466293  0.5001469448948583  0.7570329703604913  1.0000
  C   C66       1.0  0.677132600484988  0.242974094873567  0.49976292907575737  1.0000
  C   C67       1.0  0.6766546377270827  0.4986218983905958  0.2450721641788007  1.0000
  C   C68       1.0  0.32326870693149334  0.754835121392226  0.501478676781666  1.0000
  C   C69       1.0  0.2597066682201117  0.411785139729652  0.7005965149684883  1.0000
  C   C70       1.0  0.7402382301247313  0.29946997588237423  0.5880908678343105  1.0000
  C   C71       1.0  0.7389399780063285  0.5875115136320375  0.30158909583560245  1.0000
  C   C72       1.0  0.2610066199832984  0.698403816000095  0.41251404535934466  1.0000
  N   N1        1.0  0.8778950807164989  0.6672848505633271  0.8393388131005964  1.0000
  N   N2        1.0  0.12224610738234531  0.16063459062440438  0.3327205939671957  1.0000
  N   N3        1.0  0.1186405811319986  0.33351762437020227  0.16200056102379534  1.0000
  N   N4        1.0  0.8814348065776585  0.8380276127039894  0.6664338864767816  1.0000
  N   N5        1.0  0.8362023924162967  0.6045728557895345  0.8404343992715155  1.0000
  N   N6        1.0  0.1638607644622709  0.15960757661697045  0.3954528025717465  1.0000
  N   N7        1.0  0.1621255735883764  0.3957843935239184  0.1603718671829171  1.0000
  N   N8        1.0  0.8379038125000875  0.839702067046865  0.604190010300421  1.0000
  N   N9        1.0  0.9280745984359059  0.5677275209513439  0.926610247116777  1.0000
  N   N10       1.0  0.07199625093858229  0.07342654263738521  0.43231442552053073  1.0000
  N   N11       1.0  0.06923513197073558  0.43362405285505906  0.0750517279573941  1.0000
  N   N12       1.0  0.9308014850138944  0.9250259289276315  0.566374232022959  1.0000
  N   N13       1.0  0.6861218029568262  0.6188964379873384  0.6825565208596205  1.0000
  N   N14       1.0  0.31394536775705717  0.3174626858961176  0.38113243987403683  1.0000
  N   N15       1.0  0.31482391733607074  0.379293235364159  0.31840179176987254  1.0000
  N   N16       1.0  0.6852612782798316  0.6816248389757578  0.6207254148359598  1.0000
  N   N17       1.0  0.6094645391319133  0.5956219263562021  0.5977354833750398  1.0000
  N   N18       1.0  0.3905905862339266  0.40229531830915016  0.4043821893273576  1.0000
  O   O1        1.0  0.8230638476830093  0.6889450777724235  0.6920898613261315  1.0000
  O   O2        1.0  0.17711424968118908  0.3079115756224128  0.3111308005934604  1.0000
  O   O3        1.0  0.6768326131201262  0.5544630527433155  0.8459270409181557  1.0000
  O   O4        1.0  0.32315887382380026  0.15411958576692092  0.4455657881875013  1.0000
  O   O5        1.0  0.32478965339584676  0.4425664910900196  0.1528124414540528  1.0000
  O   O6        1.0  0.6752533662188894  0.8472729577486149  0.5574055377378856  1.0000
  O   O7        1.0  0.6003533656363659  0.6678916438877562  0.8759785199279406  1.0000
  O   O8        1.0  0.39959036611522686  0.1241369639966194  0.33210304548062913  1.0000
  O   O9        1.0  0.3932910321709499  0.329348114351177  0.11598816406829826  1.0000
  O   O10       1.0  0.6065397831766646  0.8839302804092102  0.670624695746973  1.0000
  O   O11       1.0  0.4572234321582584  0.5009821016004563  0.6327952352056131  1.0000
  O   O12       1.0  0.5426837942981066  0.36711230452603877  0.4989336971962004  1.0000
  O   O13       1.0  0.5455610683086005  0.49216875549164024  0.3711108104149121  1.0000
  O   O14       1.0  0.4543967453243951  0.628777429846714  0.5077860755697544  1.0000
  O   O15       1.0  0.38198695222693146  0.441747503841647  0.5676428078416933  1.0000
  O   O16       1.0  0.6178321967547331  0.43237489316818767  0.5581407989288465  1.0000
  O   O17       1.0  0.6142660163747777  0.560328710275833  0.4330403850825064  1.0000
  O   O18       1.0  0.3855716226014039  0.566887153203311  0.43968299248381026  1.0000
  O   O19       1.0  0.1029755972024589  0.511336973741564  0.9225753994154788  1.0000
  O   O20       1.0  0.8970830032763997  0.0774788424566637  0.48862113401847307  1.0000
  O   O21       1.0  0.8952764607091054  0.48921350866380925  0.0787635997374707  1.0000
  O   O22       1.0  0.10475184474322677  0.9212739234157041  0.5108169784001505  1.0000
  O   O23       1.0  0.057552084551460304  0.40727238331891163  0.8926305788841802  1.0000
  O   O24       1.0  0.9424492575616197  0.10746837976285663  0.5926692256855832  1.0000
  O   O25       1.0  0.9428659297292227  0.5909462013251313  0.11103496162508018  1.0000
  O   O26       1.0  0.05713061515874067  0.8890092389751845  0.4091216117000159  1.0000
  O   O27       1.0  0.8053816165945022  0.8374887379485688  0.8391769420379733  1.0000
  O   O28       1.0  0.1944097594345919  0.1604643342924135  0.1624437954248421  1.0000
  O   O29       1.0  0.8829502791009887  0.5113544265723391  0.7009146978930189  1.0000
  O   O30       1.0  0.11724150473589388  0.29898102600364507  0.48875643476012703  1.0000
  O   O31       1.0  0.11818092474337048  0.48818908133944217  0.301000170217968  1.0000
  O   O32       1.0  0.8817386194626452  0.6991411033403169  0.5117389353148526  1.0000
  O   O33       1.0  0.6849142625607029  0.7869647015578564  0.7888145647203475  1.0000
  O   O34       1.0  0.31487027562457826  0.2111135263115571  0.21289090976100772  1.0000
