data_image0
_chemical_formula_structural       Zn4H40C92N16O40F18
_chemical_formula_sum              "Zn4 H40 C92 N16 O40 F18"
_cell_length_a       19.65574925875235
_cell_length_b       19.593775395609452
_cell_length_c       19.654233660172153
_cell_angle_alpha    111.84671461508263
_cell_angle_beta     104.52137363030931
_cell_angle_gamma    111.24765628868177

_space_group_name_H-M_alt    "P 1"
_space_group_IT_number       1

loop_
  _space_group_symop_operation_xyz
  'x, y, z'

loop_
  _atom_site_type_symbol
  _atom_site_label
  _atom_site_symmetry_multiplicity
  _atom_site_fract_x
  _atom_site_fract_y
  _atom_site_fract_z
  _atom_site_occupancy
  Zn  Zn1       1.0  0.0034576934532851273  0.6208974617665746  0.09557849358234449  1.0000
  Zn  Zn2       1.0  0.9845585641043614  0.3776663764563468  0.8894744248518337  1.0000
  Zn  Zn3       1.0  0.10916152631266142  0.5930110413687047  0.987443929506405  1.0000
  Zn  Zn4       1.0  0.8996493238076224  0.40579470883908886  0.020484284686034495  1.0000
  H   H1        1.0  0.8480567116133673  0.5890265527145431  0.9605709053258451  1.0000
  H   H2        1.0  0.9270412812416428  0.173583800391718  0.8240523894271233  1.0000
  H   H3        1.0  0.1329214207533554  0.8219622157553559  0.23456780918677114  1.0000
  H   H4        1.0  0.02726416492134833  0.397000934156992  0.15218402981701476  1.0000
  H   H5        1.0  0.2396991785617716  0.6215072904620911  0.14821772056743757  1.0000
  H   H6        1.0  0.41838875565748174  0.4704774762018076  0.0034030358290167953  1.0000
  H   H7        1.0  0.5277745471505002  0.6483421367382435  0.242663294950063  1.0000
  H   H8        1.0  0.5983255680697753  0.5546817465354225  0.2793157059585027  1.0000
  H   H9        1.0  0.4456969699646223  0.4009384796483957  0.17136337058627052  1.0000
  H   H10       1.0  0.5825662809616716  0.2305548884098838  0.5055654527441787  1.0000
  H   H11       1.0  0.4576187976108771  0.1778531401977333  0.6174433686406857  1.0000
  H   H12       1.0  0.4716423469942513  0.22300402544682638  0.5555494600954559  1.0000
  H   H13       1.0  0.512961535710204  0.0005850127674165371  0.44289970173614535  1.0000
  H   H14       1.0  0.6074287568948193  0.14921083800961546  0.49271824541986586  1.0000
  H   H15       1.0  0.15356383116210995  0.3943708163858659  0.5035476600689393  1.0000
  H   H16       1.0  0.022061071730618716  0.5225860600155627  0.445151577443589  1.0000
  H   H17       1.0  0.23926521281364196  0.6304988969218498  0.5410440665544911  1.0000
  H   H18       1.0  0.7826867886404187  0.7609940882401957  0.7497039911739805  1.0000
  H   H19       1.0  0.9928616093327494  0.8700902639868461  0.9127262344268204  1.0000
  H   H20       1.0  0.796810556900418  0.9317396079788196  0.9474359132189747  1.0000
  H   H21       1.0  0.07518672417938897  0.2470059972341546  0.8425341515213844  1.0000
  H   H22       1.0  0.4947275739014432  0.3079796346725487  0.9275721467960379  1.0000
  H   H23       1.0  0.2979346025337294  0.1836682204894303  0.44648714220100777  1.0000
  H   H24       1.0  0.26585575035958453  0.9180038095244286  0.48564194878620986  1.0000
  H   H25       1.0  0.678710707029616  0.07789173629230123  0.680300866658385  1.0000
  H   H26       1.0  0.47167565634567415  0.030346016202955222  0.23552890609246194  1.0000
  H   H27       1.0  0.30404179385572416  0.4775952625164237  0.42126673923525704  1.0000
  H   H28       1.0  0.8911883665531308  0.2658923114708145  0.3016224781231287  1.0000
  H   H29       1.0  0.12623067541382946  0.2716466880335204  0.3273850495640218  1.0000
  H   H30       1.0  0.0874632231711914  0.7305079222603723  0.5620838582738514  1.0000
  H   H31       1.0  0.015701876330254546  0.6112767026093664  0.690776678623294  1.0000
  H   H32       1.0  0.3245238521676371  0.6886636516350251  0.787679080547356  1.0000
  H   H33       1.0  0.6343219529869798  0.6353568112303093  0.742234069274822  1.0000
  H   H34       1.0  0.7538971301212459  0.8200099823025654  0.6196792662012883  1.0000
  H   H35       1.0  0.02907414473720143  0.017775738457636796  0.7927365580529794  1.0000
  H   H36       1.0  0.8060372823728487  0.7625157604842772  0.03955872311242115  1.0000
  H   H37       1.0  0.9474741457376297  0.7703863581070323  0.1226349076587923  1.0000
  H   H38       1.0  0.6917587844385908  0.2812143224745542  0.9635543028778103  1.0000
  H   H39       1.0  0.13466088881105534  0.6865816921607077  0.850336063105793  1.0000
  H   H40       1.0  0.07919400296984257  0.7714140363089257  0.3153697846270021  1.0000
  C   C1        1.0  0.8961660604504615  0.595226113497759  0.9416255823723816  1.0000
  C   C2        1.0  0.7524820925408805  0.3359683671206354  0.7807315252995578  1.0000
  C   C3        1.0  0.10533753740246271  0.4636411592110365  0.7600750942125529  1.0000
  C   C4        1.0  0.7814454885305011  0.5378993937614283  0.11864106540796374  1.0000
  C   C5        1.0  0.0834053132671572  0.600250408846705  0.23691418906896913  1.0000
  C   C6        1.0  0.14504874494590336  0.4177202640765643  0.009329075746634965  1.0000
  C   C7        1.0  0.23630738730587825  0.7694566239065992  0.14095576910785476  1.0000
  C   C8        1.0  0.8939168226776034  0.23476902018058615  0.9844864563170856  1.0000
  C   C9        1.0  0.9175153058689177  0.2028088594605535  0.8769224308855428  1.0000
  C   C10       1.0  0.15812294598243437  0.7955140601343872  0.1959496056319311  1.0000
  C   C11       1.0  0.041835739021301825  0.46199012603584316  0.17022181157513927  1.0000
  C   C12       1.0  0.8324203351985204  0.36944984008966486  0.7887662152369258  1.0000
  C   C13       1.0  0.2004061778298621  0.5551744800271479  0.09957142961122403  1.0000
  C   C14       1.0  0.08710981960116737  0.5347469162669755  0.24934992805929568  1.0000
  C   C15       1.0  0.21729223326116917  0.4883180230752373  0.07996870552654661  1.0000
  C   C16       1.0  0.24042600725525892  0.8299772405676292  0.21094453338486124  1.0000
  C   C17       1.0  0.900053866541782  0.17081864261177032  0.9275928409360927  1.0000
  C   C18       1.0  0.4585925108295826  0.48964429245993557  0.06482929511057023  1.0000
  C   C19       1.0  0.5413323509690855  0.5739359131105671  0.1253406832566029  1.0000
  C   C20       1.0  0.7170703567631947  0.540662601254482  0.13498098191112728  1.0000
  C   C21       1.0  0.2922460320848758  0.49291917861676643  0.1117844051666524  1.0000
  C   C22       1.0  0.4955488414998612  0.4375696869590158  0.08585131820307623  1.0000
  C   C23       1.0  0.1463661818767151  0.5311103581138851  0.8417162470079944  1.0000
  C   C24       1.0  0.5827618910461895  0.5241793038272179  0.14638215882294509  1.0000
  C   C25       1.0  0.473696918581588  0.45138116342634754  0.1589367651426415  1.0000
  C   C26       1.0  0.43419903124177495  0.5032001692846535  0.13816293872037733  1.0000
  C   C27       1.0  0.5574559451893464  0.5363040608895986  0.21846193748562112  1.0000
  C   C28       1.0  0.5196042592548765  0.588430892193564  0.19847006201798217  1.0000
  C   C29       1.0  0.6566074565879704  0.5337243781773537  0.14472582178730425  1.0000
  C   C30       1.0  0.357609534759284  0.4956162637143393  0.12891061692608471  1.0000
  C   C31       1.0  0.5606897294908534  0.1663895066631937  0.4967163809857524  1.0000
  C   C32       1.0  0.4654361671658195  0.1682689041890768  0.5620519688499995  1.0000
  C   C33       1.0  0.3893734059470476  0.08480097424720866  0.48700704600327777  1.0000
  C   C34       1.0  0.7965798847803642  0.4700519663933919  0.10106722823202578  1.0000
  C   C35       1.0  0.3071864594862321  0.9025688830855999  0.2826785948937527  1.0000
  C   C36       1.0  0.5449492726536678  0.16588209874221604  0.570020994848079  1.0000
  C   C37       1.0  0.48135809244705996  0.10423585552703671  0.41710461917227787  1.0000
  C   C38       1.0  0.4199362321789692  0.03591049398134054  0.4292283829056415  1.0000
  C   C39       1.0  0.4744253023669956  0.009011371268343314  0.4735166354685134  1.0000
  C   C40       1.0  0.5299597969233928  0.0790803224086217  0.5643758359705868  1.0000
  C   C41       1.0  0.35668829407199354  0.9633577057661993  0.350410963160627  1.0000
  C   C42       1.0  0.6153208377145489  0.23652401007588253  0.646465085952137  1.0000
  C   C43       1.0  0.678841577945974  0.2871737329606319  0.7089272568007559  1.0000
  C   C44       1.0  0.21899675662093904  0.5626120374573488  0.518686495433144  1.0000
  C   C45       1.0  0.041723854749456474  0.4031442953963734  0.7628666313061601  1.0000
  C   C46       1.0  0.0811425484291278  0.41364875870214496  0.4175569978941667  1.0000
  C   C47       1.0  0.10269249574115956  0.40621948166981525  0.49516856605864484  1.0000
  C   C48       1.0  0.11829350227532842  0.4643756094478845  0.6937105000642275  1.0000
  C   C49       1.0  0.1296441923843902  0.513620960456258  0.4500944924662278  1.0000
  C   C50       1.0  0.2216837051018316  0.5514028892215775  0.5928660117684358  1.0000
  C   C51       1.0  0.13224933486647225  0.4913980030775776  0.574588102370825  1.0000
  C   C52       1.0  0.0729200936589366  0.5253106476184469  0.5551433649659216  1.0000
  C   C53       1.0  0.08426635975933293  0.5531291472255332  0.49265760562174415  1.0000
  C   C54       1.0  0.12946444408255794  0.47462002196341047  0.6395698286065182  1.0000
  C   C55       1.0  0.12712836546445772  0.528483423528499  0.38284290724154596  1.0000
  C   C56       1.0  0.844871557187581  0.5955715381268759  0.11206936014128391  1.0000
  C   C57       1.0  0.11471153921207397  0.5361675367289038  0.3232241870733575  1.0000
  C   C58       1.0  0.7966691645793986  0.8116083997129379  0.8969278924931671  1.0000
  C   C59       1.0  0.8481742685482629  0.8002707432276138  0.789953944617153  1.0000
  C   C60       1.0  0.8772670927748649  0.8923957144212906  0.8052538385592598  1.0000
  C   C61       1.0  0.893042955709845  0.09476796054975262  0.9210644273102203  1.0000
  C   C62       1.0  0.8620327905362332  0.7972906705154015  0.8709087878642022  1.0000
  C   C63       1.0  0.8008035218565228  0.8914458320172403  0.894015683604728  1.0000
  C   C64       1.0  0.8800058114969644  0.9457147781661491  0.890777710937769  1.0000
  C   C65       1.0  0.9522091381041236  0.958637374056252  0.959832464600808  1.0000
  C   C66       1.0  0.9491719059782824  0.8729313508221211  0.9376144777114206  1.0000
  C   C67       1.0  0.7652609043138556  0.34842292874678565  0.8597023053883603  1.0000
  C   C68       1.0  0.8882732097951588  0.027151825120505246  0.9072333228361628  1.0000
  C   C69       1.0  0.8611705873004993  0.719381727116925  0.8590789669681199  1.0000
  C   C70       1.0  0.8787033460186607  0.6670158144008623  0.8625890553262607  1.0000
  C   C71       1.0  0.9821936550806428  0.6196318158684518  0.8871324059444204  1.0000
  C   C72       1.0  0.9112228377530585  0.6225230630982351  0.8875403018068865  1.0000
  C   C73       1.0  0.1346357357805347  0.33597529398467446  0.9540248344249278  1.0000
  C   C74       1.0  0.4910654820220303  0.3588498851720487  0.029101253408470095  1.0000
  C   C75       1.0  0.3262816870441228  0.10048162611342096  0.4396528711384348  1.0000
  C   C76       1.0  0.33765908478605416  0.031692219868801934  0.5167438181245032  1.0000
  C   C77       1.0  0.6095804249385423  0.07876769403757315  0.5953616111176386  1.0000
  C   C78       1.0  0.496413756667053  0.05956987700504612  0.3444210282477371  1.0000
  C   C79       1.0  0.2852715699522009  0.552936330318893  0.49692759225514027  1.0000
  C   C80       1.0  0.9879599425514982  0.3725905946602524  0.3636048516744169  1.0000
  C   C81       1.0  0.10015944868339231  0.35832570140503606  0.3533007647894024  1.0000
  C   C82       1.0  0.11789862012674501  0.6478725973597932  0.5233278146161383  1.0000
  C   C83       1.0  0.07996643260016612  0.5915519904266234  0.6345253585825006  1.0000
  C   C84       1.0  0.2743271972294183  0.6395773286849221  0.6737670342442358  1.0000
  C   C85       1.0  0.7068037908064968  0.7379058049096727  0.842846102988986  1.0000
  C   C86       1.0  0.8179165429140698  0.8901546075368074  0.7340812875030522  1.0000
  C   C87       1.0  0.9625292238864134  0.933138641331375  0.8073821566234115  1.0000
  C   C88       1.0  0.8081963465855041  0.8247803967094356  0.983638161774749  1.0000
  C   C89       1.0  0.8632607050318984  0.6778981823117506  0.11877469618251985  1.0000
  C   C90       1.0  0.7031740342677963  0.31585108136523843  0.8860304517189164  1.0000
  C   C91       1.0  0.027851943850699064  0.6455166713991644  0.8440574533336899  1.0000
  C   C92       1.0  0.1078235265622426  0.6859951487794902  0.2995970444283174  1.0000
  N   N1        1.0  0.9548345123270964  0.5801315242520386  0.9728191863175936  1.0000
  N   N2        1.0  0.09072169310137224  0.4427253697693417  0.9908207696423688  1.0000
  N   N3        1.0  0.16020214423668488  0.7050120331661134  0.08975440057604094  1.0000
  N   N4        1.0  0.9067037106885749  0.29860919784262313  0.970415806276712  1.0000
  N   N5        1.0  0.921825787631839  0.27867638477790274  0.9026247372022524  1.0000
  N   N6        1.0  0.1106510171298823  0.7210102303910588  0.12456455195898299  1.0000
  N   N7        1.0  0.013642420201229404  0.4831433924681647  0.11566473445115835  1.0000
  N   N8        1.0  0.1246269104852972  0.526543334328757  0.04476315021879891  1.0000
  N   N9        1.0  0.8876094733342086  0.39853807609449626  0.8638661187576702  1.0000
  N   N10       1.0  0.11108071938393496  0.5140274201898976  0.8873853787340308  1.0000
  N   N11       1.0  0.8600358008065356  0.4832141509558312  0.08351874624686678  1.0000
  N   N12       1.0  0.04393743623246144  0.4317279038004784  0.836563017385714  1.0000
  N   N13       1.0  0.8906187580652658  0.5615735971826011  0.09158710340924603  1.0000
  N   N14       1.0  0.8457142534291934  0.3862931586378764  0.9078121232576848  1.0000
  N   N15       1.0  0.006950368183154975  0.5944955447461879  0.9394584551496621  1.0000
  N   N16       1.0  0.03961838950217362  0.5673859861362871  0.15613029554612726  1.0000
  O   O1        1.0  0.17399592603991468  0.30387436262414974  0.9708599234899962  1.0000
  O   O2        1.0  0.07636647008126841  0.2996439339535826  0.8752255064090163  1.0000
  O   O3        1.0  0.49034289369031114  0.3032873510253395  0.043734647100677676  1.0000
  O   O4        1.0  0.4921941681160576  0.3582869514925592  0.9599030036165318  1.0000
  O   O5        1.0  0.2644049554915995  0.04478523714878689  0.3766443124211776  1.0000
  O   O6        1.0  0.3435256693181757  0.1824586032633207  0.4795233732600792  1.0000
  O   O7        1.0  0.3336859035401289  0.06486282254540035  0.5805273389162621  1.0000
  O   O8        1.0  0.29448344531292747  0.9474314719241405  0.4619205009643821  1.0000
  O   O9        1.0  0.6512191821721913  0.07862891736871805  0.558644087367405  1.0000
  O   O10       1.0  0.6277228916875259  0.07899362429772336  0.6663077693776102  1.0000
  O   O11       1.0  0.5369690442477548  0.025211225641996318  0.34731115722940586  1.0000
  O   O12       1.0  0.460348436568303  0.06266426103194785  0.2785135958539228  1.0000
  O   O13       1.0  0.3570352211326623  0.6075207486182421  0.5360435912788759  1.0000
  O   O14       1.0  0.2567298602037056  0.4765427043148022  0.42982895433655693  1.0000
  O   O15       1.0  0.9548698832113018  0.4072862796588981  0.3411991737177119  1.0000
  O   O16       1.0  0.9481003871419561  0.2886799425867609  0.33798169129865846  1.0000
  O   O17       1.0  0.08787238031403183  0.35311815489338727  0.2873343194104265  1.0000
  O   O18       1.0  0.12338338787306923  0.3091618747904191  0.3748637395258072  1.0000
  O   O19       1.0  0.18088659683881775  0.6983451174797537  0.5295322195855547  1.0000
  O   O20       1.0  0.06258726430145604  0.668903504676571  0.540045654691518  1.0000
  O   O21       1.0  0.14578325519347862  0.6542954551212575  0.6884905541352707  1.0000
  O   O22       1.0  0.00868249457702322  0.5704940819804989  0.6368577444276582  1.0000
  O   O23       1.0  0.30289362609375564  0.7071160428317995  0.6761381336605723  1.0000
  O   O24       1.0  0.2894301596969343  0.6307070501010017  0.7399171489515695  1.0000
  O   O25       1.0  0.6541826287748619  0.7358625243004295  0.8651152496476866  1.0000
  O   O26       1.0  0.6928189065788146  0.6774585784717216  0.7700509161319999  1.0000
  O   O27       1.0  0.8013231224605449  0.9447825339395307  0.737686233351468  1.0000
  O   O28       1.0  0.7887873900840959  0.8170548196894529  0.6626103604325948  1.0000
  O   O29       1.0  0.014038817968923971  0.91415956904968  0.8244554927652389  1.0000
  O   O30       1.0  0.9733393215059821  0.9942136375575785  0.7873064995239787  1.0000
  O   O31       1.0  0.8124734904429972  0.8849308227456021  0.03736859194358297  1.0000
  O   O32       1.0  0.8065535900347386  0.7569851229113809  0.9876574027431673  1.0000
  O   O33       1.0  0.8172110598908306  0.7061874525243327  0.11430922274063002  1.0000
  O   O34       1.0  0.9411559607704092  0.7208221302231762  0.12776254193635606  1.0000
  O   O35       1.0  0.6338432144178086  0.302393516989362  0.8590539633615961  1.0000
  O   O36       1.0  0.7334828728433466  0.2991230935544921  0.9451652281633471  1.0000
  O   O37       1.0  0.9984331655539194  0.6451163944384531  0.7808414353882611  1.0000
  O   O38       1.0  0.10809986193351073  0.6719961455938093  0.883048827355843  1.0000
  O   O39       1.0  0.16001773011498718  0.7269597760117463  0.3702053310443389  1.0000
  O   O40       1.0  0.05954387673199361  0.7146657493922534  0.2699303977753972  1.0000
  F   F1        1.0  0.2972878615726346  0.7698589257614757  0.12187963753270036  1.0000
  F   F2        1.0  0.8768642912574336  0.23714006757574416  0.04688959107999581  1.0000
  F   F3        1.0  0.576497328080251  0.6357429995311109  0.10833402364426815  1.0000
  F   F4        1.0  0.8557348067239658  0.371536445719812  0.731021420926801  1.0000
  F   F5        1.0  0.4448316396187977  0.14943639288568997  0.3993202052708043  1.0000
  F   F6        1.0  0.2128009187843034  0.6070465666110464  0.87454842653716  1.0000
  F   F7        1.0  0.4894901672902775  0.06517519238136776  0.6112227821744013  1.0000
  F   F8        1.0  0.42919506142971653  0.9320857994579727  0.46793287635101427  1.0000
  F   F9        1.0  0.264168275640948  0.5076025088718977  0.6021848441016572  1.0000
  F   F10       1.0  0.7548695525766291  0.3984676048330584  0.10050405936809882  1.0000
  F   F11       1.0  0.03946768792376089  0.3380737948676256  0.48865225509855753  1.0000
  F   F12       1.0  0.9936463162059895  0.45376913181671363  0.514536524553151  1.0000
  F   F13       1.0  0.7338101846728906  0.8648923581564247  0.8233002323373882  1.0000
  F   F14       1.0  0.8844012685161431  0.7621304778187152  0.7492150679209146  1.0000
  F   F15       1.0  0.9837856725037926  0.3242739005370937  0.7020693767756044  1.0000
  F   F16       1.0  0.9719213990204737  0.8680678081584005  0.00821709162658382  1.0000
  F   F17       1.0  0.9467818343472773  0.9919281038499719  0.03191850609590577  1.0000
  F   F18       1.0  0.02598794998057494  0.01862108347675933  0.9730318131590251  1.0000
