data_image0
_chemical_formula_structural       Mg4H120C176O44
_chemical_formula_sum              "Mg4 H120 C176 O44"
_cell_length_a       15.062370186952327
_cell_length_b       17.363749329789602
_cell_length_c       17.41047453389724
_cell_angle_alpha    102.46724540772429
_cell_angle_beta     95.84302664840322
_cell_angle_gamma    95.35234685730826

_space_group_name_H-M_alt    "P 1"
_space_group_IT_number       1

loop_
  _space_group_symop_operation_xyz
  'x, y, z'

loop_
  _atom_site_type_symbol
  _atom_site_label
  _atom_site_symmetry_multiplicity
  _atom_site_fract_x
  _atom_site_fract_y
  _atom_site_fract_z
  _atom_site_occupancy
  Mg  Mg1       1.0  0.7466953464264706  0.5014906623201298  0.4991288689515937  1.0000
  Mg  Mg2       1.0  0.9962508651754689  0.4998325663907155  0.5005422000752728  1.0000
  Mg  Mg3       1.0  0.2467443466819432  0.49888791984439973  0.5014205296515397  1.0000
  Mg  Mg4       1.0  0.49682925196047023  0.5002118192306  0.5004751675295079  1.0000
  H   H1        1.0  0.5357014654177732  0.6524037289927523  0.2065945200953294  1.0000
  H   H2        1.0  0.5430639075271061  0.7149626550077529  0.09142497372659612  1.0000
  H   H3        1.0  0.5851389067872363  0.9747097491975014  0.1915283365262326  1.0000
  H   H4        1.0  0.6218074389508104  0.11245736404269732  0.18433098901075334  1.0000
  H   H5        1.0  0.5954699082323816  0.3256830680338184  0.32143545352089115  1.0000
  H   H6        1.0  0.5272496873071262  0.21354075325869815  0.21092564852396825  1.0000
  H   H7        1.0  0.7123735788552069  0.28934007473005613  0.06107973101354249  1.0000
  H   H8        1.0  0.7792920109359329  0.40203796955668036  0.17222119364251393  1.0000
  H   H9        1.0  0.5694681177965961  0.26042727160105983  0.9846506470750209  1.0000
  H   H10       1.0  0.5482929803517748  0.0748937768842595  0.7701366278540431  1.0000
  H   H11       1.0  0.5544345119817465  0.137388099109522  0.6553746940645905  1.0000
  H   H12       1.0  0.5607077292878416  0.2746748178835433  0.5454792016878469  1.0000
  H   H13       1.0  0.897323797562173  0.6752241421057195  0.6749881950578851  1.0000
  H   H14       1.0  0.9694817187138512  0.7864054434626979  0.7848951484599095  1.0000
  H   H15       1.0  0.7898179459582978  0.7104780444131223  0.93907229198232  1.0000
  H   H16       1.0  0.7193449878035452  0.598665223248446  0.8285909926977193  1.0000
  H   H17       1.0  0.9324701861164257  0.7383010763078702  0.012717908559075375  1.0000
  H   H18       1.0  0.9543253306841707  0.9244719332368379  0.22738280256471902  1.0000
  H   H19       1.0  0.9531133047323548  0.8641733168876158  0.3439466964604775  1.0000
  H   H20       1.0  0.949644516513935  0.7290153384257537  0.4557952804112799  1.0000
  H   H21       1.0  0.8883998619630589  0.5979541741314095  0.4799353695508086  1.0000
  H   H22       1.0  0.9616904559931643  0.3455925490361339  0.791752930706309  1.0000
  H   H23       1.0  0.958418323914124  0.2840479850058203  0.9079507546743808  1.0000
  H   H24       1.0  0.9181554967795051  0.024914554303919104  0.8067217728087994  1.0000
  H   H25       1.0  0.8805287400231238  0.8874359784094782  0.8134848758628619  1.0000
  H   H26       1.0  0.7149657897654437  0.6283515764469244  0.4402767899091769  1.0000
  H   H27       1.0  0.6513320242517368  0.6229287549383075  0.5082827573506916  1.0000
  H   H28       1.0  0.7811195136540479  0.3757262305181684  0.5582073343159876  1.0000
  H   H29       1.0  0.8402728565765117  0.37826494209957673  0.4869544308772616  1.0000
  H   H30       1.0  0.8553169222371223  0.5210994899425289  0.4030590855647417  1.0000
  H   H31       1.0  0.9634627060047266  0.44054780445637226  0.6264262833452461  1.0000
  H   H32       1.0  0.9019948152034872  0.5108102405182323  0.6219208174604984  1.0000
  H   H33       1.0  0.5400091285090624  0.17572135905662387  0.3959202033180914  1.0000
  H   H34       1.0  0.5255749308516967  0.5552324955590536  0.3714832531685842  1.0000
  H   H35       1.0  0.5886386056466789  0.4864960771159019  0.37679329182447646  1.0000
  H   H36       1.0  0.8497548748081981  0.3255535220789484  0.3221415768200372  1.0000
  H   H37       1.0  0.7813248867465888  0.21639585169720024  0.20871891277361942  1.0000
  H   H38       1.0  0.9611916189893678  0.061550608951804996  0.28692176163620065  1.0000
  H   H39       1.0  0.8186698185877149  0.9883256281508678  0.2573807093877247  1.0000
  H   H40       1.0  0.7974833253709336  0.7723381892559263  0.07388813108170203  1.0000
  H   H41       1.0  0.7963555812248232  0.6564062298403713  0.13563794994212228  1.0000
  H   H42       1.0  0.7053452039208636  0.793234956522703  0.3427596815284487  1.0000
  H   H43       1.0  0.7027621926153031  0.9089422110686985  0.28005583171638887  1.0000
  H   H44       1.0  0.6685291183037239  0.8064491562197919  0.02197642657866795  1.0000
  H   H45       1.0  0.6328027075590514  0.8128694664005284  0.8840139666064314  1.0000
  H   H46       1.0  0.7959691220150306  0.545990548591668  0.27176251543012586  1.0000
  H   H47       1.0  0.6535684476487874  0.6778082412573099  0.6659141051719073  1.0000
  H   H48       1.0  0.7258591311812453  0.7867534103907591  0.7781431356528541  1.0000
  H   H49       1.0  0.5325308464409418  0.9378314514001717  0.714678717222405  1.0000
  H   H50       1.0  0.6823784188730072  0.0129237369667052  0.7362800114713717  1.0000
  H   H51       1.0  0.7056853680732543  0.22712785463176036  0.9226850635487406  1.0000
  H   H52       1.0  0.7060692666076562  0.3451268552953054  0.8640997363082332  1.0000
  H   H53       1.0  0.7944943523807455  0.21264188643628765  0.6534835791636409  1.0000
  H   H54       1.0  0.7974615570856048  0.09458974282757994  0.7127956447316774  1.0000
  H   H55       1.0  0.8370471924594939  0.1934176492403453  0.9708503516233048  1.0000
  H   H56       1.0  0.8728767324126849  0.1870699381708576  0.10870320443381584  1.0000
  H   H57       1.0  0.700366466558144  0.45732881915881773  0.7294602180465259  1.0000
  H   H58       1.0  0.9679247836024844  0.8297899140469485  0.6004064659573414  1.0000
  H   H59       1.0  0.6394597228131148  0.48137274576653527  0.5965120857695606  1.0000
  H   H60       1.0  0.607637564241216  0.4047902287305476  0.5190607448256157  1.0000
  H   H61       1.0  0.03975914208881904  0.6525087447938988  0.21036031206743636  1.0000
  H   H62       1.0  0.04535888530796234  0.7138846595352959  0.09418945182147098  1.0000
  H   H63       1.0  0.08422709795350874  0.9730334979696806  0.1944955510872858  1.0000
  H   H64       1.0  0.12068654423364931  0.11094384719530842  0.18806830972744842  1.0000
  H   H65       1.0  0.0949648902030162  0.32618994222899295  0.3235502953122803  1.0000
  H   H66       1.0  0.026893407749213314  0.21332307328762576  0.21350557340881685  1.0000
  H   H67       1.0  0.21571832578541014  0.28545918746974064  0.0647905638946966  1.0000
  H   H68       1.0  0.2827283147155057  0.3986042328756768  0.17558321849134015  1.0000
  H   H69       1.0  0.0716242884183202  0.2592277266580538  0.9881129995587297  1.0000
  H   H70       1.0  0.04729085283129562  0.07345425865760553  0.7727011679026173  1.0000
  H   H71       1.0  0.04712371126417032  0.13424335037535684  0.6563592076637688  1.0000
  H   H72       1.0  0.04959617702672151  0.2710913258471593  0.5456120740937889  1.0000
  H   H73       1.0  0.3963327221017324  0.6724371877367761  0.6754450359533093  1.0000
  H   H74       1.0  0.4678148439076609  0.7851686807880045  0.7840946241225378  1.0000
  H   H75       1.0  0.2863230318821693  0.713185096209699  0.9387846247514627  1.0000
  H   H76       1.0  0.21651883944796424  0.5996814379732598  0.8296500451793418  1.0000
  H   H77       1.0  0.4299058830653878  0.74025465767798  0.011792390285677383  1.0000
  H   H78       1.0  0.4558455808153711  0.926462019573258  0.2266327845696239  1.0000
  H   H79       1.0  0.4519298339110947  0.8646395058603605  0.3419275540485528  1.0000
  H   H80       1.0  0.44267683036817834  0.726321705968637  0.45102668596886264  1.0000
  H   H81       1.0  0.3869719016193543  0.5967347335899122  0.48136792138586043  1.0000
  H   H82       1.0  0.4660931636743797  0.34814371282990203  0.7890387887536006  1.0000
  H   H83       1.0  0.45669197587015026  0.284977854650613  0.9037446782252939  1.0000
  H   H84       1.0  0.4165162709322132  0.025428422795954506  0.8038395443408458  1.0000
  H   H85       1.0  0.3783123296230997  0.8880800966093432  0.8115503712809722  1.0000
  H   H86       1.0  0.21370769903577985  0.6255797206644333  0.4428253566398153  1.0000
  H   H87       1.0  0.1523675051431184  0.6215804578156607  0.5125125040093221  1.0000
  H   H88       1.0  0.2824045795823622  0.3747062340804634  0.5619851973047074  1.0000
  H   H89       1.0  0.3418349824661888  0.37684332217509825  0.49088564065691276  1.0000
  H   H90       1.0  0.35455647604690915  0.5195886792617019  0.4048915017256291  1.0000
  H   H91       1.0  0.4699183843822111  0.44593967856699396  0.6296462722523939  1.0000
  H   H92       1.0  0.4042111800671506  0.5128983156297126  0.6238740810646701  1.0000
  H   H93       1.0  0.027840252883997614  0.17126780892229482  0.40102976735809637  1.0000
  H   H94       1.0  0.027913354533012653  0.5569251739752021  0.3734594996410791  1.0000
  H   H95       1.0  0.0908370797920526  0.48787987315134274  0.3789103452255772  1.0000
  H   H96       1.0  0.34095225255912714  0.32053535474987893  0.3334154729757655  1.0000
  H   H97       1.0  0.272446858572131  0.2111367030483038  0.21997990086150299  1.0000
  H   H98       1.0  0.47167661795435123  0.064968413954503  0.2829844544748353  1.0000
  H   H99       1.0  0.3215540883605641  0.9870783970433908  0.26145208656505753  1.0000
  H   H100      1.0  0.2964311547396221  0.7714173013744839  0.07635050200180861  1.0000
  H   H101      1.0  0.2948633044701836  0.6545763839235477  0.1367280729278732  1.0000
  H   H102      1.0  0.20878385415935705  0.7909929964763551  0.3465902630745744  1.0000
  H   H103      1.0  0.20687520318200822  0.9077614145533918  0.28542886523864996  1.0000
  H   H104      1.0  0.16637868954427404  0.8064959443275512  0.0270303238184297  1.0000
  H   H105      1.0  0.1289419967368985  0.8133540856126658  0.8895732680761621  1.0000
  H   H106      1.0  0.2968905582119277  0.5435475655012425  0.27256261693386097  1.0000
  H   H107      1.0  0.14535901325888298  0.6739699605488527  0.6772499908933224  1.0000
  H   H108      1.0  0.21767929298138716  0.7833904973834438  0.7887900665446491  1.0000
  H   H109      1.0  0.03852234772802635  0.9397692057884869  0.712630676716628  1.0000
  H   H110      1.0  0.18266061697200087  0.012315999097339205  0.740806422719103  1.0000
  H   H111      1.0  0.20254104061941552  0.22622230702213392  0.9260095084470091  1.0000
  H   H112      1.0  0.20061892723057892  0.3432301859571255  0.8660985023413301  1.0000
  H   H113      1.0  0.29482779692371963  0.21142628538711253  0.658029444005926  1.0000
  H   H114      1.0  0.29812194637018763  0.09396056920431314  0.7180930198225536  1.0000
  H   H115      1.0  0.3337476761351112  0.19379787273326343  0.976058189469924  1.0000
  H   H116      1.0  0.36939210710363574  0.1873999623584481  0.11413867612476025  1.0000
  H   H117      1.0  0.19370747678474495  0.4535234457235121  0.7285029835925128  1.0000
  H   H118      1.0  0.46085408315862975  0.8277682529214803  0.6025216085100593  1.0000
  H   H119      1.0  0.1374253511159154  0.4795320155399595  0.5975585650558555  1.0000
  H   H120      1.0  0.1048918670365566  0.4025966989392487  0.5207208150883174  1.0000
  C   C1        1.0  0.5114243463221301  0.9361832542738427  0.0732699692049009  1.0000
  C   C2        1.0  0.5191512992054613  0.7127816269839118  0.21038646452524284  1.0000
  C   C3        1.0  0.5223835764007703  0.747937212566356  0.1461141986301442  1.0000
  C   C4        1.0  0.5612452073026476  0.9936630890622736  0.1382292257024957  1.0000
  C   C5        1.0  0.5822634183723779  0.07075937063888922  0.13403016058215655  1.0000
  C   C6        1.0  0.7328532292692173  0.4369529759654896  0.32107652973095907  1.0000
  C   C7        1.0  0.690491814709972  0.37158444447768363  0.2533222258881195  1.0000
  C   C8        1.0  0.6198577341469331  0.31776757281289036  0.26382860478263115  1.0000
  C   C9        1.0  0.5827502576522507  0.25430621549127613  0.20201486562979903  1.0000
  C   C10       1.0  0.6149461781871254  0.2430002682615396  0.12779895625791224  1.0000
  C   C11       1.0  0.6855465238601965  0.29784508143588795  0.1177739945923832  1.0000
  C   C12       1.0  0.7232571435981399  0.3609149662344039  0.17964221312981715  1.0000
  C   C13       1.0  0.5739809605708642  0.17834080022424106  0.059935275034511896  1.0000
  C   C14       1.0  0.5553726242003235  0.09777121210181151  0.06434639405524216  1.0000
  C   C15       1.0  0.5115427175680479  0.04061547433606451  0.9955554158949408  1.0000
  C   C16       1.0  0.5132062341077273  0.14433831565693822  0.9185207546113217  1.0000
  C   C17       1.0  0.5531119814446442  0.19870332254411247  0.9875830711386865  1.0000
  C   C18       1.0  0.5027151711359891  0.175252259412602  0.8457780884568036  1.0000
  C   C19       1.0  0.5270135707835805  0.13366520876990512  0.7737420867237856  1.0000
  C   C20       1.0  0.5315784526742038  0.16892496077666416  0.7095471018816466  1.0000
  C   C21       1.0  0.5109829096454348  0.2469250255276522  0.7152566453838671  1.0000
  C   C22       1.0  0.5207382417457966  0.2879214980333985  0.6495175456114095  1.0000
  C   C23       1.0  0.7613993264893536  0.5644701742835494  0.6778241035841287  1.0000
  C   C24       1.0  0.8053125089918468  0.6292693067944839  0.7453706486730309  1.0000
  C   C25       1.0  0.8753162012446226  0.6829097242174245  0.7335113893745555  1.0000
  C   C26       1.0  0.9144758798789779  0.7458748250904178  0.7949890682095525  1.0000
  C   C27       1.0  0.8848495083694701  0.7567247013089118  0.8702376438114781  1.0000
  C   C28       1.0  0.8146435773929641  0.7021727837778401  0.8815301061223833  1.0000
  C   C29       1.0  0.7749239922630126  0.6396032077688292  0.820015915351817  1.0000
  C   C30       1.0  0.9275152731189706  0.8208136836827934  0.9378665172651421  1.0000
  C   C31       1.0  0.9466567754304123  0.9013794509983912  0.9335824000133285  1.0000
  C   C32       1.0  0.9904420325312698  0.9583169238815827  0.0025248951128845577  1.0000
  C   C33       1.0  0.988558528123754  0.8543625116301926  0.07917264687889507  1.0000
  C   C34       1.0  0.9487653723020131  0.8001004152053073  0.010030452589248366  1.0000
  C   C35       1.0  0.9998089665106917  0.8238878604382551  0.15206489104829046  1.0000
  C   C36       1.0  0.976538866047747  0.8661064709105732  0.2242606196721438  1.0000
  C   C37       1.0  0.9745380255919542  0.8320158759837357  0.2893715674598807  1.0000
  C   C38       1.0  0.9959722935035701  0.7543413613713101  0.28420338694093766  1.0000
  C   C39       1.0  0.9880288006655107  0.7143207934981108  0.350790239544686  1.0000
  C   C40       1.0  0.9914019310278662  0.06302110105489331  0.9252692825147333  1.0000
  C   C41       1.0  0.9795745747391252  0.2856601090152894  0.7882468730074802  1.0000
  C   C42       1.0  0.9784990343648945  0.2510481635668996  0.8530103302972446  1.0000
  C   C43       1.0  0.9417661598990179  0.005787395445516102  0.8600030684469783  1.0000
  C   C44       1.0  0.9202573183950097  0.9287059307860662  0.8639624151710021  1.0000
  C   C45       1.0  0.9832071637677657  0.3214113320039402  0.43606608460811447  1.0000
  C   C46       1.0  0.9414105524652072  0.2546111212456808  0.3695368104251599  1.0000
  C   C47       1.0  0.8726153693745077  0.26703705718022536  0.3145158736266679  1.0000
  C   C48       1.0  0.835566502270815  0.20599171580975917  0.2502892561763445  1.0000
  C   C49       1.0  0.8660899692054613  0.13069458377962923  0.23953225156567723  1.0000
  C   C50       1.0  0.9353595009038997  0.1189882229973875  0.2952568157343477  1.0000
  C   C51       1.0  0.9729637636454315  0.1800550610535439  0.35908425708139174  1.0000
  C   C52       1.0  0.8246474639415241  0.06304052760790312  0.17488564502478704  1.0000
  C   C53       1.0  0.8063810163642201  0.06718086999487131  0.09429045872715844  1.0000
  C   C54       1.0  0.7629262568995828  0.9981808082741708  0.037183044103080945  1.0000
  C   C55       1.0  0.7406878891833986  0.9252569036571575  0.06081017591747437  1.0000
  C   C56       1.0  0.7632040129086305  0.9218322559697046  0.14121933691286867  1.0000
  C   C57       1.0  0.8030450162249353  0.990905698278951  0.19551131799002514  1.0000
  C   C58       1.0  0.7504235626717276  0.849298721499139  0.1721766300954427  1.0000
  C   C59       1.0  0.7739031579289632  0.7763268286480738  0.13152400265852288  1.0000
  C   C60       1.0  0.7745157498943911  0.7115505296698292  0.16643327996354168  1.0000
  C   C61       1.0  0.7512520437201503  0.7178083935209332  0.24331445141173438  1.0000
  C   C62       1.0  0.7246732854492706  0.7892890624139782  0.2835142464161179  1.0000
  C   C63       1.0  0.7239952678675579  0.853794198710965  0.24827979652420137  1.0000
  C   C64       1.0  0.7577051911975728  0.6514990870630443  0.28422802977584627  1.0000
  C   C65       1.0  0.691948923289175  0.859831975447186  0.003139938180588305  1.0000
  C   C66       1.0  0.6713482556547136  0.8636043710309169  0.9259001794637595  1.0000
  C   C67       1.0  0.5096293567141005  0.6793453684133582  0.561546340977962  1.0000
  C   C68       1.0  0.5538492814832948  0.7464819264396995  0.6266729071586282  1.0000
  C   C69       1.0  0.6281259645957037  0.7352875416861056  0.6768082931168633  1.0000
  C   C70       1.0  0.6676512908997979  0.7962147710955635  0.7401636328392696  1.0000
  C   C71       1.0  0.634449709799519  0.87040360554947  0.754507594441925  1.0000
  C   C72       1.0  0.5600906480695897  0.8811685473733422  0.703416639927539  1.0000
  C   C73       1.0  0.5197807706793326  0.8199915447614573  0.6406949129017289  1.0000
  C   C74       1.0  0.6779351411140483  0.9379241053019245  0.8186047578872216  1.0000
  C   C75       1.0  0.697475169126136  0.9334082803775277  0.8989884872606236  1.0000
  C   C76       1.0  0.7411855599109458  0.0022828059837821002  0.9560949518391335  1.0000
  C   C77       1.0  0.7632442972694521  0.0752155501841898  0.9324500974081571  1.0000
  C   C78       1.0  0.7397640263375962  0.07896543743361664  0.8522585902079169  1.0000
  C   C79       1.0  0.6992358103576707  0.010062781275671302  0.7979481541587246  1.0000
  C   C80       1.0  0.751585364753403  0.15216044442949087  0.8223511463015495  1.0000
  C   C81       1.0  0.7284402592234828  0.22450311181037114  0.864887301755331  1.0000
  C   C82       1.0  0.7274180409149124  0.2904137802650625  0.8317946783001842  1.0000
  C   C83       1.0  0.7500479433459971  0.28603337526475775  0.7549434986775763  1.0000
  C   C84       1.0  0.7759119008969295  0.21510455253751812  0.7127749525404351  1.0000
  C   C85       1.0  0.7768282790489422  0.14932109607486413  0.7461132605559155  1.0000
  C   C86       1.0  0.743167996953659  0.35371861257553416  0.7160672375020167  1.0000
  C   C87       1.0  0.8128713269784171  0.14037308973964713  0.9898984327607674  1.0000
  C   C88       1.0  0.8334387619498287  0.13662574002949407  0.06713366061080706  1.0000
  C   C89       1.0  0.01201920631842777  0.934629769796317  0.07556961919384259  1.0000
  C   C90       1.0  0.022071775709996237  0.7124566529449653  0.21347153847359113  1.0000
  C   C91       1.0  0.024354577046473532  0.7469359764484481  0.14869016762553133  1.0000
  C   C92       1.0  0.06096892971306291  0.9920619543148633  0.14107497457669635  1.0000
  C   C93       1.0  0.08195298561984289  0.06927596080365821  0.13728684104937364  1.0000
  C   C94       1.0  0.2337059520731088  0.43570877085083753  0.3233488809762405  1.0000
  C   C95       1.0  0.19160486361502654  0.37020429258693355  0.2558008951137153  1.0000
  C   C96       1.0  0.12007397347299793  0.31727996787188323  0.266232356518337  1.0000
  C   C97       1.0  0.08307570691653153  0.25348071948386075  0.2047456608919233  1.0000
  C   C98       1.0  0.11628846810855722  0.24131207114832165  0.13095957781266065  1.0000
  C   C99       1.0  0.18799639711390634  0.29512953460625374  0.12107953190497506  1.0000
  C   C100      1.0  0.225698682927991  0.35838027525816335  0.18269559271111283  1.0000
  C   C101      1.0  0.0752250641866326  0.1768298926836636  0.06306578698549707  1.0000
  C   C102      1.0  0.05608585198697109  0.0963396554801221  0.06741277484464797  1.0000
  C   C103      1.0  0.012824238103128504  0.039305332211675606  0.9983295656885073  1.0000
  C   C104      1.0  0.01501792817976621  0.14327244730620242  0.9216716627235609  1.0000
  C   C105      1.0  0.05496988138821732  0.19746567469099577  0.9907674809172559  1.0000
  C   C106      1.0  0.002996011289553712  0.17399332287656932  0.8489900589249398  1.0000
  C   C107      1.0  0.02525213877608931  0.13193930517441294  0.7763183897327504  1.0000
  C   C108      1.0  0.02645386398026521  0.16630638950944393  0.7113364818283612  1.0000
  C   C109      1.0  0.004817288508228008  0.24398585766923023  0.7170435037897247  1.0000
  C   C110      1.0  0.010633013818818426  0.2840036125627139  0.6501824319543557  1.0000
  C   C111      1.0  0.2599253358418353  0.5625282640456606  0.6795179863268641  1.0000
  C   C112      1.0  0.3034178028906994  0.6282852334751965  0.7463043266386289  1.0000
  C   C113      1.0  0.3736543127637191  0.681343585213881  0.7337833463777625  1.0000
  C   C114      1.0  0.4124154162098393  0.7451945331067054  0.7944730695749339  1.0000
  C   C115      1.0  0.3821044977814197  0.7575841992587018  0.8694784771574787  1.0000
  C   C116      1.0  0.3116889832226876  0.7036231990661084  0.8814406634856338  1.0000
  C   C117      1.0  0.2723758041685117  0.6401184564904839  0.8207229733889103  1.0000
  C   C118      1.0  0.4251108320438561  0.822249842137751  0.9364611347286238  1.0000
  C   C119      1.0  0.44468704046578017  0.902607878003906  0.9315789973417022  1.0000
  C   C120      1.0  0.4891699806527896  0.9596841061732565  0.00016879462143758477  1.0000
  C   C121      1.0  0.4876944681563273  0.8561077033191682  0.07739640944590317  1.0000
  C   C122      1.0  0.4466788455725422  0.8018767260132266  0.008712585028256089  1.0000
  C   C123      1.0  0.499165825559757  0.825418966757532  0.15019098896493685  1.0000
  C   C124      1.0  0.4766446869663953  0.8674997702884968  0.22274976233114063  1.0000
  C   C125      1.0  0.4732134901995267  0.8325411559980653  0.287246099677155  1.0000
  C   C126      1.0  0.4930999914860196  0.7543094574041904  0.28130837418861887  1.0000
  C   C127      1.0  0.48423627223341736  0.7133972980874789  0.3472560089139803  1.0000
  C   C128      1.0  0.48957070899428606  0.06412489302012858  0.9224004960582302  1.0000
  C   C129      1.0  0.48324353902380324  0.2879801210687418  0.7855884648229715  1.0000
  C   C130      1.0  0.47887860073389993  0.25251151300935254  0.8495592280948541  1.0000
  C   C131      1.0  0.4399112301214601  0.006584439446299901  0.8573537814684611  1.0000
  C   C132      1.0  0.4181656637921166  0.9296243699901583  0.8617812822995672  1.0000
  C   C133      1.0  0.48624752855147346  0.32187166096277764  0.4377065988937898  1.0000
  C   C134      1.0  0.44342152770090587  0.25429458071361927  0.37242524132315663  1.0000
  C   C135      1.0  0.3684746119650271  0.263993218205414  0.32219306499615635  1.0000
  C   C136      1.0  0.33100907043655065  0.20284618349446504  0.2582483933682126  1.0000
  C   C137      1.0  0.36695530106500485  0.12993045723445817  0.2435383882242092  1.0000
  C   C138      1.0  0.4419480618417778  0.12058532152024534  0.2947181042584929  1.0000
  C   C139      1.0  0.4802750705010723  0.18208211856892126  0.35790754227167537  1.0000
  C   C140      1.0  0.3250865388388391  0.062066584971582045  0.17915205700521847  1.0000
  C   C141      1.0  0.30558390771266636  0.06653005901546291  0.09879726540297896  1.0000
  C   C142      1.0  0.2621746506694081  0.9975548031832492  0.04168546177716346  1.0000
  C   C143      1.0  0.24028320346808138  0.9246210186168116  0.06537501594315387  1.0000
  C   C144      1.0  0.26390262039304707  0.9209211802398588  0.14555068351680936  1.0000
  C   C145      1.0  0.3045428559284602  0.9898453473922973  0.19977183659013056  1.0000
  C   C146      1.0  0.251535411575162  0.8481534941236506  0.17608273078158015  1.0000
  C   C147      1.0  0.27379326130528636  0.7751166376482106  0.13434075860857317  1.0000
  C   C148      1.0  0.2741466282384622  0.7098326790156623  0.1684726311019276  1.0000
  C   C149      1.0  0.25170736665202054  0.7156035875604163  0.24557838049216224  1.0000
  C   C150      1.0  0.2269014688197544  0.7873087161831835  0.28699600127704616  1.0000
  C   C151      1.0  0.22664133371487347  0.8523990001294663  0.2526427380723319  1.0000
  C   C152      1.0  0.25687175927681244  0.6483537391187116  0.2853174557562852  1.0000
  C   C153      1.0  0.19038309729780425  0.859594516503421  0.007998458064861276  1.0000
  C   C154      1.0  0.1689924831836295  0.8635804777145143  0.9309405957163503  1.0000
  C   C155      1.0  0.010482130508542326  0.6786352024599864  0.5650413518427795  1.0000
  C   C156      1.0  0.05374282132639514  0.7455209076539903  0.6309199821533793  1.0000
  C   C157      1.0  0.12344771931365983  0.7328388525044289  0.6849232774281331  1.0000
  C   C158      1.0  0.16276032722228714  0.7940771431600099  0.7480783942586837  1.0000
  C   C159      1.0  0.1335453888067236  0.8698938759039552  0.7589860802479718  1.0000
  C   C160      1.0  0.06330463576367866  0.8818850976651974  0.7043061855033697  1.0000
  C   C161      1.0  0.02347745309241134  0.8206244716563307  0.6414664350636128  1.0000
  C   C162      1.0  0.17677994478389542  0.9373540654159884  0.8231626523610199  1.0000
  C   C163      1.0  0.19593481841484822  0.9329946299634174  0.9036594402123012  1.0000
  C   C164      1.0  0.2400540779098179  0.0017786934467664995  0.9606931924641127  1.0000
  C   C165      1.0  0.26199285766735164  0.07481180382146141  0.937185351939824  1.0000
  C   C166      1.0  0.23883680215250544  0.0784192166575153  0.8569265228106812  1.0000
  C   C167      1.0  0.19866338447500453  0.009479781973695402  0.8025798477575063  1.0000
  C   C168      1.0  0.25050656847639635  0.15150862784466312  0.8268002236199617  1.0000
  C   C169      1.0  0.2259290273440016  0.22359481928872077  0.8684731836810682  1.0000
  C   C170      1.0  0.22375476033314362  0.2889863366746184  0.8346329284867477  1.0000
  C   C171      1.0  0.247449742932865  0.28444569333806413  0.758088611100042  1.0000
  C   C172      1.0  0.2752892527720974  0.21393953862516923  0.71700722339812  1.0000
  C   C173      1.0  0.27661838331406596  0.14852863306563083  0.7508574552529407  1.0000
  C   C174      1.0  0.24030671691647856  0.3514715304390992  0.7182505381896075  1.0000
  C   C175      1.0  0.31063417440724805  0.14031247849518996  0.9948566707865817  1.0000
  C   C176      1.0  0.3312777656930876  0.1365268657898397  0.07208483172696838  1.0000
  O   O1        1.0  0.504762574504035  0.6456782606743731  0.34473954317798655  1.0000
  O   O2        1.0  0.8079432157737471  0.4750817595374245  0.31518077651162457  1.0000
  O   O3        1.0  0.6932058689985326  0.45105940924296567  0.3831821258113876  1.0000
  O   O4        1.0  0.5544782828434336  0.24430895782811762  0.5886677950068842  1.0000
  O   O5        1.0  0.6865148299926888  0.5266062813936828  0.6845267019401146  1.0000
  O   O6        1.0  0.7999428194030712  0.5506465326563161  0.6150363064828495  1.0000
  O   O7        1.0  0.9593186168328032  0.7597822803265474  0.41336539201161304  1.0000
  O   O8        1.0  0.8718505437222674  0.537985763608731  0.46300777962022704  1.0000
  O   O9        1.0  0.988221872346166  0.3510266949190567  0.6522328612988415  1.0000
  O   O10       1.0  0.709698298602362  0.6110007452178865  0.49015853472821636  1.0000
  O   O11       1.0  0.6227297558701396  0.46500090605024985  0.5365379099752514  1.0000
  O   O12       1.0  0.7831621889960801  0.39123217831036783  0.507059870657933  1.0000
  O   O13       1.0  0.5493353923829505  0.6169574937856767  0.5459414987993296  1.0000
  O   O14       1.0  0.9596599339274905  0.4911458470879994  0.6099100425007149  1.0000
  O   O15       1.0  0.56373042714079  0.31690094531202123  0.4728175940221673  1.0000
  O   O16       1.0  0.5305471066299533  0.5052393940443809  0.38895426498901725  1.0000
  O   O17       1.0  0.9433967798026189  0.38381731685667136  0.4504058154018507  1.0000
  O   O18       1.0  0.7388844318404112  0.6557229463070726  0.3523904879160965  1.0000
  O   O19       1.0  0.7875663372895689  0.5883559412601471  0.24046618409669648  1.0000
  O   O20       1.0  0.7643352101422424  0.3523794288251096  0.649075864910422  1.0000
  O   O21       1.0  0.709959349383148  0.41467739746277504  0.760191971469396  1.0000
  O   O22       1.0  0.9358447930512385  0.6861303343738643  0.5266208068897383  1.0000
  O   O23       1.0  0.004668631059708256  0.6453330751426096  0.3472021036520515  1.0000
  O   O24       1.0  0.3085471652843453  0.47410191169008453  0.3173350248747439  1.0000
  O   O25       1.0  0.19411405449950792  0.44955671235867106  0.3855231234644591  1.0000
  O   O26       1.0  0.043898804745971624  0.24065979071356491  0.588875870079981  1.0000
  O   O27       1.0  0.18449968074654788  0.5254237973115397  0.686039521048478  1.0000
  O   O28       1.0  0.29923660532224267  0.5473521501653948  0.6172799170765227  1.0000
  O   O29       1.0  0.4503345879156058  0.7567638265782579  0.40812996525541917  1.0000
  O   O30       1.0  0.3712886493165471  0.5365985879914065  0.4648959719209812  1.0000
  O   O31       1.0  0.5008625713409459  0.35578503003864637  0.6518552113552685  1.0000
  O   O32       1.0  0.21003528071398855  0.6091100606541888  0.4933152222042094  1.0000
  O   O33       1.0  0.12144120579397825  0.462603074099569  0.537609421586154  1.0000
  O   O34       1.0  0.28415926447683404  0.3891738642997781  0.510307340735366  1.0000
  O   O35       1.0  0.04939019056867982  0.6156717770129846  0.5507126623539376  1.0000
  O   O36       1.0  0.4628503816167253  0.49539205666730635  0.6117763290997968  1.0000
  O   O37       1.0  0.05800696133314183  0.31460568596558874  0.47467156629574686  1.0000
  O   O38       1.0  0.03292953064021735  0.5069177196579633  0.39095782496836745  1.0000
  O   O39       1.0  0.4447625051446025  0.38310197846249855  0.4542853347765997  1.0000
  O   O40       1.0  0.2346841981212648  0.650655825139893  0.35214880093450057  1.0000
  O   O41       1.0  0.2893594009401852  0.5865254396471189  0.24187422370815162  1.0000
  O   O42       1.0  0.26739625376578163  0.35155344683914086  0.6535604578784839  1.0000
  O   O43       1.0  0.2004475890929598  0.41013810482453295  0.7587970481708478  1.0000
  O   O44       1.0  0.4333546581757092  0.6857714078246602  0.5251710252190589  1.0000
