data_image0
_chemical_formula_structural       Bi4H40C24N4O32
_chemical_formula_sum              "Bi4 H40 C24 N4 O32"
_cell_length_a       6.279826544680857
_cell_length_b       8.219661440005492
_cell_length_c       20.762121018928433
_cell_angle_alpha    90.00042405327132
_cell_angle_beta     89.99843060774587
_cell_angle_gamma    102.93067705895496

_space_group_name_H-M_alt    "P 1"
_space_group_IT_number       1

loop_
  _space_group_symop_operation_xyz
  'x, y, z'

loop_
  _atom_site_type_symbol
  _atom_site_label
  _atom_site_symmetry_multiplicity
  _atom_site_fract_x
  _atom_site_fract_y
  _atom_site_fract_z
  _atom_site_occupancy
  Bi  Bi1       1.0  0.910896794611176  0.5714238967554621  0.9052831844846306  1.0000
  Bi  Bi2       1.0  0.5890976951417242  0.9285813165211675  0.4052788246597885  1.0000
  Bi  Bi3       1.0  0.08910642982360878  0.4285826972335086  0.09471554743330297  1.0000
  Bi  Bi4       1.0  0.410898212374299  0.07141653244380558  0.5947218338609301  1.0000
  H   H1        1.0  0.20175601063300508  0.8835149844275987  0.8518561319840782  1.0000
  H   H2        1.0  0.2982437224546787  0.6164782273748415  0.3518505369467347  1.0000
  H   H3        1.0  0.7982493124793563  0.11648786969136887  0.14814356321221564  1.0000
  H   H4        1.0  0.70175146003951  0.38351712509797414  0.6481506032196191  1.0000
  H   H5        1.0  0.15524039081243757  0.9001032287585174  0.9280552129654464  1.0000
  H   H6        1.0  0.3447584144286893  0.599893962005055  0.4280486988873874  1.0000
  H   H7        1.0  0.8447566042470738  0.09989836494432319  0.07194448226364607  1.0000
  H   H8        1.0  0.6552403167437928  0.40010264358350867  0.5719534045587763  1.0000
  H   H9        1.0  0.5036959844727774  0.6977458218632505  0.9392011623258154  1.0000
  H   H10       1.0  0.9962830220816483  0.8022494918477818  0.43919784670303114  1.0000
  H   H11       1.0  0.4963068774618264  0.3022595238792789  0.06079756959175598  1.0000
  H   H12       1.0  0.003718676200698202  0.1977408798010813  0.5607979953187436  1.0000
  H   H13       1.0  0.6782907783202888  0.8514887882066161  0.970901184312211  1.0000
  H   H14       1.0  0.8216889501144421  0.6485078730259629  0.4709007881663536  1.0000
  H   H15       1.0  0.32170925985047916  0.1485178009159114  0.02909851091171589  1.0000
  H   H16       1.0  0.1783141980827239  0.35148749161152176  0.5290969804423113  1.0000
  H   H17       1.0  0.9518020004895219  0.21785513593448505  0.7552515686575203  1.0000
  H   H18       1.0  0.5482178303850914  0.2821664415331923  0.2552567426214124  1.0000
  H   H19       1.0  0.04820013638029505  0.7821477133173288  0.24474860819839953  1.0000
  H   H20       1.0  0.4517864051193498  0.7178326678500538  0.7447453608055807  1.0000
  H   H21       1.0  0.6946034120261543  0.24067056537361953  0.7838234548180265  1.0000
  H   H22       1.0  0.8053997431183786  0.25932986481893033  0.28382641727791474  1.0000
  H   H23       1.0  0.30539517618684187  0.7593310307617286  0.2161752771117164  1.0000
  H   H24       1.0  0.19460094368628933  0.7406679914492852  0.7161752045156218  1.0000
  H   H25       1.0  0.6284685193256861  0.15156177650543157  0.8781766733520083  1.0000
  H   H26       1.0  0.8715207180499644  0.3484364308736615  0.37817742592411446  1.0000
  H   H27       1.0  0.3715300688228922  0.8484398196320626  0.12182350351680776  1.0000
  H   H28       1.0  0.12848119938652755  0.651560179581338  0.6218237142160631  1.0000
  H   H29       1.0  0.8313326460095567  0.031678985390023194  0.878123148691429  1.0000
  H   H30       1.0  0.668657320983442  0.4683217183277505  0.3781273966181472  1.0000
  H   H31       1.0  0.16866789770678275  0.9683238614292832  0.12187799146384036  1.0000
  H   H32       1.0  0.3313401796001613  0.5316761330725938  0.6218742251886551  1.0000
  H   H33       1.0  0.18766897517416223  0.19418204786627055  0.9002504998235562  1.0000
  H   H34       1.0  0.31231225717326067  0.30580936370852635  0.4002578790528941  1.0000
  H   H35       1.0  0.8123319310853031  0.8058220471980347  0.0997496770393553  1.0000
  H   H36       1.0  0.6876845184744125  0.6941859911967894  0.5997422978141029  1.0000
  H   H37       1.0  0.22551433817538674  0.2162789801254234  0.8168918399369998  1.0000
  H   H38       1.0  0.2744873679028643  0.2837296708254513  0.31689850476563197  1.0000
  H   H39       1.0  0.774485480583536  0.7837213701995792  0.18310833692482475  1.0000
  H   H40       1.0  0.7255125939443869  0.7162656889484608  0.6831021537344595  1.0000
  C   C1        1.0  0.9039816640678138  0.4678833117576032  0.7574253317985578  1.0000
  C   C2        1.0  0.5960087155501198  0.032130741312656086  0.25742020505762037  1.0000
  C   C3        1.0  0.0960236587653753  0.5321195423706938  0.24258062480041073  1.0000
  C   C4        1.0  0.4039891473404038  0.967868358340574  0.7425857515667855  1.0000
  C   C5        1.0  0.8710905354861538  0.2939396916815298  0.7865990091903468  1.0000
  C   C6        1.0  0.628916722211585  0.20607572573223357  0.2866008739096769  1.0000
  C   C7        1.0  0.12891319455862058  0.7060631600020669  0.21339972271985624  1.0000
  C   C8        1.0  0.3710846896149249  0.7939246270281402  0.7134002662382313  1.0000
  C   C9        1.0  0.8247339404294391  0.17962791186157287  0.9627467371538215  1.0000
  C   C10       1.0  0.6752547768950234  0.3203618242479108  0.46274855906001006  1.0000
  C   C11       1.0  0.17526232956529242  0.8203711853505525  0.037254403013626786  1.0000
  C   C12       1.0  0.324744097451692  0.6796297907866844  0.5372520994389872  1.0000
  C   C13       1.0  0.7990564135313816  0.1540807418338019  0.8905619842348854  1.0000
  C   C14       1.0  0.7009301262862662  0.3459174999962825  0.3905636689597073  1.0000
  C   C15       1.0  0.20094253711737042  0.8459221025501334  0.10943819263430038  1.0000
  C   C16       1.0  0.29906824245045976  0.6540778573436865  0.6094369895470135  1.0000
  C   C17       1.0  0.34232277551992496  0.4355311391825083  0.8736455180872792  1.0000
  C   C18       1.0  0.15766191711524158  0.0644639378882843  0.37364382795143297  1.0000
  C   C19       1.0  0.6576721208190647  0.5644741943917709  0.1263541771561734  1.0000
  C   C20       1.0  0.8423412309745543  0.9355314267527886  0.6263563488890325  1.0000
  C   C21       1.0  0.17263101934871367  0.2763569989289607  0.8595274862182123  1.0000
  C   C22       1.0  0.3273592057272906  0.22364178571191215  0.3595301584503473  1.0000
  C   C23       1.0  0.8273679312356137  0.7236458454571277  0.14047413559005403  1.0000
  C   C24       1.0  0.6726395254666713  0.7763548198759338  0.6404714633494633  1.0000
  N   N1        1.0  0.9425076087486911  0.2900438137849761  0.8541120392930136  1.0000
  N   N2        1.0  0.5574915968301467  0.20995932465425673  0.3541149924310928  1.0000
  N   N3        1.0  0.05749489066425175  0.7099602837118437  0.14588717427055534  1.0000
  N   N4        1.0  0.44250836501710455  0.7900360351196551  0.6458856660689988  1.0000
  O   O1        1.0  0.935611392522375  0.596944357042403  0.7946075295273756  1.0000
  O   O2        1.0  0.5643857256468292  0.9030630109661854  0.2946042622477733  1.0000
  O   O3        1.0  0.06439957820354177  0.40305601031370486  0.2053883124707809  1.0000
  O   O4        1.0  0.43561373065486453  0.0969360911109476  0.7053949513209685  1.0000
  O   O5        1.0  0.8941277031264431  0.4790375077011289  0.6973506024967262  1.0000
  O   O6        1.0  0.6058578259503803  0.02098508472170829  0.19734680511622563  1.0000
  O   O7        1.0  0.10587566463289017  0.5209640957288642  0.3026433129495273  1.0000
  O   O8        1.0  0.3941424986117993  0.9790115232914612  0.8026490369206413  1.0000
  O   O9        1.0  0.9020480462512946  0.32824519110291556  0.9836284161939302  1.0000
  O   O10       1.0  0.5979561901165553  0.17174962451849038  0.4836309174275469  1.0000
  O   O11       1.0  0.0979532225083517  0.671760152207831  0.016371760669350994  1.0000
  O   O12       1.0  0.40204768290918463  0.8282482366176038  0.5163707043527309  1.0000
  O   O13       1.0  0.7657193642383644  0.0536917861555111  0.9987859826911173  1.0000
  O   O14       1.0  0.7342697643220788  0.44631053974759277  0.49879058109319613  1.0000
  O   O15       1.0  0.23428016832242085  0.9463185452723905  0.0012137125405331998  1.0000
  O   O16       1.0  0.26573555861848763  0.5536923143771162  0.5012129672739787  1.0000
  O   O17       1.0  0.2834654074706648  0.566397817504466  0.8936126096799337  1.0000
  O   O18       1.0  0.21652140577964463  0.9335967522993085  0.3936120196625266  1.0000
  O   O19       1.0  0.7165331806779063  0.433603778633035  0.10638756718888227  1.0000
  O   O20       1.0  0.7834757323896752  0.06639985085173089  0.606387675558473  1.0000
  O   O21       1.0  0.5383172393938551  0.425116630596321  0.866946430002798  1.0000
  O   O22       1.0  0.9616766914625925  0.07487780589345759  0.3669417564630918  1.0000
  O   O23       1.0  0.46168156825246603  0.5748912043358345  0.13305133864268726  1.0000
  O   O24       1.0  0.03832290792743002  0.9251163056325847  0.633057938743917  1.0000
  O   O25       1.0  0.08427059136185719  0.858792182598506  0.885606989637999  1.0000
  O   O26       1.0  0.4157295378140019  0.6412073733782718  0.3856000083303001  1.0000
  O   O27       1.0  0.9157299523544747  0.14121066422080017  0.11439415051727755  1.0000
  O   O28       1.0  0.5842679627696086  0.3587904780220724  0.6144016134765093  1.0000
  O   O29       1.0  0.6444726620668318  0.7291806994928222  0.962278708366739  1.0000
  O   O30       1.0  0.8555003753788809  0.770812181584162  0.4622764712988001  1.0000
  O   O31       1.0  0.3555270136037548  0.2708246413832712  0.03772098685681869  1.0000
  O   O32       1.0  0.14449654350744368  0.22917818276504676  0.5377208156819505  1.0000
