data_image0
_chemical_formula_structural       Cd2H36C32N8O16
_chemical_formula_sum              "Cd2 H36 C32 N8 O16"
_cell_length_a       8.370929058788843
_cell_length_b       10.352740649105375
_cell_length_c       11.252256673999472
_cell_angle_alpha    89.99956218567064
_cell_angle_beta     92.64664309462795
_cell_angle_gamma    90.00029941816692

_space_group_name_H-M_alt    "P 1"
_space_group_IT_number       1

loop_
  _space_group_symop_operation_xyz
  'x, y, z'

loop_
  _atom_site_type_symbol
  _atom_site_label
  _atom_site_symmetry_multiplicity
  _atom_site_fract_x
  _atom_site_fract_y
  _atom_site_fract_z
  _atom_site_occupancy
  Cd  Cd1       1.0  0.9999996009478879  2.0288105400001317e-08  0.9999989046011276  1.0000
  Cd  Cd2       1.0  0.4999994928766752  0.49999901287296206  0.4999990286593528  1.0000
  H   H1        1.0  0.015648572810192694  0.7549272300727026  0.576864281277359  1.0000
  H   H2        1.0  0.4843506551369359  0.2549316980732215  0.9231312634240039  1.0000
  H   H3        1.0  0.9843516085072823  0.24506886382015833  0.42313379667444184  1.0000
  H   H4        1.0  0.5156507767899045  0.7450711573095958  0.07686861397180417  1.0000
  H   H5        1.0  0.4485038577974549  0.7203614448567208  0.8226390122629963  1.0000
  H   H6        1.0  0.0514968061211576  0.22035250759113012  0.6773710225963467  1.0000
  H   H7        1.0  0.5515010508010645  0.27964237647589835  0.17735736932685595  1.0000
  H   H8        1.0  0.9484998435156842  0.779646484070319  0.3226287723071265  1.0000
  H   H9        1.0  0.7265938780548425  0.8860400056765627  0.8027118945085828  1.0000
  H   H10       1.0  0.7734038871094455  0.38604153887438736  0.6972841997737758  1.0000
  H   H11       1.0  0.27340388462153  0.11395898599821659  0.19728525275989733  1.0000
  H   H12       1.0  0.22659754481460223  0.6139603505806333  0.30271567762536467  1.0000
  H   H13       1.0  0.7214528463779575  0.7917002976323173  0.6713546732304321  1.0000
  H   H14       1.0  0.7785480154279159  0.2917036719400413  0.8286439134024872  1.0000
  H   H15       1.0  0.2785461393698156  0.2082957962580068  0.3286433840949527  1.0000
  H   H16       1.0  0.2214486617273579  0.708298217501216  0.17135677091145138  1.0000
  H   H17       1.0  0.7697523121806853  0.9859093829914941  0.549227393540981  1.0000
  H   H18       1.0  0.7302400246812654  0.48591540540743244  0.950767018341267  1.0000
  H   H19       1.0  0.23024547799458622  0.014085744968490096  0.4507706431613128  1.0000
  H   H20       1.0  0.2697566524712087  0.5140855181060218  0.049233665976004176  1.0000
  H   H21       1.0  0.8065433624022375  0.080390257211306  0.6785135434982406  1.0000
  H   H22       1.0  0.6934560308639703  0.5803922879387499  0.821478497945989  1.0000
  H   H23       1.0  0.19345679140797503  0.9196068026129534  0.32148364502975096  1.0000
  H   H24       1.0  0.3065454285785094  0.41961249929607186  0.17852226886361672  1.0000
  H   H25       1.0  0.4832353669229549  0.9517648898317931  0.6095819327748797  1.0000
  H   H26       1.0  0.016760353622970594  0.45177047028252565  0.8904166168941001  1.0000
  H   H27       1.0  0.5167636188303959  0.04823313591412409  0.39041612454383295  1.0000
  H   H28       1.0  0.9832387971935218  0.5482285213696371  0.10958677694409857  1.0000
  H   H29       1.0  0.5282310294834432  0.1185837336164326  0.5965824731812714  1.0000
  H   H30       1.0  0.9717652453580643  0.6185901774932177  0.903417247337259  1.0000
  H   H31       1.0  0.4717703198992639  0.8814142921381671  0.4034147359698037  1.0000
  H   H32       1.0  0.028237492167555396  0.3814088141665692  0.09658620838019517  1.0000
  H   H33       1.0  0.5264372166663166  0.04523251653871089  0.7396791771462642  1.0000
  H   H34       1.0  0.9735633891087544  0.5452343484482824  0.7603202431354104  1.0000
  H   H35       1.0  0.4735606010301794  0.9547664751288776  0.2603197489631625  1.0000
  H   H36       1.0  0.0264381253370942  0.454764643212556  0.23968230253515085  1.0000
  C   C1        1.0  0.19578614648484924  0.7713304216826768  0.7204752514515317  1.0000
  C   C2        1.0  0.3042203771522908  0.27132948271106727  0.7795211931450153  1.0000
  C   C3        1.0  0.8042164534932681  0.228669535922883  0.2795237571602342  1.0000
  C   C4        1.0  0.6957799142221647  0.7286724067342191  0.22048044246864854  1.0000
  C   C5        1.0  0.29413831349851455  0.8316355080856253  0.9395484460201826  1.0000
  C   C6        1.0  0.20586513693819336  0.3316369028953545  0.5604528566639642  1.0000
  C   C7        1.0  0.7058690962712861  0.1683654154542964  0.06045153451439228  1.0000
  C   C8        1.0  0.7941316227416664  0.6683630546795241  0.4395504959180555  1.0000
  C   C9        1.0  0.18357510753372708  0.8279758062888122  0.8320795492009051  1.0000
  C   C10       1.0  0.3164270161489924  0.3279777697625689  0.6679182004517868  1.0000
  C   C11       1.0  0.8164275199544447  0.1720241513131526  0.16792034883133058  1.0000
  C   C12       1.0  0.683572052145692  0.6720241196837761  0.3320825251149912  1.0000
  C   C13       1.0  0.9506424207443518  0.8503632604268818  0.736538234273979  1.0000
  C   C14       1.0  0.5493599480760453  0.35036712939206177  0.7634590783579751  1.0000
  C   C15       1.0  0.04935776058429301  0.14963669717718628  0.26345984366447783  1.0000
  C   C16       1.0  0.45064028828108593  0.6496357259882186  0.23654077841141682  1.0000
  C   C17       1.0  0.32602958649548713  0.7005931367167476  0.6670353839315479  1.0000
  C   C18       1.0  0.17398008761915662  0.20059118651719382  0.8329607217339682  1.0000
  C   C19       1.0  0.6739729859725755  0.29940682089239357  0.3329627352597483  1.0000
  C   C20       1.0  0.8260201212167502  0.7994078051554753  0.16703824562829075  1.0000
  C   C21       1.0  0.7773145333033258  0.8767385943023457  0.7146097213075391  1.0000
  C   C22       1.0  0.7226855967699138  0.3767411126755532  0.7853873678927596  1.0000
  C   C23       1.0  0.22268445244723983  0.12325846551577506  0.2853883360145061  1.0000
  C   C24       1.0  0.2773146395872176  0.6232617427047202  0.21461248887662512  1.0000
  C   C25       1.0  0.7359977380137509  0.9991189565680116  0.641940757245983  1.0000
  C   C26       1.0  0.764000708032988  0.49912202531385935  0.8580554453764504  1.0000
  C   C27       1.0  0.2640012752468693  0.0008781032465136996  0.35805818949653195  1.0000
  C   C28       1.0  0.23599958334425256  0.5008808300592306  0.14194619023388097  1.0000
  C   C29       1.0  0.5582075803914535  0.0303315991080524  0.646945810154399  1.0000
  C   C30       1.0  0.9417905756683922  0.5303373591646546  0.8530545612070949  1.0000
  C   C31       1.0  0.4417914603820137  0.9696664266306879  0.3530540260052532  1.0000
  C   C32       1.0  0.0582109112701872  0.4696625984275826  0.14694709503966405  1.0000
  N   N1        1.0  0.04844303562679639  0.7879307712369652  0.6625349575720347  1.0000
  N   N2        1.0  0.451562360855931  0.2879329012866307  0.8374604623027151  1.0000
  N   N3        1.0  0.9515571732063182  0.2120672545079003  0.3374640097935638  1.0000
  N   N4        1.0  0.548437930524102  0.7120709200142554  0.16254117330427675  1.0000
  N   N5        1.0  0.032513194422193685  0.8771527634956866  0.8386862347213079  1.0000
  N   N6        1.0  0.4674868497879032  0.37715930857668667  0.6613120234010876  1.0000
  N   N7        1.0  0.9674882099806369  0.12284526225172236  0.16131275327071384  1.0000
  N   N8        1.0  0.5325133865636431  0.6228416149479868  0.3386878333749691  1.0000
  O   O1        1.0  0.2487489519049717  0.8862778083830987  0.032057296239358386  1.0000
  O   O2        1.0  0.25125766521367865  0.38628281607560666  0.467942704433561  1.0000
  O   O3        1.0  0.751256066719833  0.11372118329614266  0.9679426430490492  1.0000
  O   O4        1.0  0.7487414030754278  0.6137171415151386  0.5320580211398889  1.0000
  O   O5        1.0  0.42989699165485723  0.7731933347533229  0.933684951440412  1.0000
  O   O6        1.0  0.0701072341501643  0.27319698278858334  0.5663141072810871  1.0000
  O   O7        1.0  0.5701115586784837  0.22681241843532965  0.06631327086295609  1.0000
  O   O8        1.0  0.9298930572187062  0.7268029748011101  0.4336875283392485  1.0000
  O   O9        1.0  0.310825528406241  0.6611643604116182  0.5623905265877481  1.0000
  O   O10       1.0  0.1891863090407853  0.1611664468653728  0.9376058926647414  1.0000
  O   O11       1.0  0.6891758484893203  0.3388346312671898  0.43760757198046446  1.0000
  O   O12       1.0  0.8108127592594842  0.8388373744365722  0.062394832895364474  1.0000
  O   O13       1.0  0.4564461837318846  0.6800015000079469  0.733813143152801  1.0000
  O   O14       1.0  0.04355633551432449  0.17999179808486324  0.7661874281168148  1.0000
  O   O15       1.0  0.5435540251012297  0.31999652573692566  0.2661858242127976  1.0000
  O   O16       1.0  0.9564403691537962  0.8200110572806023  0.23381414561425368  1.0000
