data_image0
_chemical_formula_structural       Cd3H12C12O18
_chemical_formula_sum              "Cd3 H12 C12 O18"
_cell_length_a       8.52944359759434
_cell_length_b       8.529423658334016
_cell_length_c       8.529389271146433
_cell_angle_alpha    89.379470172613
_cell_angle_beta     89.38002903637349
_cell_angle_gamma    89.37892682194261

_space_group_name_H-M_alt    "P 1"
_space_group_IT_number       1

loop_
  _space_group_symop_operation_xyz
  'x, y, z'

loop_
  _atom_site_type_symbol
  _atom_site_label
  _atom_site_symmetry_multiplicity
  _atom_site_fract_x
  _atom_site_fract_y
  _atom_site_fract_z
  _atom_site_occupancy
  Cd  Cd1       1.0  0.5000026048509696  0.9999979643325428  0.9999997954517496  1.0000
  Cd  Cd2       1.0  8.925135049005878e-07  0.5000032429298215  6.477379876901727e-06  1.0000
  Cd  Cd3       1.0  3.2803048383988874e-06  4.46573693579943e-06  0.5000009265330475  1.0000
  H   H1        1.0  0.2464199767446331  0.0678051038427654  0.8096369745898784  1.0000
  H   H2        1.0  0.8096408830687807  0.24641685873390157  0.06780492358986828  1.0000
  H   H3        1.0  0.0678112694113011  0.8096434140567579  0.24641889167355663  1.0000
  H   H4        1.0  0.7535842013453689  0.9321944810349405  0.1903633184981857  1.0000
  H   H5        1.0  0.190366869187848  0.7535816126186037  0.9322011894093546  1.0000
  H   H6        1.0  0.9321950222636133  0.1903702628072992  0.7535822944529327  1.0000
  H   H7        1.0  0.24500733021237409  0.1948788736953374  0.9494216287308175  1.0000
  H   H8        1.0  0.949422830650569  0.24500898137009824  0.19488430494156003  1.0000
  H   H9        1.0  0.1948890838181612  0.9494265121996006  0.24500941354743588  1.0000
  H   H10       1.0  0.754999259671159  0.8051172156347306  0.05057985552106459  1.0000
  H   H11       1.0  0.050581275282560484  0.7549988779791617  0.8051263988933925  1.0000
  H   H12       1.0  0.8051244133765891  0.05058022528640999  0.7549999752774355  1.0000
  C   C1        1.0  0.4498349476275649  0.6118141175633764  0.9899135049262493  1.0000
  C   C2        1.0  0.9899219105327789  0.4498428758821191  0.6118233956377066  1.0000
  C   C3        1.0  0.6118064793864875  0.9899179827363438  0.4498433211425663  1.0000
  C   C4        1.0  0.5501668833805198  0.3881806809509029  0.010074014043105699  1.0000
  C   C5        1.0  0.010077394149000395  0.5501719968809838  0.3881884424936429  1.0000
  C   C6        1.0  0.38819660832766806  0.0100780996933096  0.5501605685292359  1.0000
  C   C7        1.0  0.611425781937676  0.5492382415787915  0.00035273969712079807  1.0000
  C   C8        1.0  0.00035769321291209775  0.6114282547192431  0.5492475879494023  1.0000
  C   C9        1.0  0.54924851133093  0.00035354228260330066  0.611432542941742  1.0000
  C   C10       1.0  0.3885818759859774  0.4507613278807696  0.9996416313469961  1.0000
  C   C11       1.0  0.9996429005706488  0.3885819724922186  0.45077017038745026  1.0000
  C   C12       1.0  0.4507615583862616  0.9996425316293198  0.38856301926618636  1.0000
  O   O1        1.0  0.3876381416229577  0.7463652705945948  0.9767580279273176  1.0000
  O   O2        1.0  0.9767555169800061  0.38764101020927194  0.7463747022448002  1.0000
  O   O3        1.0  0.7463812253395687  0.9767568884677329  0.38763228836499747  1.0000
  O   O4        1.0  0.6123672635517607  0.25362841439447686  0.0232353109531971  1.0000
  O   O5        1.0  0.023243916885604704  0.6123680298005921  0.2536419240937136  1.0000
  O   O6        1.0  0.25363000675071845  0.02324156746662  0.6123679025902717  1.0000
  O   O7        1.0  0.7453252384033107  0.6109516320566398  0.00038054079917770314  1.0000
  O   O8        1.0  0.0003918528565022962  0.7453367850588818  0.6109651036915337  1.0000
  O   O9        1.0  0.6109581974166574  0.00037888081894980045  0.7453225285660849  1.0000
  O   O10       1.0  0.2546707506391143  0.3890455346792478  0.9996164177573732  1.0000
  O   O11       1.0  0.9996133086016104  0.2546793113846205  0.3890489573076222  1.0000
  O   O12       1.0  0.38905074707383147  0.9996184252911032  0.25468358397352375  1.0000
  O   O13       1.0  0.2635617456483886  0.08262361831091168  0.9237318960935639  1.0000
  O   O14       1.0  0.9237370837111883  0.26356229187269514  0.08262760349510498  1.0000
  O   O15       1.0  0.08262404016937101  0.9237344350252668  0.2635630160044329  1.0000
  O   O16       1.0  0.7364459345311828  0.9173795504901817  0.07627530961355689  1.0000
  O   O17       1.0  0.07627176628672319  0.7364432663903457  0.9173854031673655  1.0000
  O   O18       1.0  0.9173823806893749  0.0762734090855446  0.7364429583292135  1.0000
