data_image0
_chemical_formula_structural       Cd2H40C36N8O12
_chemical_formula_sum              "Cd2 H40 C36 N8 O12"
_cell_length_a       9.032750085734788
_cell_length_b       9.281547234676937
_cell_length_c       14.490269702745671
_cell_angle_alpha    75.53495157886447
_cell_angle_beta     81.02205030512104
_cell_angle_gamma    78.14608090188128

_space_group_name_H-M_alt    "P 1"
_space_group_IT_number       1

loop_
  _space_group_symop_operation_xyz
  'x, y, z'

loop_
  _atom_site_type_symbol
  _atom_site_label
  _atom_site_symmetry_multiplicity
  _atom_site_fract_x
  _atom_site_fract_y
  _atom_site_fract_z
  _atom_site_occupancy
  Cd  Cd1       1.0  0.12052597161377318  0.30534403024024925  0.029042686105064813  1.0000
  Cd  Cd2       1.0  0.8794804954087496  0.6946502430976053  0.9709574220328104  1.0000
  H   H1        1.0  0.6319350748898388  0.011683370625107195  0.43425686647511685  1.0000
  H   H2        1.0  0.3680710957092117  0.9883266734660552  0.5657399479419494  1.0000
  H   H3        1.0  0.5912751188332664  0.830530356650307  0.48757515967957926  1.0000
  H   H4        1.0  0.40872389418943555  0.1694822138690881  0.5124308946585783  1.0000
  H   H5        1.0  0.6404126750578526  0.9031006543405479  0.645017075658366  1.0000
  H   H6        1.0  0.3595846333021413  0.09690170565112059  0.354986015835017  1.0000
  H   H7        1.0  0.6243178857800372  0.8272631116764514  0.7694638981731712  1.0000
  H   H8        1.0  0.3756842610089278  0.17273012276923078  0.23053817981542568  1.0000
  H   H9        1.0  0.8796955327883111  0.08626457163099838  0.041201775375093085  1.0000
  H   H10       1.0  0.12030866350107056  0.9137229457204513  0.9587982987131691  1.0000
  H   H11       1.0  0.74281788994778  0.902073811378123  0.16006438510250828  1.0000
  H   H12       1.0  0.25718051020788124  0.0979217702547714  0.8399397325221823  1.0000
  H   H13       1.0  0.8844475458998815  0.05916747486884329  0.3838988739354008  1.0000
  H   H14       1.0  0.11554574361044707  0.9408529246290269  0.6160988332403079  1.0000
  H   H15       1.0  0.022557059446576502  0.23469890219170952  0.25406656583015047  1.0000
  H   H16       1.0  0.9774437077314818  0.7653099884557901  0.7459254402371585  1.0000
  H   H17       1.0  0.21824491640948201  0.36668908110869575  0.8023828537458753  1.0000
  H   H18       1.0  0.781764149506607  0.6333029396486366  0.19761945050999682  1.0000
  H   H19       1.0  0.35028041959153466  0.536624279308235  0.6698714387225448  1.0000
  H   H20       1.0  0.6497208133331825  0.46337461684213815  0.33013047252878636  1.0000
  H   H21       1.0  0.4824835547685851  0.7246856366828921  0.8835754294081182  1.0000
  H   H22       1.0  0.5175111425942802  0.27531901510645435  0.11642753108375804  1.0000
  H   H23       1.0  0.3385796591144937  0.5510720851788734  0.00739361672101779  1.0000
  H   H24       1.0  0.6614165378164358  0.4489302517680117  0.9926075151770133  1.0000
  H   H25       1.0  0.44987196290796316  0.8958614953119194  0.20779183327970685  1.0000
  H   H26       1.0  0.5501326371192904  0.10413049862822278  0.7922060744555564  1.0000
  H   H27       1.0  0.531524612473021  0.8799970480337433  0.09100531564512689  1.0000
  H   H28       1.0  0.4684782863868336  0.11999158907177325  0.9089933161980494  1.0000
  H   H29       1.0  0.3147605098025394  0.7603573998167548  0.0735854479301494  1.0000
  H   H30       1.0  0.6852369689590462  0.23963700290013173  0.9264155043767628  1.0000
  H   H31       1.0  0.42371466867242463  0.652698974745995  0.16724871902354002  1.0000
  H   H32       1.0  0.5762839416908179  0.3472953856537302  0.8327507510179258  1.0000
  H   H33       1.0  0.22568522334145066  0.7703861110496816  0.28528014474008495  1.0000
  H   H34       1.0  0.7743147202227832  0.2296138787099835  0.7147189475218523  1.0000
  H   H35       1.0  0.11413497692006304  0.8577884189734915  0.18951374491963685  1.0000
  H   H36       1.0  0.8858647610103105  0.14220591218147394  0.8104849312285294  1.0000
  H   H37       1.0  0.2091243758299512  0.5150763760194438  0.2652191846187435  1.0000
  H   H38       1.0  0.7908729048276159  0.4849192087134494  0.7347843501549248  1.0000
  H   H39       1.0  0.026121083427732117  0.6236033302854337  0.2843340845105401  1.0000
  H   H40       1.0  0.9738769810376767  0.3763944192936819  0.7156648724652611  1.0000
  C   C1        1.0  0.8793205842845992  0.07637443977770887  0.11774800430822548  1.0000
  C   C2        1.0  0.12067879374841087  0.9236221377577887  0.8822496414240177  1.0000
  C   C3        1.0  0.8020077285123222  0.973782720902143  0.18471323639442258  1.0000
  C   C4        1.0  0.1979929665835982  0.026219538282838087  0.815286785046936  1.0000
  C   C5        1.0  0.8020020313192262  0.9655306215624079  0.2822904253677692  1.0000
  C   C6        1.0  0.19799660620723358  0.0344773808615813  0.7177129767182534  1.0000
  C   C7        1.0  0.8812406823325317  0.061146060973221894  0.3087143988136204  1.0000
  C   C8        1.0  0.11875348527057379  0.9388619277059573  0.6912852951239542  1.0000
  C   C9        1.0  0.9579338621303463  0.15891037221041418  0.23746711520937677  1.0000
  C   C10       1.0  0.04205845461557799  0.8410952847815026  0.7625276248369488  1.0000
  C   C11       1.0  0.7230715396966475  0.8515149270460681  0.35573395844766503  1.0000
  C   C12       1.0  0.2769252036713255  0.1484771539559517  0.6442633111911816  1.0000
  C   C13       1.0  0.2757806030648311  0.4486439089441062  0.8180292970760021  1.0000
  C   C14       1.0  0.7242240085267825  0.5513549125443614  0.18197092086762012  1.0000
  C   C15       1.0  0.3504328518557926  0.5434786228296744  0.7437447911928955  1.0000
  C   C16       1.0  0.6495667156729895  0.4565236656000734  0.25625602414174853  1.0000
  C   C17       1.0  0.4254294403161226  0.6466641481745155  0.7654295119981709  1.0000
  C   C18       1.0  0.574565281253861  0.35334042518050507  0.23456931826073904  1.0000
  C   C19       1.0  0.424610661101987  0.6482259716644095  0.8619129555243175  1.0000
  C   C20       1.0  0.5753864652920555  0.3517775180537227  0.13808996494718426  1.0000
  C   C21       1.0  0.3451519586171655  0.5506384928172778  0.931697918268952  1.0000
  C   C22       1.0  0.6548476048770979  0.44936380868485754  0.06830358543786022  1.0000
  C   C23       1.0  0.4974396251464199  0.7533765751423684  0.6831103961846594  1.0000
  C   C24       1.0  0.5025575093166665  0.2466268884309882  0.31689114754252046  1.0000
  C   C25       1.0  0.33051796678256556  0.04250003016137069  0.09258117520739968  1.0000
  C   C26       1.0  0.6694873928454186  0.9574942070593124  0.9074162849629629  1.0000
  C   C27       1.0  0.4226295583874204  0.8918508358129954  0.13719061284218978  1.0000
  C   C28       1.0  0.5773735420717685  0.10814347296960848  0.8628091234869186  1.0000
  C   C29       1.0  0.34355206749186357  0.7579589723910586  0.14507536800957144  1.0000
  C   C30       1.0  0.6564476623694803  0.24203538490868223  0.8549246848829168  1.0000
  C   C31       1.0  0.19920434453067776  0.7588341148344853  0.21597463364336278  1.0000
  C   C32       1.0  0.8007940798321017  0.24116138836409814  0.7840253537483689  1.0000
  C   C33       1.0  0.13035697015218523  0.6157855503016305  0.2333426459818924  1.0000
  C   C34       1.0  0.8696433212058566  0.3842122322946579  0.7666595418124584  1.0000
  C   C35       1.0  0.08285661146585713  0.587468052401796  0.1439801211070915  1.0000
  C   C36       1.0  0.9171462989583503  0.4125274122520395  0.8560208209444509  1.0000
  N   N1        1.0  0.9565619980620496  0.16671010356722596  0.14368766397509353  1.0000
  N   N2        1.0  0.04343609867951414  0.8332875414327886  0.8563057860234337  1.0000
  N   N3        1.0  0.6527878452551975  0.8987149984678878  0.4352340428322776  1.0000
  N   N4        1.0  0.3472098905105767  0.10129862644363637  0.5647671273999961  1.0000
  N   N5        1.0  0.27114253579408404  0.45330030967327417  0.9105875565337057  1.0000
  N   N6        1.0  0.7288600026291974  0.5466974405782565  0.08941442021838236  1.0000
  N   N7        1.0  0.5967106960794413  0.8288988105327915  0.7015981408377384  1.0000
  N   N8        1.0  0.4032882938145619  0.1711001048899519  0.29840329308369457  1.0000
  O   O1        1.0  0.7275617437793898  0.7237030344025327  0.342155108909182  1.0000
  O   O2        1.0  0.2724316994552538  0.27631632687559465  0.6578475878935348  1.0000
  O   O3        1.0  0.4605156363452495  0.769708044256781  0.6004499103033039  1.0000
  O   O4        1.0  0.5394785191543007  0.23029998363956133  0.39955184875075384  1.0000
  O   O5        1.0  0.3250084412580918  0.1584734404941841  0.127274997054073  1.0000
  O   O6        1.0  0.6749938996003735  0.8415186250078718  0.8727251868399293  1.0000
  O   O7        1.0  0.26066657859507103  0.0522107557175318  0.021213512934508592  1.0000
  O   O8        1.0  0.7393421516307656  0.9477834329860144  0.9787836306724739  1.0000
  O   O9        1.0  0.025926501013160016  0.7020201503117675  0.08298604957740001  1.0000
  O   O10       1.0  0.9740788465112687  0.29797412612607826  0.9170134757094457  1.0000
  O   O11       1.0  0.0999075998696455  0.45044699863736065  0.13818769621403953  1.0000
  O   O12       1.0  0.9000945590228752  0.5495461965911587  0.8618123166580813  1.0000
