data_image0
_chemical_formula_structural       Zn8H28C36N44O16
_chemical_formula_sum              "Zn8 H28 C36 N44 O16"
_cell_length_a       9.764889854
_cell_length_b       9.760431846672994
_cell_length_c       20.206
_cell_angle_alpha    90.0
_cell_angle_beta     90.0
_cell_angle_gamma    95.1432568324347

_space_group_name_H-M_alt    "P 1"
_space_group_IT_number       1

loop_
  _space_group_symop_operation_xyz
  'x, y, z'

loop_
  _atom_site_type_symbol
  _atom_site_label
  _atom_site_symmetry_multiplicity
  _atom_site_fract_x
  _atom_site_fract_y
  _atom_site_fract_z
  _atom_site_occupancy
  Zn  Zn1       1.0  0.7500002312935905  0.750000016921895  0.0678422250816624  1.0000
  Zn  Zn2       1.0  0.2500003877316246  0.24999966274507557  0.4321374839156675  1.0000
  Zn  Zn3       1.0  0.2500003877316246  0.24999966274507557  0.9321577749183377  1.0000
  Zn  Zn4       1.0  0.7499992072164972  0.750000016921895  0.5678630109868337  1.0000
  Zn  Zn5       1.0  0.7500009994217435  0.2500006914317439  0.10949717905572952  1.0000
  Zn  Zn6       1.0  0.7500009994217435  0.2500006914317439  0.3903884984658035  1.0000
  Zn  Zn7       1.0  0.2499997117792816  0.750000016921895  0.8905023260417694  1.0000
  Zn  Zn8       1.0  0.2499997117792816  0.750000016921895  0.6096115015341965  1.0000
  H   H1        1.0  0.7740126424520142  0.9738761818172962  0.2949495199445735  1.0000
  H   H2        1.0  0.7259838160026035  0.5261248807131622  0.2949495199445735  1.0000
  H   H3        1.0  0.47377335910492485  0.2739639472855799  0.2050450361278848  1.0000
  H   H4        1.0  0.0262276007099445  0.22603743557790074  0.20504553103038603  1.0000
  H   H5        1.0  0.22598602059482426  0.0261245265363428  0.7050509749579348  1.0000
  H   H6        1.0  0.2740168030226116  0.4738747989538155  0.7050504800554265  1.0000
  H   H7        1.0  0.52622725992029  0.7260357323813906  0.7949549638721152  1.0000
  H   H8        1.0  0.9737720864139874  0.7739632727757311  0.794954468969614  1.0000
  H   H9        1.0  0.7499981831394037  0.750000016921895  0.3585365732950621  1.0000
  H   H10       1.0  0.2499994558303413  0.2500006914317439  0.1414629318024367  1.0000
  H   H11       1.0  0.2500034599628975  0.24999966274507557  0.641463426704938  1.0000
  H   H12       1.0  0.7500001391177803  0.7499989882352338  0.8585375631000716  1.0000
  H   H13       1.0  0.31987269016926223  0.5746737478529695  0.0158492526972154  1.0000
  H   H14       1.0  0.1801257093122146  0.9253262859908205  0.015848262892213  1.0000
  H   H15       1.0  0.07467704581823402  0.8198108087340827  0.4842032069682248  1.0000
  H   H16       1.0  0.42532237774032916  0.6801892251097073  0.4842032069682248  1.0000
  H   H17       1.0  0.6801279288559527  0.425325931814001  0.9841497574977752  1.0000
  H   H18       1.0  0.8198749097130001  0.0746733936761501  0.984151737107787  1.0000
  H   H19       1.0  0.9253225491298949  0.1801888709328878  0.5157962981292671  1.0000
  H   H20       1.0  0.5746773093836026  0.3198114832439245  0.5157962981292671  1.0000
  H   H21       1.0  0.4651246920308836  0.5782278602794548  0.0641547065228139  1.0000
  H   H22       1.0  0.03487286772511311  0.9217742309376646  0.0641532218153031  1.0000
  H   H23       1.0  0.07831362903851871  0.965116914867501  0.43588290606750496  1.0000
  H   H24       1.0  0.4216857945200375  0.534883118976289  0.43588290606750496  1.0000
  H   H25       1.0  0.5348760191701345  0.4217728480741769  0.9358452934771861  1.0000
  H   H26       1.0  0.9651267272230157  0.078225448729313  0.935846778184697  1.0000
  H   H27       1.0  0.921686058085406  0.0348837934861379  0.5641170939324951  1.0000
  H   H28       1.0  0.5783138926038873  0.46511758937734987  0.5641170939324951  1.0000
  C   C1        1.0  0.787791154218027  0.9910943392107967  0.1549628823121836  1.0000
  C   C2        1.0  0.7122103324462401  0.5089056946330004  0.1549628823121836  1.0000
  C   C3        1.0  0.49101408218106  0.2877627502056654  0.3450346431752962  1.0000
  C   C4        1.0  0.008988833612178804  0.21223760397115402  0.34503563298030576  1.0000
  C   C5        1.0  0.2122084407300946  0.008905340456181  0.8450371176878164  1.0000
  C   C6        1.0  0.2877882384247883  0.4910939850339773  0.8450371176878164  1.0000
  C   C7        1.0  0.508986536844148  0.7122369294613051  0.6549653568247038  1.0000
  C   C8        1.0  0.9910127173143194  0.7877610470091554  0.6549648619222026  1.0000
  C   C9        1.0  0.767600079288755  0.8696825669246806  0.20088686528753644  1.0000
  C   C10       1.0  0.7323963791658699  0.6303184956057777  0.20088686528753644  1.0000
  C   C11       1.0  0.36963780270466623  0.2675727170378934  0.2991106601999434  1.0000
  C   C12       1.0  0.1303639968356762  0.2324266084522648  0.2991111551024446  1.0000
  C   C13       1.0  0.23239755968099726  0.1303181414289583  0.7991126398099554  1.0000
  C   C14       1.0  0.2676012598038753  0.3696822127478612  0.7991131347124636  1.0000
  C   C15       1.0  0.6303627241447388  0.732425933942416  0.7008893398000567  1.0000
  C   C16       1.0  0.8696375540908221  0.7675720425280446  0.7008888448975555  1.0000
  C   C17       1.0  0.7645978246462307  0.8746007178685389  0.269927744234387  1.0000
  C   C18       1.0  0.7353975175554909  0.6253993159752582  0.2699282391368882  1.0000
  C   C19       1.0  0.37454889215235443  0.2645740954103317  0.2300687914480832  1.0000
  C   C20       1.0  0.12545318391541116  0.2354283161398101  0.2300692863505915  1.0000
  C   C21       1.0  0.23540074622479776  0.1253989617984388  0.730072255765613  1.0000
  C   C22       1.0  0.2646010533155376  0.37460036369171956  0.7300727506681213  1.0000
  C   C23       1.0  0.6254517268728605  0.7354255842566388  0.7699312085519168  1.0000
  C   C24       1.0  0.8745474351098038  0.7645713635271605  0.7699307136494086  1.0000
  C   C25       1.0  0.7499972512381206  0.7500010456085633  0.3045907156290184  1.0000
  C   C26       1.0  0.2500005720832377  0.250001720118405  0.1954127486885113  1.0000
  C   C27       1.0  0.2500014118087179  0.24999966274507557  0.6954097792734829  1.0000
  C   C28       1.0  0.7499990228648842  0.7499979595485655  0.804587746213997  1.0000
  C   C29       1.0  0.46941908771315605  0.7314466242376341  0.9972231020488992  1.0000
  C   C30       1.0  0.030579311768313702  0.7685534096061559  0.9972226071463908  1.0000
  C   C31       1.0  0.2314557925386964  0.9693756776593007  0.5028046124913388  1.0000
  C   C32       1.0  0.26854363101986684  0.5306243561844894  0.5028046124913388  1.0000
  C   C33       1.0  0.530581531312059  0.2685530554293365  0.0027759081460985006  1.0000
  C   C34       1.0  0.9694213072569013  0.2314462700608146  0.0027773928536092  1.0000
  C   C35       1.0  0.7685438945852354  0.0306250306943383  0.4971958824111624  1.0000
  C   C36       1.0  0.731456056104065  0.4693763521691423  0.4971953875086612  1.0000
  N   N1        1.0  0.7499991150406871  0.7499989882352338  0.1684336335741889  1.0000
  N   N2        1.0  0.2500003877316246  0.24999966274507557  0.3315594377907587  1.0000
  N   N3        1.0  0.2499993636545312  0.24999966274507557  0.831566366425811  1.0000
  N   N4        1.0  0.7500000469419703  0.7499979595485655  0.6684405622092413  1.0000
  N   N5        1.0  0.596566451048254  0.7919961500076624  0.0093521726219947  1.0000
  N   N6        1.0  0.903431031483457  0.7080049125227958  0.009351182816985201  1.0000
  N   N7        1.0  0.2920469120165379  0.0965340139873732  0.4906215975452852  1.0000
  N   N8        1.0  0.20795395562251437  0.4034663401894463  0.4906215975452852  1.0000
  N   N9        1.0  0.4034332360756707  0.20800455834597642  0.9906478273780053  1.0000
  N   N10       1.0  0.0965685634646647  0.2919947671441818  0.9906488171830149  1.0000
  N   N11       1.0  0.7079527751073867  0.9034666943662656  0.5093788973572231  1.0000
  N   N12       1.0  0.7920457315014175  0.5965343681641926  0.5093779075522136  1.0000
  N   N13       1.0  0.6225259456782339  0.8918281334420185  0.9622453726615845  1.0000
  N   N14       1.0  0.8774725609305706  0.6081729290884397  0.9622443828565751  1.0000
  N   N15       1.0  0.3918442066809007  0.12254538499060172  0.5377165198455884  1.0000
  N   N16       1.0  0.1081565687823485  0.3774539404995565  0.5377165198455884  1.0000
  N   N17       1.0  0.3774748576985942  0.1081736035982885  0.0377546273384155  1.0000
  N   N18       1.0  0.1225280580946446  0.39182675057853095  0.037755617143425  1.0000
  N   N19       1.0  0.6081565045201173  0.877455323363037  0.4622834801544116  1.0000
  N   N20       1.0  0.8918440502428666  0.6225457391674212  0.4622834801544116  1.0000
  N   N21       1.0  0.5174605276224113  0.8926027345005281  0.9234935167771923  1.0000
  N   N22       1.0  0.9825389108876762  0.6073972993432691  0.9234925269721899  1.0000
  N   N23       1.0  0.3925698528819055  0.0174989888529566  0.5765139067603684  1.0000
  N   N24       1.0  0.10742989850425032  0.4825003366371945  0.5765139067603684  1.0000
  N   N25       1.0  0.4825412076557  0.1073979738531108  0.0765064832228077  1.0000
  N   N26       1.0  0.0174617081375388  0.39260238032370864  0.0765074730278101  1.0000
  N   N27       1.0  0.6074298342420192  0.9825017195006822  0.42348609323963166  1.0000
  N   N28       1.0  0.8925707205209649  0.5174993430297761  0.42348609323963166  1.0000
  N   N29       1.0  0.418497312874706  0.7929384269925137  0.9437518558843935  1.0000
  N   N30       1.0  0.08150117878257392  0.7070626355379446  0.9437508660793839  1.0000
  N   N31       1.0  0.29289761370849016  0.9184978639106448  0.5562996139760443  1.0000
  N   N32       1.0  0.2071027417513562  0.5815011412464841  0.5562996139760443  1.0000
  N   N33       1.0  0.5815043302276023  0.20706125267445694  0.0562471543106042  1.0000
  N   N34       1.0  0.9184985083413579  0.2929380728156943  0.0562491339206161  1.0000
  N   N35       1.0  0.7071030053167249  0.081501815756333  0.443700880926457  1.0000
  N   N36       1.0  0.7928979694496688  0.4184995671071547  0.4437003860239558  1.0000
  N   N37       1.0  0.40393786084938194  0.6308770724647061  0.0346105117291913  1.0000
  N   N38       1.0  0.096060630807898  0.8691239900657521  0.0346095219241818  1.0000
  N   N39       1.0  0.1309018150333756  0.9038791977188011  0.4654345243986953  1.0000
  N   N40       1.0  0.3690976085251876  0.5961208361249888  0.4654345243986953  1.0000
  N   N41       1.0  0.5960636900771163  0.3691215785156032  0.9653884984657992  1.0000
  N   N42       1.0  0.9039390563160337  0.1308767182878867  0.965389983173317  1.0000
  N   N43       1.0  0.869097872090556  0.0961215106348376  0.5345654756013047  1.0000
  N   N44       1.0  0.6309010545216509  0.4038798722286501  0.5345654756013047  1.0000
  O   O1        1.0  0.8154133070463416  0.9671022801303479  0.094767890725528  1.0000
  O   O2        1.0  0.6845920915746717  0.5328956963401197  0.0947673958230197  1.0000
  O   O3        1.0  0.46703582207076966  0.3154488230989969  0.4052207265168732  1.0000
  O   O4        1.0  0.0329682099753654  0.1845525597644837  0.4052212214193815  1.0000
  O   O5        1.0  0.1845901998585262  0.0328953421633003  0.905232109274472  1.0000
  O   O6        1.0  0.3154085274505363  0.46710398332685793  0.9052326041769805  1.0000
  O   O7        1.0  0.5329658210315315  0.6845508565679737  0.5947792734831268  1.0000
  O   O8        1.0  0.9670324090498497  0.8154471199024869  0.5947787785806185  1.0000
  O   O9        1.0  0.7730182582884169  0.1086395986573905  0.1792818964663994  1.0000
  O   O10       1.0  0.7269816002250734  0.39136075551942895  0.17928288627140182  1.0000
  O   O11       1.0  0.6084996114950271  0.2729548056675242  0.3207072156785102  1.0000
  O   O12       1.0  0.8915030427223127  0.22704246244929752  0.3207077105810185  1.0000
  O   O13       1.0  0.2269792885055182  0.8913600810095872  0.8207171137285982  1.0000
  O   O14       1.0  0.2730180868988583  0.6086399528342028  0.8207176086310994  1.0000
  O   O15       1.0  0.39150091535437775  0.7270438453127852  0.679293279223991  1.0000
  O   O16       1.0  0.10849860037998839  0.7729572172176731  0.6792917945164803  1.0000
