data_image0
_chemical_formula_structural       Zn2H24C32N2O10
_chemical_formula_sum              "Zn2 H24 C32 N2 O10"
_cell_length_a       7.6372853888302545
_cell_length_b       8.846930270157984
_cell_length_c       10.624897350301765
_cell_angle_alpha    88.49253565811316
_cell_angle_beta     80.30422741059952
_cell_angle_gamma    85.0424056023759

_space_group_name_H-M_alt    "P 1"
_space_group_IT_number       1

loop_
  _space_group_symop_operation_xyz
  'x, y, z'

loop_
  _atom_site_type_symbol
  _atom_site_label
  _atom_site_symmetry_multiplicity
  _atom_site_fract_x
  _atom_site_fract_y
  _atom_site_fract_z
  _atom_site_occupancy
  Zn  Zn1       1.0  0.1183102066637929  0.5126778582254304  0.5935058640655412  1.0000
  Zn  Zn2       1.0  0.8816896837264847  0.4873227930507441  0.4064944319141118  1.0000
  H   H1        1.0  0.6671905508747712  0.8246728119548977  0.7961001402771755  1.0000
  H   H2        1.0  0.3328069366479837  0.17532554503799963  0.2039004920102911  1.0000
  H   H3        1.0  0.4227573063434846  0.797795448046557  0.5955453096520811  1.0000
  H   H4        1.0  0.5772428369482084  0.20220293539522063  0.4044540619969935  1.0000
  H   H5        1.0  0.5195677324830186  0.019296286351355704  0.877078785001778  1.0000
  H   H6        1.0  0.48043506316207646  0.9807021208434252  0.12292120884943357  1.0000
  H   H7        1.0  0.2880723320084542  0.18183743302047622  0.014158342549741597  1.0000
  H   H8        1.0  0.7119288871201803  0.8181632321541059  0.985840852400585  1.0000
  H   H9        1.0  0.9747373559288446  0.2034004114728489  0.9752251531530475  1.0000
  H   H10       1.0  0.025265190230378168  0.796600266252206  0.024773882188213688  1.0000
  H   H11       1.0  0.12699979968864028  0.9056769362880318  0.6542324967645425  1.0000
  H   H12       1.0  0.8730014194399942  0.09432372888655041  0.345766698185784  1.0000
  H   H13       1.0  0.6745749734874521  0.09512848598473773  0.6747217743004156  1.0000
  H   H14       1.0  0.3254247913060055  0.9048732998826028  0.32527851313439266  1.0000
  H   H15       1.0  0.8843335206646684  0.0093727765884211  0.6043764574759007  1.0000
  H   H16       1.0  0.11566504440279603  0.9906278634852228  0.3956230566925498  1.0000
  H   H17       1.0  0.4811873648784584  0.3865811740512158  0.6375245541912307  1.0000
  H   H18       1.0  0.518812396499456  0.6134206091202474  0.36247761608410656  1.0000
  H   H19       1.0  0.6592111542479628  0.3785535796625226  0.8124159497610747  1.0000
  H   H20       1.0  0.3407880353880728  0.6214413847594074  0.18758548997212185  1.0000
  H   H21       1.0  0.2052722048935323  0.6168173441122278  0.04648616764519178  1.0000
  H   H22       1.0  0.7947264823552088  0.3831821586743729  0.9535152379086325  1.0000
  H   H23       1.0  0.04913244664817281  0.619403920400849  0.8585964223794273  1.0000
  H   H24       1.0  0.9508674420343297  0.3805967295273832  0.1414048150204934  1.0000
  C   C1        1.0  0.7523440422367287  0.6795998970435378  0.6331361081934048  1.0000
  C   C2        1.0  0.2476559754581444  0.32039962098941294  0.3668632549108253  1.0000
  C   C3        1.0  0.6224606023355718  0.7872357834889102  0.710810721606677  1.0000
  C   C4        1.0  0.3775382139255399  0.21276258740239481  0.28918880965145627  1.0000
  C   C5        1.0  0.46348245379923  0.840333183382761  0.6809844594790632  1.0000
  C   C6        1.0  0.5365188909262315  0.15966634720066253  0.31901474401610125  1.0000
  C   C7        1.0  0.33671903587307384  0.9485104239786039  0.7577460878787008  1.0000
  C   C8        1.0  0.6632823088523877  0.05148910660481221  0.24225311561646376  1.0000
  C   C9        1.0  0.38300024232839996  0.028777923332164307  0.8585051671304594  1.0000
  C   C10       1.0  0.6170011075203803  0.9712216112950715  0.14149121210390794  1.0000
  C   C11       1.0  0.25325545570718316  0.12074403549382852  0.93540895007105  1.0000
  C   C12       1.0  0.7467457668370016  0.8792566323766382  0.06458836203874797  1.0000
  C   C13       1.0  0.07819133097930119  0.1361747750251183  0.9129349107876902  1.0000
  C   C14       1.0  0.9218085594109764  0.8638258762510562  0.08706538519196268  1.0000
  C   C15       1.0  0.032973627236344796  0.0632841995427498  0.8092741155169704  1.0000
  C   C16       1.0  0.9670262665694834  0.9367164544293018  0.19072429762214677  1.0000
  C   C17       1.0  0.16093099623272877  0.9691815916879706  0.7320564024612252  1.0000
  C   C18       1.0  0.8390702246036807  0.030819074834553806  0.2679418510688336  1.0000
  C   C19       1.0  0.8185387654414027  0.1017716732449045  0.6675413184686931  1.0000
  C   C20       1.0  0.1814624536872315  0.8982289919296776  0.3324578764816337  1.0000
  C   C21       1.0  0.8689399000640917  0.25366913646781347  0.6062446426847145  1.0000
  C   C22       1.0  0.13106276998417596  0.7463304053181404  0.3937553426216596  1.0000
  C   C23       1.0  0.42589261276913953  0.4364491583753038  0.7299333986258887  1.0000
  C   C24       1.0  0.5741070281352735  0.5635537634311446  0.27006593884380686  1.0000
  C   C25       1.0  0.524044617568066  0.4325026061691376  0.829045016738277  1.0000
  C   C26       1.0  0.47595684933867227  0.5674957871272356  0.17095607814226807  1.0000
  C   C27       1.0  0.4494186547516178  0.49932595046978195  0.9464048984630506  1.0000
  C   C28       1.0  0.5505801580939433  0.5006724177256459  0.05359651563561837  1.0000
  C   C29       1.0  0.2734121684125199  0.5651054348641794  0.9578722030050099  1.0000
  C   C30       1.0  0.7265879697558545  0.434892944533786  0.042129992904861496  1.0000
  C   C31       1.0  0.18436365954147496  0.5663897473980627  0.8543364978312125  1.0000
  C   C32       1.0  0.815634902110446  0.43361088997969693  0.1456648991777669  1.0000
  N   N1        1.0  0.2593832183709777  0.5041700970315617  0.7416024832840264  1.0000
  N   N2        1.0  0.7406189475822275  0.4958339817711206  0.2583984092632363  1.0000
  O   O1        1.0  0.7132970681941019  0.6248790188795824  0.5322242615547523  1.0000
  O   O2        1.0  0.2867029495007713  0.3751204991533683  0.4677751015494777  1.0000
  O   O3        1.0  0.8994384737226894  0.6494224414668113  0.67523925872414  1.0000
  O   O4        1.0  0.1005602169416022  0.3505770640156669  0.3247602639891483  1.0000
  O   O5        1.0  0.8560824924244842  0.0833239279751368  0.7942488760938599  1.0000
  O   O6        1.0  0.14391740138134415  0.9166767259969149  0.20574953704525709  1.0000
  O   O7        1.0  0.9729345572478036  0.3266441012471121  0.6571992032439267  1.0000
  O   O8        1.0  0.027069441538827694  0.6733554544372495  0.34279968103311376  1.0000
  O   O9        1.0  0.7998731646180061  0.29192535548607174  0.5078569393217336  1.0000
  O   O10       1.0  0.2001253970339149  0.7080752818916951  0.49214445768724585  1.0000
