data_image0
_chemical_formula_structural       Cd2H20C8O18
_chemical_formula_sum              "Cd2 H20 C8 O18"
_cell_length_a       5.961859257134814
_cell_length_b       7.2951494631097225
_cell_length_c       11.06920846039185
_cell_angle_alpha    89.99908672722935
_cell_angle_beta     90.00026176772047
_cell_angle_gamma    119.41314487924052

_space_group_name_H-M_alt    "P 1"
_space_group_IT_number       1

loop_
  _space_group_symop_operation_xyz
  'x, y, z'

loop_
  _atom_site_type_symbol
  _atom_site_label
  _atom_site_symmetry_multiplicity
  _atom_site_fract_x
  _atom_site_fract_y
  _atom_site_fract_z
  _atom_site_occupancy
  Cd  Cd1       1.0  0.503996084213057  0.9998402423786173  0.2640026263907913  1.0000
  Cd  Cd2       1.0  0.49599693706871767  0.00014910067512370598  0.7640141751706153  1.0000
  H   H1        1.0  0.2998538256539475  0.5505582740261942  0.40121126655851924  1.0000
  H   H2        1.0  0.7001478417328572  0.44945459102422797  0.9012090758138385  1.0000
  H   H3        1.0  0.6830008936639943  0.42552820695907195  0.4142190840440422  1.0000
  H   H4        1.0  0.3170280483314727  0.5744554050915553  0.9142166691050662  1.0000
  H   H5        1.0  0.22601475190374737  0.0737167379444301  0.0700294871161873  1.0000
  H   H6        1.0  0.773913607811039  0.9263430721719386  0.5700309371606522  1.0000
  H   H7        1.0  0.024732014705819053  0.8244346709051983  0.0871711698021969  1.0000
  H   H8        1.0  0.9752744732575211  0.1755962318337865  0.5871699352963944  1.0000
  H   H9        1.0  0.9787344316560435  0.025635592382009492  0.2293957578758068  1.0000
  H   H10       1.0  0.02125397288375539  0.9743583379057836  0.7293848373385501  1.0000
  H   H11       1.0  0.9809933645543865  0.009404261446768208  0.36906369147445167  1.0000
  H   H12       1.0  0.018982374980659068  0.9905695415610934  0.8690530475538409  1.0000
  H   H13       1.0  0.21899263287701842  0.8365954936581517  0.48026851130641296  1.0000
  H   H14       1.0  0.7810142155694563  0.16340264917703703  0.9802742487555847  1.0000
  H   H15       1.0  0.35359595232944224  0.07812613359440229  0.4820112372312765  1.0000
  H   H16       1.0  0.6463989933116495  0.9218683910317155  0.9820240942844904  1.0000
  H   H17       1.0  0.2520926045336155  0.3488409577957583  0.24948383163405913  1.0000
  H   H18       1.0  0.7479068404603096  0.651143063138221  0.7494676577635174  1.0000
  H   H19       1.0  0.8233419663410615  0.6602662726194594  0.266322338785649  1.0000
  H   H20       1.0  0.17667184196530172  0.33973666410448544  0.7663153890167679  1.0000
  C   C1        1.0  0.3843360960055549  0.5890556801150169  0.1149465998709331  1.0000
  C   C2        1.0  0.6156519778925542  0.4109215869583452  0.6149477108038823  1.0000
  C   C3        1.0  0.41158887261067184  0.509538557498459  0.2376388506911411  1.0000
  C   C4        1.0  0.5884083757723246  0.49044895602867894  0.7376343421332904  1.0000
  C   C5        1.0  0.6697111955252595  0.5011285786043729  0.2425188200086126  1.0000
  C   C6        1.0  0.3303028715308968  0.49886793251290135  0.7425102643497041  1.0000
  C   C7        1.0  0.7359258361937219  0.4426759868699717  0.1198071773052831  1.0000
  C   C8        1.0  0.2641071651599347  0.55733476842655  0.6198059845851205  1.0000
  O   O1        1.0  0.47251692546404184  0.7873168383518844  0.1015211689469311  1.0000
  O   O2        1.0  0.5274401024653984  0.21266358114193204  0.6015374379700518  1.0000
  O   O3        1.0  0.28609203132418776  0.4547931211052259  0.031671925478804  1.0000
  O   O4        1.0  0.713919545131276  0.545180499325987  0.5316612432826133  1.0000
  O   O5        1.0  0.4015321224943805  0.6396075882673171  0.3315291892414294  1.0000
  O   O6        1.0  0.5984938330983168  0.3603921114556242  0.8315288848554161  1.0000
  O   O7        1.0  0.6549428759612963  0.35518276087796596  0.3305642466921839  1.0000
  O   O8        1.0  0.3450633353753503  0.6448019940489189  0.8305614403089195  1.0000
  O   O9        1.0  0.6776776336293082  0.25177169941912325  0.1028805455826998  1.0000
  O   O10       1.0  0.32235174247490045  0.7482435806020931  0.6028792470907902  1.0000
  O   O11       1.0  0.8387447361307566  0.5847955191862582  0.0396327663036118  1.0000
  O   O12       1.0  0.16127949648874554  0.41522965444736565  0.5396292729423493  1.0000
  O   O13       1.0  0.13178500455714467  0.9641901196304231  0.1299007850625244  1.0000
  O   O14       1.0  0.8682101888292237  0.03584652039791789  0.6299053289499028  1.0000
  O   O15       1.0  0.913997843001816  0.062276992719070286  0.3042796584464327  1.0000
  O   O16       1.0  0.08599162306497014  0.9377107578013122  0.8042659364876529  1.0000
  O   O17       1.0  0.24048754922139176  0.9562700424657178  0.4279930720158021  1.0000
  O   O18       1.0  0.7595087014376104  0.04372333231648182  0.9280020139329963  1.0000
