data_image0
_chemical_formula_structural       Zn2H36C72N4O20
_chemical_formula_sum              "Zn2 H36 C72 N4 O20"
_cell_length_a       9.727362421685548
_cell_length_b       10.84988560609785
_cell_length_c       27.829318175859424
_cell_angle_alpha    89.1284406633681
_cell_angle_beta     90.78893659752062
_cell_angle_gamma    86.96266378181167

_space_group_name_H-M_alt    "P 1"
_space_group_IT_number       1

loop_
  _space_group_symop_operation_xyz
  'x, y, z'

loop_
  _atom_site_type_symbol
  _atom_site_label
  _atom_site_symmetry_multiplicity
  _atom_site_fract_x
  _atom_site_fract_y
  _atom_site_fract_z
  _atom_site_occupancy
  Zn  Zn1       1.0  0.622320195857007  0.4741487284830653  0.5010050665377862  1.0000
  Zn  Zn2       1.0  0.3341137824228396  0.496580072292069  0.502970047755511  1.0000
  H   H1        1.0  0.6820244722338629  0.7503747273563308  0.1285308290017753  1.0000
  H   H2        1.0  0.36282087210106784  0.7540904560315769  0.7307721451790172  1.0000
  H   H3        1.0  0.6666743521514746  0.7792814364614532  0.039688931705946104  1.0000
  H   H4        1.0  0.2690669544463518  0.5515423913195648  0.35112095128987875  1.0000
  H   H5        1.0  0.2341384128704432  0.30028930651121044  0.11799739689915613  1.0000
  H   H6        1.0  0.3240831163179648  0.295104072507641  0.871684874691347  1.0000
  H   H7        1.0  0.2237665324121565  0.3195922444008446  0.028610006117617107  1.0000
  H   H8        1.0  0.2651425227511979  0.09954267184335919  0.4856200880642661  1.0000
  H   H9        1.0  0.5691960923833363  0.0731699797299115  0.518572742628763  1.0000
  H   H10       1.0  0.29590278868373326  0.8677783251041046  0.5004757370568174  1.0000
  H   H11       1.0  0.8621473998642768  0.5545433042558018  0.4911123777728435  1.0000
  H   H12       1.0  0.12697041381811397  0.3682040079098243  0.44940384739896916  1.0000
  H   H13       1.0  0.06454597242019838  0.5372762060236554  0.5278805508538158  1.0000
  H   H14       1.0  0.6758142103999489  0.26520132287497233  0.3761535823358529  1.0000
  H   H15       1.0  0.15881851991967008  0.6340934697136194  0.28562194960800014  1.0000
  H   H16       1.0  0.4041863824560465  0.21198635088560996  0.9985405740686633  1.0000
  H   H17       1.0  0.7403241366372484  0.3368501312830007  0.6801757952206202  1.0000
  H   H18       1.0  0.511470625226039  0.23660615785637162  0.7306485378923359  1.0000
  H   H19       1.0  0.6213861362822115  0.07593444576968271  0.7855103129954843  1.0000
  H   H20       1.0  0.7860163639512621  0.13457986836547056  0.8489181027658222  1.0000
  H   H21       1.0  0.8491452643628463  0.3543102413568775  0.8553299512731629  1.0000
  H   H22       1.0  0.7422603036677629  0.5141609980317768  0.7997231303210629  1.0000
  H   H23       1.0  0.8363801479337026  0.5288176343327323  0.2645570627911483  1.0000
  H   H24       1.0  0.024937109699536095  0.4493774577421235  0.21184558731976474  1.0000
  H   H25       1.0  0.9993944394754166  0.2558919290189722  0.16661003891167075  1.0000
  H   H26       1.0  0.7832140845681508  0.14284667855920932  0.17338419271467134  1.0000
  H   H27       1.0  0.5947058403094517  0.2235583590246293  0.22555920811375785  1.0000
  H   H28       1.0  0.6921705527430432  0.8300019982625956  0.4371869472819443  1.0000
  H   H29       1.0  0.004089566292123001  0.20463435760202486  0.4230770690592963  1.0000
  H   H30       1.0  0.9893418032225867  0.9788317524665688  0.43450386238306765  1.0000
  H   H31       1.0  0.8874347006364187  0.8950429953617914  0.5090970219348209  1.0000
  H   H32       1.0  0.79541955804374  0.038302619778093606  0.5715013730507865  1.0000
  H   H33       1.0  0.8053835869640408  0.26389828763323214  0.5597983509644991  1.0000
  H   H34       1.0  0.31167233286267765  0.8386051948672563  0.6570286462618286  1.0000
  H   H35       1.0  0.4827739840755783  0.9421836745561412  0.8497338028467214  1.0000
  H   H36       1.0  0.4562478368557734  0.9774260880790354  0.9525179678304954  1.0000
  C   C1        1.0  0.4898967564648445  0.7162765782801018  0.47866348452743085  1.0000
  C   C2        1.0  0.4663371036017736  0.44960396163411787  0.4080334569871767  1.0000
  C   C3        1.0  0.45784329580708766  0.2528538447535739  0.5138728249745413  1.0000
  C   C4        1.0  0.4921547677249902  0.5352641134244538  0.5930123593706897  1.0000
  C   C5        1.0  0.5442847544420032  0.5971093612186779  0.18329699708905886  1.0000
  C   C6        1.0  0.38788310896210015  0.4219453639206137  0.1785619960408057  1.0000
  C   C7        1.0  0.3574819832199054  0.5346967463224602  0.2804441228663067  1.0000
  C   C8        1.0  0.3569272812089892  0.5175664430828989  0.3302260511144013  1.0000
  C   C9        1.0  0.5856577075682949  0.4162163982859965  0.32895436324557903  1.0000
  C   C10       1.0  0.5880633600918941  0.4302699945139352  0.27838125594229984  1.0000
  C   C11       1.0  0.47301912423500875  0.4887400312250351  0.2551793622153512  1.0000
  C   C12       1.0  0.4550354068188297  0.5310644273643917  0.10279636460604284  1.0000
  C   C13       1.0  0.5380674956509068  0.6084772128562934  0.13010714317098865  1.0000
  C   C14       1.0  0.6148653322481934  0.6951097557400558  0.10698662076733001  1.0000
  C   C15       1.0  0.37939522280415616  0.4399438984261934  0.1257932517045859  1.0000
  C   C16       1.0  0.46862391584612334  0.4583141574437378  0.35430999981553424  1.0000
  C   C17       1.0  0.4948327464745716  0.5558696639574877  0.6467353502794424  1.0000
  C   C18       1.0  0.4903695345452234  0.6668523421769238  0.9781683960912562  1.0000
  C   C19       1.0  0.3901579247095269  0.459792401565359  0.9728382245997979  1.0000
  C   C20       1.0  0.4380601232113577  0.5688291273296856  0.950362837491227  1.0000
  C   C21       1.0  0.5115812762564929  0.7813961479071526  0.9544914277537944  1.0000
  C   C22       1.0  0.5138056228039075  0.787634903511176  0.9033998099808758  1.0000
  C   C23       1.0  0.4837916821550294  0.6852752273323405  0.8762038786796469  1.0000
  C   C24       1.0  0.4360463941339461  0.5787778657360434  0.8992020111915696  1.0000
  C   C25       1.0  0.38739529549781077  0.4816637537969585  0.8712864934547613  1.0000
  C   C26       1.0  0.38083095980313436  0.4922836619338541  0.8184770281926607  1.0000
  C   C27       1.0  0.5059846572340732  0.6870004980458119  0.8239320913085992  1.0000
  C   C28       1.0  0.4186047749676477  0.6735296169367969  0.7161360152729089  1.0000
  C   C29       1.0  0.4298695533087552  0.6627895924364752  0.6662435203052015  1.0000
  C   C30       1.0  0.5596277725732647  0.4676717929122702  0.6782800740099475  1.0000
  C   C31       1.0  0.5537817873759893  0.4811612473180349  0.7287057513663626  1.0000
  C   C32       1.0  0.47732978139378446  0.583271545211403  0.7469649107850175  1.0000
  C   C33       1.0  0.5153833503909055  0.6435310285756586  0.029132714137837506  1.0000
  C   C34       1.0  0.4480870241624401  0.5447973114455495  0.05180986475195232  1.0000
  C   C35       1.0  0.37467225323662495  0.4587585032338597  0.024579448274863604  1.0000
  C   C36       1.0  0.6039105284893295  0.7124388860520839  0.057044299771682516  1.0000
  C   C37       1.0  0.2954182390528998  0.3662368060848422  0.09904548097942013  1.0000
  C   C38       1.0  0.35963379931425976  0.35829172069388454  0.9436873115796235  1.0000
  C   C39       1.0  0.35252358401498896  0.37288824772284807  0.893382621107307  1.0000
  C   C40       1.0  0.29265276772441234  0.37595801687491814  0.048940781002620816  1.0000
  C   C41       1.0  0.3662285780913308  0.05267750217768  0.49211452812317463  1.0000
  C   C42       1.0  0.46895199757295086  0.11772770702379627  0.5096670498318616  1.0000
  C   C43       1.0  0.37982895565176017  0.9207921687739927  0.4866107458209471  1.0000
  C   C44       1.0  0.4886927932177941  0.8524703638668076  0.4690170571650186  1.0000
  C   C45       1.0  0.9235256625589157  0.3824245998438727  0.48630395822365113  1.0000
  C   C46       1.0  0.06586575142787149  0.4177615752047998  0.4764335355458301  1.0000
  C   C47       1.0  0.7035112135114899  0.3498065923338984  0.35618754222247173  1.0000
  C   C48       1.0  0.2352400375662853  0.6011957837203993  0.25840247239682423  1.0000
  C   C49       1.0  0.3551430187772482  0.23015071993631156  0.9625528369324601  1.0000
  C   C50       1.0  0.6425164323607645  0.3592209324381415  0.6597409911378026  1.0000
  C   C51       1.0  0.6201332927695234  0.3858518096071962  0.7613309591593947  1.0000
  C   C52       1.0  0.587339549028762  0.26171239865902146  0.7574973973700029  1.0000
  C   C53       1.0  0.6475760469301406  0.1720593216912363  0.7887368514985483  1.0000
  C   C54       1.0  0.7412091584746533  0.2050503263707526  0.8242206827263632  1.0000
  C   C55       1.0  0.7748395964804189  0.3282527903816615  0.8280930100927153  1.0000
  C   C56       1.0  0.7144368521536604  0.418328325864728  0.7970399162246695  1.0000
  C   C57       1.0  0.7042338329932464  0.38092981548480515  0.24862785653259328  1.0000
  C   C58       1.0  0.8256223183796577  0.4441713955219485  0.2446019423053088  1.0000
  C   C59       1.0  0.9309687473913968  0.3994878148276371  0.21493942168907415  1.0000
  C   C60       1.0  0.9160449923845848  0.2911889629894233  0.18927474095731614  1.0000
  C   C61       1.0  0.7952831748781292  0.22774345605070317  0.19315062389875956  1.0000
  C   C62       1.0  0.689386781714866  0.2726074376087695  0.22256739896901936  1.0000
  C   C63       1.0  0.6038977246865683  0.8989290202772228  0.4406919415895489  1.0000
  C   C64       1.0  0.9073667071584098  0.2490127026657944  0.4910482110393632  1.0000
  C   C65       1.0  0.9611164359247439  0.16803870154441114  0.4560038836633141  1.0000
  C   C66       1.0  0.9516559350373157  0.041287278516819015  0.46227075225282743  1.0000
  C   C67       1.0  0.8933948195454774  0.9945330402165455  0.5039976292280245  1.0000
  C   C68       1.0  0.8413315476395836  0.0745770852380119  0.5390183249951549  1.0000
  C   C69       1.0  0.8467030160527571  0.2017811813501993  0.5325587404829408  1.0000
  C   C70       1.0  0.375415260599091  0.7690411353662441  0.636492493942214  1.0000
  C   C71       1.0  0.5528922636897775  0.9051410533697111  0.8789295597766656  1.0000
  C   C72       1.0  0.4959629309349937  0.9039692228809456  0.9781410556650346  1.0000
  N   N1        1.0  0.4723583589048772  0.500724594040655  0.20361704483525506  1.0000
  N   N2        1.0  0.4542244905132478  0.5896344776548474  0.7978958111528913  1.0000
  N   N3        1.0  0.8291650521798812  0.46672070587775494  0.4951417194646482  1.0000
  N   N4        1.0  0.12451412756943368  0.4987113451873668  0.5013872886277115  1.0000
  O   O1        1.0  0.6060578987059059  0.6560405723519267  0.47778609557251184  1.0000
  O   O2        1.0  0.3749613291311178  0.6715267393164269  0.4880171374786358  1.0000
  O   O3        1.0  0.5828622823259835  0.4287520085651622  0.42890600746430624  1.0000
  O   O4        1.0  0.3509146115020059  0.46735326264779087  0.42814400182280826  1.0000
  O   O5        1.0  0.5722837133344426  0.3037136174795165  0.5190844946087766  1.0000
  O   O6        1.0  0.34003607590236834  0.30931989889617034  0.5100125205638408  1.0000
  O   O7        1.0  0.6054617601087884  0.5374695162339833  0.571270067030973  1.0000
  O   O8        1.0  0.3743461449854735  0.5153659935964895  0.5756489328973518  1.0000
  O   O9        1.0  0.6073548852535422  0.6670883920153942  0.20874212739845896  1.0000
  O   O10       1.0  0.568112595430229  0.7694439395379786  0.8037226153586449  1.0000
  O   O11       1.0  0.3269468475322981  0.3415062732293421  0.1998153425355512  1.0000
  O   O12       1.0  0.32093216501454686  0.4207881660949085  0.7928620746384712  1.0000
  O   O13       1.0  0.8224495693192395  0.3811099146887855  0.3545441770303556  1.0000
  O   O14       1.0  0.21289507902292826  0.6211031877730946  0.21544107245702557  1.0000
  O   O15       1.0  0.3103567585042483  0.14493791201496012  0.9393802507175838  1.0000
  O   O16       1.0  0.6102445089220581  0.2982806198283328  0.6252045845863209  1.0000
  O   O17       1.0  0.6039702510043767  0.9994941950596826  0.4199002161523779  1.0000
  O   O18       1.0  0.39829764382497496  0.7856320995822942  0.5938591710068979  1.0000
  O   O19       1.0  0.6535419927236887  0.9598040499346823  0.891983021331946  1.0000
  O   O20       1.0  0.5078553889486203  0.9290409096605075  0.020716042170484207  1.0000
