data_image0
_chemical_formula_structural       Al4H68C72N12O36
_chemical_formula_sum              "Al4 H68 C72 N12 O36"
_cell_length_a       6.7445654854925525
_cell_length_b       18.99202116992432
_cell_length_c       20.422275359982127
_cell_angle_alpha    99.56273870736386
_cell_angle_beta     90.17164493624284
_cell_angle_gamma    93.68452759159084

_space_group_name_H-M_alt    "P 1"
_space_group_IT_number       1

loop_
  _space_group_symop_operation_xyz
  'x, y, z'

loop_
  _atom_site_type_symbol
  _atom_site_label
  _atom_site_symmetry_multiplicity
  _atom_site_fract_x
  _atom_site_fract_y
  _atom_site_fract_z
  _atom_site_occupancy
  Al  Al1       1.0  0.7139042800719083  0.7535588103194185  0.7489331347852113  1.0000
  Al  Al2       1.0  0.262781495895311  0.25446817880780503  0.24665151184354525  1.0000
  Al  Al3       1.0  0.21290176653114665  0.7515785965066613  0.7462608451001386  1.0000
  Al  Al4       1.0  0.7614261195975301  0.24937756332652578  0.23926046722915115  1.0000
  H   H1        1.0  0.7772057800451934  0.469100294889465  0.9155973280822067  1.0000
  H   H2        1.0  0.2745073233766746  0.5303116878138283  0.06599606161640278  1.0000
  H   H3        1.0  0.2809059962896185  0.025615513813406196  0.5683461305302088  1.0000
  H   H4        1.0  0.7980471321866319  0.0099423798770815  0.44285304081674326  1.0000
  H   H5        1.0  0.19607891804260896  0.6931286330576256  0.9365109117743696  1.0000
  H   H6        1.0  0.7551882638778835  0.3412507746879355  0.07911574869346787  1.0000
  H   H7        1.0  0.706497055495774  0.8275264348446852  0.5648955367169748  1.0000
  H   H8        1.0  0.20118504746325533  0.1153238769149922  0.3786548296373126  1.0000
  H   H9        1.0  0.6366180463639708  0.49955332260689284  0.8168795741221756  1.0000
  H   H10       1.0  0.3970443891126935  0.5592029031854083  0.8805779837319175  1.0000
  H   H11       1.0  0.42952238986375596  0.6154984236285371  0.8178580021366029  1.0000
  H   H12       1.0  0.5563180278424085  0.6382911670017961  0.8937042866935414  1.0000
  H   H13       1.0  0.3885124096547798  0.5167925382696553  0.1615224897949972  1.0000
  H   H14       1.0  0.6363951500596131  0.4474918972354302  0.16850974865504745  1.0000
  H   H15       1.0  0.4770670768020011  0.3688437689182536  0.1479709350021778  1.0000
  H   H16       1.0  0.48936433634565896  0.4134076360650596  0.230160751108123  1.0000
  H   H17       1.0  0.1853246295035262  0.013587829358805002  0.6665073586106303  1.0000
  H   H18       1.0  0.9602804819057695  0.932713510477157  0.5917024376237662  1.0000
  H   H19       1.0  0.8892551189868954  0.9426974820100398  0.6772033622251427  1.0000
  H   H20       1.0  0.009537439498082294  0.8656604886661511  0.6414119619940023  1.0000
  H   H21       1.0  0.9678632484825087  0.07989551618675249  0.3983389524109313  1.0000
  H   H22       1.0  0.9212497428104955  0.19804395921234894  0.4564822327392334  1.0000
  H   H23       1.0  0.8186028864153342  0.21965385013898245  0.3831239353764602  1.0000
  H   H24       1.0  0.07111754406753329  0.203133077155023  0.3843440002777641  1.0000
  H   H25       1.0  0.3113210168944888  0.6770700899566081  0.03037860559924608  1.0000
  H   H26       1.0  0.2521085602585345  0.6786543441234584  0.14242265207884225  1.0000
  H   H27       1.0  0.07203486613947521  0.6054563846277006  0.12422566540943335  1.0000
  H   H28       1.0  0.016854058970807304  0.690776531342891  0.10654583602916286  1.0000
  H   H29       1.0  0.5997743953232516  0.47146842616846385  0.9900643575510057  1.0000
  H   H30       1.0  0.3896747536748392  0.3708804056484709  0.9626276894371271  1.0000
  H   H31       1.0  0.4460445089551471  0.3623687746740671  0.045694639519517494  1.0000
  H   H32       1.0  0.5799975478532389  0.3148535730924777  0.9784094066020683  1.0000
  H   H33       1.0  0.8226093164815824  0.8427547591226485  0.4702952810616309  1.0000
  H   H34       1.0  0.8034946018798409  0.8397747840074671  0.3596970828579131  1.0000
  H   H35       1.0  0.6620931279338009  0.9159183965910672  0.36718732090068323  1.0000
  H   H36       1.0  0.5462926059480608  0.8322526977770863  0.380112093315759  1.0000
  H   H37       1.0  0.1007523811573421  0.987882513518109  0.4840501572283741  1.0000
  H   H38       1.0  0.9110240836364911  0.08156168624701371  0.5380969588941084  1.0000
  H   H39       1.0  0.06968661295740472  0.1448533583953804  0.5049955098343304  1.0000
  H   H40       1.0  0.1607389756172282  0.10246398342005139  0.5681555675245561  1.0000
  H   H41       1.0  0.9070428903278299  0.7712391898217349  0.953461410684511  1.0000
  H   H42       1.0  0.3420589198881956  0.22983799893564344  0.044877426418231905  1.0000
  H   H43       1.0  0.4136501849525871  0.7589632167913579  0.5402312082882545  1.0000
  H   H44       1.0  0.4128111711807064  0.23626631678786228  0.4375429842708057  1.0000
  H   H45       1.0  0.18720059870013023  0.9536168691231667  0.736339355395799  1.0000
  H   H46       1.0  0.9079892895439841  0.0742729374402771  0.2914050831643705  1.0000
  H   H47       1.0  0.2699572852052583  0.5329024768920191  0.7656591195134437  1.0000
  H   H48       1.0  0.9102993300028784  0.4705058273104186  0.25362158156608666  1.0000
  H   H49       1.0  0.7275730094033649  0.8989595451494948  0.1411764882979013  1.0000
  H   H50       1.0  0.8278577411823563  0.776589066059252  0.08568549252787248  1.0000
  H   H51       1.0  0.00120520631801212  0.8283386066536738  0.14428922782319378  1.0000
  H   H52       1.0  0.036479823355726616  0.825633154839089  0.057936578171968664  1.0000
  H   H53       1.0  0.4594864725710083  0.04867655645764301  0.9070828090948169  1.0000
  H   H54       1.0  0.656168005160616  0.1056298966784013  0.003120873084064599  1.0000
  H   H55       1.0  0.6344178566330427  0.010099127176296498  0.9964628708494557  1.0000
  H   H56       1.0  0.48955212774138346  0.0646631593888856  0.054832337843833984  1.0000
  H   H57       1.0  0.6119154410777129  0.6157574001692082  0.3640158697630014  1.0000
  H   H58       1.0  0.7662767649758423  0.7155603718874204  0.44450858751392985  1.0000
  H   H59       1.0  0.9249760254623639  0.6434142021121617  0.42190521627578187  1.0000
  H   H60       1.0  0.7983447832288065  0.6526687702380939  0.4984702834649467  1.0000
  H   H61       1.0  0.5980610711728006  0.39990150272637237  0.6463570985193954  1.0000
  H   H62       1.0  0.6867384330911291  0.2959491185467512  0.5473747512506859  1.0000
  H   H63       1.0  0.8794709670343012  0.3494413687053211  0.5955091302963922  1.0000
  H   H64       1.0  0.8094016083656185  0.3698078466057808  0.5173961081756673  1.0000
  H   H65       1.0  0.46562106411700915  0.7871459246424733  0.8314000618915427  1.0000
  H   H66       1.0  0.48744160936949754  0.2167449516729221  0.160012963416861  1.0000
  H   H67       1.0  0.9506024541346322  0.712318999275695  0.6653640469270954  1.0000
  H   H68       1.0  0.0059843965789170015  0.3012337556035689  0.3202656391982117  1.0000
  C   C1        1.0  0.44509302683214713  0.6476633068046526  0.6613192001210776  1.0000
  C   C2        1.0  0.5359714620157234  0.35314705565463095  0.33283820451642027  1.0000
  C   C3        1.0  0.9780156532438937  0.8512270821006781  0.8389826539058731  1.0000
  C   C4        1.0  0.0038989674866272022  0.14571807416162844  0.1640057385272229  1.0000
  C   C5        1.0  0.4722630255522802  0.8378837194532593  0.6703091879237277  1.0000
  C   C6        1.0  0.5062037813652296  0.1643804037173737  0.3187214979218993  1.0000
  C   C7        1.0  0.9632701965548947  0.6702614993611675  0.8252938529871938  1.0000
  C   C8        1.0  0.0258231692996986  0.3375695199798158  0.16666276659697835  1.0000
  C   C9        1.0  0.8621512438561043  0.5204706823969901  0.9233160720482161  1.0000
  C   C10       1.0  0.155293337176694  0.4896498769930203  0.06982333941119373  1.0000
  C   C11       1.0  0.36695842908744686  0.9789083686926294  0.5638840594358853  1.0000
  C   C12       1.0  0.6625410835072286  0.0331732416066473  0.4302266928567846  1.0000
  C   C13       1.0  0.8351447063139759  0.5651280370708277  0.8767613810394436  1.0000
  C   C14       1.0  0.18031530257135836  0.44525304290061746  0.11756741819971238  1.0000
  C   C15       1.0  0.3494737147733176  0.9400614329195207  0.6156647978449072  1.0000
  C   C16       1.0  0.6818306886345482  0.08650140546921388  0.3905917272016665  1.0000
  C   C17       1.0  0.9639117449384075  0.6268170058269221  0.8799484055696565  1.0000
  C   C18       1.0  0.03255259079153921  0.3886915774994293  0.11863419716670619  1.0000
  C   C19       1.0  0.47627380965459326  0.8843017024426134  0.6169704883811917  1.0000
  C   C20       1.0  0.5097504755996242  0.11507139325743766  0.3691441778937658  1.0000
  C   C21       1.0  0.094624928663599  0.6453561715362709  0.9341503901302558  1.0000
  C   C22       1.0  0.8682243725661607  0.3837280426414863  0.07537148187611817  1.0000
  C   C23       1.0  0.6065120716732507  0.8702489683687982  0.5637484674573086  1.0000
  C   C24       1.0  0.3312805298898808  0.0938318310820847  0.39663870759379444  1.0000
  C   C25       1.0  0.0993421579716696  0.6061019693146715  0.9867301209529983  1.0000
  C   C26       1.0  0.8351205878545828  0.4322353093297053  0.03262191844245878  1.0000
  C   C27       1.0  0.611831661319144  0.9057249084582107  0.5081468973218648  1.0000
  C   C28       1.0  0.31365124574954717  0.047364992274232506  0.44298643744612315  1.0000
  C   C29       1.0  0.9849268089118228  0.5387189495091962  0.980291520934969  1.0000
  C   C30       1.0  0.9894534164948893  0.487222465989028  0.02786955574126892  1.0000
  C   C31       1.0  0.4876655716439018  0.9638425865499798  0.5083558129983244  1.0000
  C   C32       1.0  0.48467184376656297  0.012857469426663203  0.4587790663758399  1.0000
  C   C33       1.0  0.013823188502023208  0.907519153748261  0.9002609914575784  1.0000
  C   C34       1.0  0.011991812548714603  0.0769702779879609  0.11673841607471049  1.0000
  C   C35       1.0  0.45264283021082724  0.5820778506365515  0.6071694400601401  1.0000
  C   C36       1.0  0.5609025741723386  0.4158635996873841  0.38932814134206234  1.0000
  C   C37       1.0  0.8963936457017638  0.951331335079992  0.08358854879037379  1.0000
  C   C38       1.0  0.23348387093402323  0.008777213211096998  0.9532302385437248  1.0000
  C   C39       1.0  0.5797245137750265  0.5458314022975941  0.42591198436722516  1.0000
  C   C40       1.0  0.542161946226699  0.4569871096277396  0.5763340707800495  1.0000
  C   C41       1.0  0.9174801729293307  0.012930621865791598  0.13267998108715767  1.0000
  C   C42       1.0  0.17030432171333132  0.960364171866367  0.8966097840503905  1.0000
  C   C43       1.0  0.6122933248943312  0.48646103607612906  0.3765258354117975  1.0000
  C   C44       1.0  0.4782166859976302  0.5138783316420473  0.6247258947447277  1.0000
  C   C45       1.0  0.11399269380677171  0.076646758635782  0.058042723679136494  1.0000
  C   C46       1.0  0.9204102672357025  0.9015864060623997  0.9603651469351745  1.0000
  C   C47       1.0  0.5196726907409825  0.4056452994600974  0.4539190058410154  1.0000
  C   C48       1.0  0.4699091137825491  0.592445468824124  0.5414174513841274  1.0000
  C   C49       1.0  0.11191222313358651  0.01211073043239  0.0109699247041206  1.0000
  C   C50       1.0  0.975512800129586  0.9534288498056472  0.018161652680788617  1.0000
  C   C51       1.0  0.5321990180815205  0.4652393906114226  0.5073280534814727  1.0000
  C   C52       1.0  0.5231973642805698  0.5349028063802023  0.49165772886278336  1.0000
  C   C53       1.0  0.504339154606491  0.5925724998269785  0.8562106090961803  1.0000
  C   C54       1.0  0.49194187854685373  0.42175454362961773  0.1784510465026017  1.0000
  C   C55       1.0  0.0021333957111764196  0.9230739195844039  0.6414390619480413  1.0000
  C   C56       1.0  0.9249264697956008  0.18703383522173314  0.4018912668143527  1.0000
  C   C57       1.0  0.13573778359629776  0.6535404431031536  0.10680235312997866  1.0000
  C   C58       1.0  0.511742934567721  0.3654320117789425  0.9966694671793944  1.0000
  C   C59       1.0  0.6844088807872096  0.8672346771471666  0.3877786468004273  1.0000
  C   C60       1.0  0.0640436856176549  0.0937902418381995  0.5232304011823743  1.0000
  C   C61       1.0  0.737815971861501  0.8508732470512399  0.9596729097873717  1.0000
  C   C62       1.0  0.16961747601761348  0.1468674871072793  0.03472487108442119  1.0000
  C   C63       1.0  0.38746370567068317  0.657457730550135  0.5223135403144636  1.0000
  C   C64       1.0  0.41706169447684266  0.3370253188164726  0.46612413892282234  1.0000
  C   C65       1.0  0.25641542223648633  0.9697187378987947  0.8314656374638785  1.0000
  C   C66       1.0  0.8563281030129488  0.011532815895186798  0.20255322186106633  1.0000
  C   C67       1.0  0.42545078809480696  0.4982654820335241  0.6907180519265095  1.0000
  C   C68       1.0  0.7104651718340944  0.5015269405073468  0.3147435592929497  1.0000
  C   C69       1.0  0.9228976368623165  0.8263795128216528  0.09635814565988446  1.0000
  C   C70       1.0  0.5529687063275189  0.0590503856856941  0.0051466879451708995  1.0000
  C   C71       1.0  0.7854022786104834  0.6588802449001889  0.44633425381930175  1.0000
  C   C72       1.0  0.7524678398038133  0.3508427806617647  0.5619895755880364  1.0000
  N   N1        1.0  0.6765868633427773  0.5527052135498353  0.8301375690729244  1.0000
  N   N2        1.0  0.333650422588633  0.46637031845695287  0.16427256418690206  1.0000
  N   N3        1.0  0.19783102824982993  0.959675193327726  0.6630521434507202  1.0000
  N   N4        1.0  0.8758109456402182  0.11025947968907701  0.376045212973203  1.0000
  N   N5        1.0  0.22567229683049564  0.6346032331993855  0.04151631690259449  1.0000
  N   N6        1.0  0.6568820333750124  0.4249538957802414  0.9964984075543342  1.0000
  N   N7        1.0  0.7466198701403641  0.8833696774229621  0.45795487532924267  1.0000
  N   N8        1.0  0.12184048503870322  0.037015839037692885  0.4702610243698543  1.0000
  N   N9        1.0  0.8035366885689895  0.8883212438768667  0.09751112897235707  1.0000
  N   N10       1.0  0.398041942582701  0.05536262390219799  0.9535477940552609  1.0000
  N   N11       1.0  0.6125139374820634  0.6154856585856905  0.41409411218324266  1.0000
  N   N12       1.0  0.6115204517173324  0.3986244536553017  0.5960290513737405  1.0000
  O   O1        1.0  0.3017134856133196  0.8237519061643255  0.6935442755575209  1.0000
  O   O2        1.0  0.668820932439999  0.17678186958841738  0.2901937409169548  1.0000
  O   O3        1.0  0.8005018204106307  0.6942999494383528  0.810452800828152  1.0000
  O   O4        1.0  0.18897114679849383  0.3178581586495711  0.18687745810959908  1.0000
  O   O5        1.0  0.6142172024597273  0.6684145707904535  0.6878976385737728  1.0000
  O   O6        1.0  0.35911756646640924  0.33553743367396294  0.31134354852908785  1.0000
  O   O7        1.0  0.13405509519117942  0.8199957002119759  0.8189558438258189  1.0000
  O   O8        1.0  0.8359611043837346  0.1721384803110553  0.17447666156192546  1.0000
  O   O9        1.0  0.6362237777513898  0.8148596613163336  0.6854785894087952  1.0000
  O   O10       1.0  0.3416752147132486  0.19128353600962103  0.30892323683396933  1.0000
  O   O11       1.0  0.1311577711976852  0.6798562686430503  0.7982674937319699  1.0000
  O   O12       1.0  0.852321512730441  0.3164350699544584  0.18398615325287435  1.0000
  O   O13       1.0  0.8050400824823783  0.8359311915570801  0.8139030157509309  1.0000
  O   O14       1.0  0.1705236181619867  0.17336761306905402  0.18722547293115344  1.0000
  O   O15       1.0  0.284192401034332  0.6780120433059765  0.6739397955611748  1.0000
  O   O16       1.0  0.69072225564625  0.3233251097092804  0.3115309430570646  1.0000
  O   O17       1.0  0.46476896392375283  0.7584843366304953  0.787224122058113  1.0000
  O   O18       1.0  0.507102658977267  0.2476887892050925  0.20297731098609967  1.0000
  O   O19       1.0  0.9597037450372524  0.7475914700345355  0.7057762911593172  1.0000
  O   O20       1.0  0.010999024665245799  0.2605998117140871  0.28455007899504636  1.0000
  O   O21       1.0  0.5690172563350089  0.8700695151978407  0.960065325504317  1.0000
  O   O22       1.0  0.7653893878489768  0.779516220008084  0.9540267283421142  1.0000
  O   O23       1.0  0.062081977110622695  0.17059696513459946  0.996597720960082  1.0000
  O   O24       1.0  0.3358255909663371  0.18480004895267402  0.06269131234912349  1.0000
  O   O25       1.0  0.23455468870876933  0.6564901090631494  0.4898412431935881  1.0000
  O   O26       1.0  0.4884555327154487  0.7192374117604031  0.5502990020818926  1.0000
  O   O27       1.0  0.26797466517417945  0.3328677420955586  0.4995928891269088  1.0000
  O   O28       1.0  0.5019494638948386  0.27837609506169514  0.43383118837059687  1.0000
  O   O29       1.0  0.4275028515168557  0.9944520527644868  0.8234049574014007  1.0000
  O   O30       1.0  0.1222916778434282  0.9526039549177056  0.7830125000354042  1.0000
  O   O31       1.0  0.7292959669042389  0.9685554622601485  0.21989665702249536  1.0000
  O   O32       1.0  0.9622039065871705  0.061520843221025204  0.244793493687574  1.0000
  O   O33       1.0  0.48070894687781873  0.44772041872066376  0.7161861120985404  1.0000
  O   O34       1.0  0.2916348021496731  0.542602749485944  0.7204987562402393  1.0000
  O   O35       1.0  0.6771227989439338  0.5522352023687489  0.28645770373721996  1.0000
  O   O36       1.0  0.8542857266420468  0.45683274904241244  0.2943952555886468  1.0000
