data_image0
_chemical_formula_structural       Cd4H36C42N12O20
_chemical_formula_sum              "Cd4 H36 C42 N12 O20"
_cell_length_a       6.906711308839543
_cell_length_b       10.248534021751524
_cell_length_c       17.6119728884786
_cell_angle_alpha    93.24327256359679
_cell_angle_beta     90.02444093761058
_cell_angle_gamma    109.69539524768076

_space_group_name_H-M_alt    "P 1"
_space_group_IT_number       1

loop_
  _space_group_symop_operation_xyz
  'x, y, z'

loop_
  _atom_site_type_symbol
  _atom_site_label
  _atom_site_symmetry_multiplicity
  _atom_site_fract_x
  _atom_site_fract_y
  _atom_site_fract_z
  _atom_site_occupancy
  Cd  Cd1       1.0  0.4800233984341489  0.19827104981627736  0.0313745262794853  1.0000
  Cd  Cd2       1.0  0.281716674894021  0.8021592986648399  0.4687139395124547  1.0000
  Cd  Cd3       1.0  0.5199768054766877  0.8017307481191692  0.9686248479055308  1.0000
  Cd  Cd4       1.0  0.7182819922015824  0.19783942671266888  0.5312847003691346  1.0000
  H   H1        1.0  0.16606444465388376  0.962635273140307  0.9008217124391676  1.0000
  H   H2        1.0  0.20379287326415615  0.037331536334406196  0.5996469636644903  1.0000
  H   H3        1.0  0.833948912851966  0.037381249593096286  0.0991756171261073  1.0000
  H   H4        1.0  0.796203268920266  0.9626650341389366  0.400352696038091  1.0000
  H   H5        1.0  0.49839479125640196  0.38047361680000336  0.8644712052958565  1.0000
  H   H6        1.0  0.11875773810581336  0.6193654130806009  0.6354032370158151  1.0000
  H   H7        1.0  0.5016037748209426  0.6195393945376039  0.13551684185524948  1.0000
  H   H8        1.0  0.881238794621943  0.3806290425030382  0.36459687670990343  1.0000
  H   H9        1.0  0.9783871966193303  0.06656466375716967  0.7176147833090596  1.0000
  H   H10       1.0  0.9118228833190185  0.9320609669914713  0.7826813452718966  1.0000
  H   H11       1.0  0.02159883950807278  0.9334290735262484  0.2823807449671776  1.0000
  H   H12       1.0  0.08818108638089941  0.06793967376245287  0.2173196713925734  1.0000
  H   H13       1.0  0.941525439194642  0.4527665153653329  0.2200553783422663  1.0000
  H   H14       1.0  0.4883698604493602  0.5476884059242193  0.2801092123869253  1.0000
  H   H15       1.0  0.05848685264304261  0.5472247084011667  0.7799462668667871  1.0000
  H   H16       1.0  0.5116129192478526  0.45231039888322044  0.719888293952458  1.0000
  H   H17       1.0  0.1805591789244048  0.660800910326678  0.29481180903310633  1.0000
  H   H18       1.0  0.5194095970035377  0.3397635608423  0.2053534611790937  1.0000
  H   H19       1.0  0.8194601097744255  0.3391956208510081  0.7051884188031252  1.0000
  H   H20       1.0  0.4805769091223482  0.6602340069144075  0.7946468197545329  1.0000
  H   H21       1.0  0.32214491831827263  0.884537760728193  0.2346962371205592  1.0000
  H   H22       1.0  0.4372252090681528  0.11590174234061115  0.2653498980428779  1.0000
  H   H23       1.0  0.6778594521322533  0.11546367791561349  0.765308231970259  1.0000
  H   H24       1.0  0.5627690254378948  0.8840939103990874  0.7346480072757656  1.0000
  H   H25       1.0  0.9955239560489845  0.6992040132490799  0.026381874623787403  1.0000
  H   H26       1.0  0.2960131074428745  0.30105113223353186  0.47366938549719606  1.0000
  H   H27       1.0  0.004481254528819507  0.3007933154191491  0.9736218043411283  1.0000
  H   H28       1.0  0.7039894632032072  0.6989467155046893  0.5263269344621264  1.0000
  H   H29       1.0  0.2802343394976887  0.4165526779184032  0.04031738039503809  1.0000
  H   H30       1.0  0.8638480280222397  0.5835441781929517  0.4596481260651899  1.0000
  H   H31       1.0  0.7197665274186278  0.5834446506300212  0.9596862981805785  1.0000
  H   H32       1.0  0.13614952268893887  0.4164523124511133  0.5403526658819402  1.0000
  H   H33       1.0  0.1601908050060104  0.31807305877517666  0.10402265580986379  1.0000
  H   H34       1.0  0.8423888738189406  0.6822645776005132  0.39600475146340125  1.0000
  H   H35       1.0  0.8398066174166986  0.6819202794816731  0.8959785340783881  1.0000
  H   H36       1.0  0.1576086965724386  0.3177319529781497  0.6039954744263412  1.0000
  C   C1        1.0  0.23053727010758251  0.061604898389234074  0.875246751442532  1.0000
  C   C2        1.0  0.16930372410137537  0.9382139866589864  0.625074523709614  1.0000
  C   C3        1.0  0.7694705974648884  0.9384064367767307  0.12475029745316138  1.0000
  C   C4        1.0  0.8306900214603276  0.06178358129739078  0.3749257578728376  1.0000
  C   C5        1.0  0.3972641669290056  0.2736681686886797  0.8547962288228774  1.0000
  C   C6        1.0  0.12416292498701154  0.7260641850785204  0.6452157287488944  1.0000
  C   C7        1.0  0.6027279014388042  0.7263405328006485  0.1451938578404466  1.0000
  C   C8        1.0  0.8758303017428871  0.2739323453803377  0.3547844967515487  1.0000
  C   C9        1.0  0.03755072709533628  0.9995041125632508  0.7501425169065783  1.0000
  C   C10       1.0  0.9624493587342966  0.0004974457645658945  0.24986025362277792  1.0000
  C   C11       1.0  0.9501856340958668  0.5633803930408304  0.11926612514467648  1.0000
  C   C12       1.0  0.3862624209072791  0.43694629879334446  0.38082591401501986  1.0000
  C   C13       1.0  0.04982189438385381  0.43661577840593674  0.8807391961699337  1.0000
  C   C14       1.0  0.613730415279271  0.5630523465552173  0.6191738574622859  1.0000
  C   C15       1.0  0.00510210467501082  0.5526078493585443  0.1947623986382396  1.0000
  C   C16       1.0  0.452040198320141  0.4477996498183287  0.30535594543020744  1.0000
  C   C17       1.0  0.9949185925505831  0.4473886019898642  0.8052389614425338  1.0000
  C   C18       1.0  0.5479474045099693  0.5522001127372178  0.6946427494952658  1.0000
  C   C19       1.0  0.13743816700750244  0.6683442330527001  0.2361823309964777  1.0000
  C   C20       1.0  0.4686861235074034  0.33210540351322476  0.2639417597706881  1.0000
  C   C21       1.0  0.8625774550375952  0.331659440604099  0.7638199869371645  1.0000
  C   C22       1.0  0.5313018501858481  0.6678922042180204  0.7360579552353101  1.0000
  C   C23       1.0  0.21742696194772995  0.7947381650940526  0.2023266622267528  1.0000
  C   C24       1.0  0.42226141573025444  0.2056384204445365  0.2977271187871366  1.0000
  C   C25       1.0  0.7825794145821661  0.2052643909564153  0.7976767309610652  1.0000
  C   C26       1.0  0.577737829237762  0.7943614622342989  0.702269879004298  1.0000
  C   C27       1.0  0.1672257883668208  0.8053537551505767  0.1263034846004985  1.0000
  C   C28       1.0  0.361523307230982  0.19497200637860593  0.3737383419689664  1.0000
  C   C29       1.0  0.8327777317491537  0.19464888068922895  0.8736987762130042  1.0000
  C   C30       1.0  0.6384717026838158  0.805030988633035  0.6262588235494349  1.0000
  C   C31       1.0  0.03341417783433078  0.6894921753742619  0.08522554487277739  1.0000
  C   C32       1.0  0.34351885307812324  0.31078155404080127  0.414816569385664  1.0000
  C   C33       1.0  0.966580877853133  0.31050511307982015  0.9147786992411683  1.0000
  C   C34       1.0  0.6564697772083363  0.6892173707301906  0.5851792393006221  1.0000
  C   C35       1.0  0.798994636921904  0.44175438745222806  0.0765718236802613  1.0000
  C   C36       1.0  0.3568374855660536  0.558557141983911  0.4236040522427729  1.0000
  C   C37       1.0  0.20100296335694168  0.5582450958406254  0.9234308345553046  1.0000
  C   C38       1.0  0.6431547035002154  0.4414373134799234  0.5763960610936536  1.0000
  C   C39       1.0  0.26054513368739396  0.9363109050769577  0.08683487454289457  1.0000
  C   C40       1.0  0.323948680104202  0.06398092227113487  0.4131685524831639  1.0000
  C   C41       1.0  0.7394501486895422  0.06368973543735727  0.9131661413429768  1.0000
  C   C42       1.0  0.6760591583151409  0.9360332458052054  0.5868326269305228  1.0000
  N   N1        1.0  0.3600195898429703  0.17792802940905253  0.9091749428331326  1.0000
  N   N2        1.0  0.18272170608845795  0.8221084882478779  0.5909939661696555  1.0000
  N   N3        1.0  0.6399890626111856  0.8220877751838741  0.09081780180171958  1.0000
  N   N4        1.0  0.8172748762069733  0.17788895998454984  0.4090080138444989  1.0000
  N   N5        1.0  0.1933458931936373  0.08729692535613512  0.8035170642731158  1.0000
  N   N6        1.0  0.10616783882919374  0.9121249513269162  0.6967296048907058  1.0000
  N   N7        1.0  0.8066604375636003  0.9127113372518917  0.1964792503191575  1.0000
  N   N8        1.0  0.8938267964274615  0.087871499302679  0.303271752854279  1.0000
  N   N9        1.0  0.29800320625224697  0.22269216451541496  0.7895997740827454  1.0000
  N   N10       1.0  0.07559346386702968  0.7766544738039372  0.7104499168345271  1.0000
  N   N11       1.0  0.701990513216998  0.7773111499331262  0.21039286284677414  1.0000
  N   N12       1.0  0.9244015619329672  0.22333986193595468  0.2895518949335951  1.0000
  O   O1        1.0  0.7556154558672148  0.3230595799763589  0.10516325972958639  1.0000
  O   O2        1.0  0.43212721086029393  0.6772395036529842  0.3949829363125872  1.0000
  O   O3        1.0  0.24437829990175414  0.6769409007596034  0.8948400202560832  1.0000
  O   O4        1.0  0.5678614848790317  0.3227537544950464  0.6050193849118486  1.0000
  O   O5        1.0  0.7130796610669777  0.4570498886169076  0.015283228222578799  1.0000
  O   O6        1.0  0.25586388191603493  0.5431615936045445  0.4849219121166257  1.0000
  O   O7        1.0  0.2869149151490759  0.5429464422088655  0.9847198276945761  1.0000
  O   O8        1.0  0.7441244130726902  0.45683086665359707  0.5150769566814617  1.0000
  O   O9        1.0  0.2823714995153425  0.9283201873127709  0.01487647272420391  1.0000
  O   O10       1.0  0.35364372264932353  0.07179022361128055  0.48513987955737287  1.0000
  O   O11       1.0  0.7176109690936698  0.07168667774735125  0.9851248782263086  1.0000
  O   O12       1.0  0.6463583692596941  0.9282124521231975  0.5148618150689757  1.0000
  O   O13       1.0  0.3185882251249055  0.052625208775360484  0.125892031155928  1.0000
  O   O14       1.0  0.2659457092580837  0.9477440363933879  0.3740326212797456  1.0000
  O   O15       1.0  0.681415626493809  0.9473751923709343  0.874112381852882  1.0000
  O   O16       1.0  0.7340692104211255  0.05226402678122349  0.6259665243780717  1.0000
  O   O17       1.0  0.2897792339481597  0.3474600166056874  0.0772661797376415  1.0000
  O   O18       1.0  0.9424826114211272  0.652680290926  0.4227310374619293  1.0000
  O   O19       1.0  0.7102161328275045  0.6525292115957129  0.9227342197651821  1.0000
  O   O20       1.0  0.057515996633881565  0.34731831464769397  0.57726930059183  1.0000
