data_image0
_chemical_formula_structural       Ag4H20C24S4N8O8
_chemical_formula_sum              "Ag4 H20 C24 S4 N8 O8"
_cell_length_a       6.8052721004505425
_cell_length_b       9.92586354056914
_cell_length_c       10.741376074013388
_cell_angle_alpha    89.99983123941223
_cell_angle_beta     90.0000597088534
_cell_angle_gamma    100.18291067132645

_space_group_name_H-M_alt    "P 1"
_space_group_IT_number       1

loop_
  _space_group_symop_operation_xyz
  'x, y, z'

loop_
  _atom_site_type_symbol
  _atom_site_label
  _atom_site_symmetry_multiplicity
  _atom_site_fract_x
  _atom_site_fract_y
  _atom_site_fract_z
  _atom_site_occupancy
  Ag  Ag1       1.0  0.8329992504736763  0.0745015568485243  0.0227300248730202  1.0000
  Ag  Ag2       1.0  0.666998787022024  0.9255032673190371  0.5227290614733491  1.0000
  Ag  Ag3       1.0  0.16700178668387616  0.9254988700264306  0.9772684334248397  1.0000
  Ag  Ag4       1.0  0.33298774781258794  0.0744919641043396  0.47727405172376786  1.0000
  H   H1        1.0  0.5493343378247246  0.9453381624764532  0.24092153093486957  1.0000
  H   H2        1.0  0.9506631803565712  0.05466901410756721  0.7409239148195681  1.0000
  H   H3        1.0  0.4506693910306652  0.054661258102946406  0.7590759963857039  1.0000
  H   H4        1.0  0.04932856162943722  0.945335446586583  0.25907361249081623  1.0000
  H   H5        1.0  0.65428243474048  0.6174605172244084  0.4570767855197674  1.0000
  H   H6        1.0  0.8457199456762794  0.3825470058112828  0.957078260794276  1.0000
  H   H7        1.0  0.3457286522240537  0.38253894650351583  0.5429198108236264  1.0000
  H   H8        1.0  0.15427768279823081  0.6174574893974524  0.0429211284767135  1.0000
  H   H9        1.0  0.8022296185417869  0.7007683685126124  0.9071689625779626  1.0000
  H   H10       1.0  0.6977660378848967  0.2992300789472964  0.4071692639440343  1.0000
  H   H11       1.0  0.19777041243560228  0.2992279641312691  0.0928341506219255  1.0000
  H   H12       1.0  0.30223159058834875  0.7007744162659862  0.5928273323887083  1.0000
  H   H13       1.0  0.5439921084034012  0.627068624232315  0.9014592805542349  1.0000
  H   H14       1.0  0.9560067752923442  0.372937015314541  0.401461414429555  1.0000
  H   H15       1.0  0.4560153183358864  0.3729338842614069  0.09854569459882612  1.0000
  H   H16       1.0  0.04398518058943067  0.6270623362235809  0.5985398368051165  1.0000
  H   H17       1.0  0.6925282182340026  0.4816032212443915  0.2584255158162492  1.0000
  H   H18       1.0  0.8074768878075673  0.5183988324126857  0.7584256868827026  1.0000
  H   H19       1.0  0.30748509499041193  0.5183993217760233  0.7415738734621087  1.0000
  H   H20       1.0  0.19251973448466947  0.4816015685725434  0.24157370239323941  1.0000
  C   C1        1.0  0.5816937211718808  0.84160374833192  0.2453093803838442  1.0000
  C   C2        1.0  0.9183172971272171  0.15840451520263346  0.7453114773271777  1.0000
  C   C3        1.0  0.4183100076856192  0.15839567223991222  0.7546928018338049  1.0000
  C   C4        1.0  0.08168083443631968  0.8416020271254256  0.2546832570442632  1.0000
  C   C5        1.0  0.6383031093401  0.6583667189070824  0.3641426389494384  1.0000
  C   C6        1.0  0.8616917911246204  0.3416349305143386  0.8641488842750249  1.0000
  C   C7        1.0  0.36170137415578546  0.3416357723263204  0.6358632671821526  1.0000
  C   C8        1.0  0.13830655433719838  0.6583665026486044  0.13585515989719707  1.0000
  C   C9        1.0  0.652353533057827  0.7214268357959381  0.8863345012265001  1.0000
  C   C10       1.0  0.8476458023766965  0.2785747673417588  0.38633960359003083  1.0000
  C   C11       1.0  0.34764552938878523  0.2785715353302862  0.11366861197046768  1.0000
  C   C12       1.0  0.15235376315936122  0.7214256509022762  0.6136597856867994  1.0000
  C   C13       1.0  0.6076774048680703  0.7662204260897809  0.1375234818266335  1.0000
  C   C14       1.0  0.8923325472521596  0.23379022647562653  0.6375253687147051  1.0000
  C   C15       1.0  0.3923270409737967  0.23377593244684652  0.8624768384363435  1.0000
  C   C16       1.0  0.1076660874037714  0.7662183629596413  0.362472158592503  1.0000
  C   C17       1.0  0.6435786110222423  0.7696617649787073  0.7519885211817011  1.0000
  C   C18       1.0  0.856425193807354  0.23032905913181884  0.2519863052600257  1.0000
  C   C19       1.0  0.3564196591332234  0.23032740278463143  0.24800807517096496  1.0000
  C   C20       1.0  0.1435767742286416  0.769663196557957  0.7480102910898054  1.0000
  C   C21       1.0  0.6587630635009346  0.5850288973282575  0.2558968322176867  1.0000
  C   C22       1.0  0.8412369083989616  0.4149762007023199  0.755897290300382  1.0000
  C   C23       1.0  0.3412518975875543  0.41496241246724  0.7441016260962173  1.0000
  C   C24       1.0  0.1587577768321395  0.5850282772460957  0.24410302994912308  1.0000
  S   S1        1.0  0.5940540086204891  0.8493518585248837  0.9932182031241723  1.0000
  S   S2        1.0  0.9059469329169901  0.1506555383380359  0.4932208778096339  1.0000
  S   S3        1.0  0.4059497202378494  0.15064756204391466  0.006785841052298701  1.0000
  S   S4        1.0  0.0940428343584969  0.8493468666058774  0.506782235379262  1.0000
  N   N1        1.0  0.6000696398425588  0.787296757249628  0.3576563276703197  1.0000
  N   N2        1.0  0.899933870582224  0.21271007419734636  0.8576601354610247  1.0000
  N   N3        1.0  0.3999375353477888  0.2127047277003342  0.6423411996486692  1.0000
  N   N4        1.0  0.10006300325431278  0.7872913503482978  0.1423364608754412  1.0000
  N   N5        1.0  0.6446281421940084  0.6386064640096052  0.1419560504283695  1.0000
  N   N6        1.0  0.8553761413473068  0.36139903047592975  0.6419557241365367  1.0000
  N   N7        1.0  0.35537533511750036  0.3613919330078589  0.8580452008111054  1.0000
  N   N8        1.0  0.14461854388252962  0.6386054474770334  0.3580418031747357  1.0000
  O   O1        1.0  0.612260541710114  0.8918825518492213  0.7335866151611512  1.0000
  O   O2        1.0  0.8877477366202129  0.1081206233979444  0.23359124993849179  1.0000
  O   O3        1.0  0.387738734629309  0.1081107101315695  0.2664137051042061  1.0000
  O   O4        1.0  0.11225821849463809  0.891881876475459  0.7664081393376422  1.0000
  O   O5        1.0  0.6697162385579958  0.6855946842049006  0.6689415498034279  1.0000
  O   O6        1.0  0.8302784474096185  0.3144014673717379  0.1689381704048927  1.0000
  O   O7        1.0  0.3302776543870252  0.3144005903624603  0.331063425354742  1.0000
  O   O8        1.0  0.16971935730705204  0.6855917859826802  0.8310602879011952  1.0000
