data_image0
_chemical_formula_structural       Fe2H16C20S4N28
_chemical_formula_sum              "Fe2 H16 C20 S4 N28"
_cell_length_a       8.403501749063977
_cell_length_b       8.403495199918869
_cell_length_c       12.703800275611732
_cell_angle_alpha    91.85782311847306
_cell_angle_beta     91.85776714731959
_cell_angle_gamma    96.26821917990576

_space_group_name_H-M_alt    "P 1"
_space_group_IT_number       1

loop_
  _space_group_symop_operation_xyz
  'x, y, z'

loop_
  _atom_site_type_symbol
  _atom_site_label
  _atom_site_symmetry_multiplicity
  _atom_site_fract_x
  _atom_site_fract_y
  _atom_site_fract_z
  _atom_site_occupancy
  Fe  Fe1       1.0  6.553457510241365e-07  0.5000022016286751  0.5000002774260324  1.0000
  Fe  Fe2       1.0  0.4999968328465199  0.9999983342113408  6.179938291273396e-09  1.0000
  H   H1        1.0  0.8899569319123231  0.28717029511467723  0.8610615836121837  1.0000
  H   H2        1.0  0.712831237910521  0.11004399881314701  0.6389384327639858  1.0000
  H   H3        1.0  0.11003991428917465  0.7128314009925136  0.1389357949313492  1.0000
  H   H4        1.0  0.28717025430445625  0.889956500204022  0.3610637358958542  1.0000
  H   H5        1.0  0.27736678362473544  0.4402951640227998  0.6668467676852216  1.0000
  H   H6        1.0  0.5597077422765723  0.7226323425680263  0.8331542770768792  1.0000
  H   H7        1.0  0.722634566544201  0.5597041330490458  0.3331545876631878  1.0000
  H   H8        1.0  0.4402931817542637  0.2773633486678407  0.1668446383372455  1.0000
  H   H9        1.0  0.292181583414397  0.5377114474412322  0.9572153992511686  1.0000
  H   H10       1.0  0.4622913122365233  0.7078193628804998  0.5427888536780401  1.0000
  H   H11       1.0  0.7078196327948162  0.46228665577259426  0.042786717448549894  1.0000
  H   H12       1.0  0.5377137376670476  0.29218110641802053  0.45721102206878317  1.0000
  H   H13       1.0  0.23979567301790894  0.0650775553144314  0.8204628816165138  1.0000
  H   H14       1.0  0.9349328618156177  0.7602036244097051  0.6795405640007672  1.0000
  H   H15       1.0  0.760199073353796  0.9349265523648855  0.17953529016444483  1.0000
  H   H16       1.0  0.06507009230131189  0.2397992605045971  0.32046089231484837  1.0000
  C   C1        1.0  0.80092523437839  0.18308481466278445  0.43507835701643666  1.0000
  C   C2        1.0  0.8169079501683638  0.1990743585383045  0.06492381353680089  1.0000
  C   C3        1.0  0.19907516998617333  0.8169061173156252  0.5649267531284322  1.0000
  C   C4        1.0  0.1830746824614167  0.8009177986254485  0.9350691672120418  1.0000
  C   C5        1.0  0.9550783215212063  0.3336551781487458  0.7942566898871846  1.0000
  C   C6        1.0  0.6663461192136494  0.04492165435191001  0.7057448716097239  1.0000
  C   C7        1.0  0.0449198647519964  0.6663477221285135  0.20574309965756038  1.0000
  C   C8        1.0  0.33365523095528726  0.9550776427199422  0.29425648373868535  1.0000
  C   C9        1.0  0.15752950647522107  0.41508092987775314  0.6957608307687976  1.0000
  C   C10       1.0  0.5849207467937347  0.8424709534371431  0.8042426083845129  1.0000
  C   C11       1.0  0.8424733096388336  0.5849207571348742  0.30424059956676064  1.0000
  C   C12       1.0  0.4150783534130653  0.15752954517420653  0.1957571522271451  1.0000
  C   C13       1.0  0.30651191669050354  0.4117932574371609  0.9448065078891543  1.0000
  C   C14       1.0  0.5882075189757501  0.6934873337146713  0.5551952662511113  1.0000
  C   C15       1.0  0.6934870576428834  0.5882060554034753  0.055195588736559394  1.0000
  C   C16       1.0  0.4117929132164377  0.3065143609794347  0.44480533069901174  1.0000
  C   C17       1.0  0.277473548398369  0.16572965140944257  0.874670448161126  1.0000
  C   C18       1.0  0.8342689923353174  0.7225212575831607  0.6253256171091691  1.0000
  C   C19       1.0  0.7225157320288959  0.8342684740371527  0.1253243522859151  1.0000
  C   C20       1.0  0.1657350096749326  0.2774804195232506  0.3746750489220503  1.0000
  S   S1        1.0  0.7216242097518871  0.004369659581627201  0.397669166860922  1.0000
  S   S2        1.0  0.9956280818691213  0.2783819626113415  0.10233398319634548  1.0000
  S   S3        1.0  0.27838432048474004  0.9956296427513609  0.6023401999634075  1.0000
  S   S4        1.0  0.004369382044437535  0.7216149158083243  0.8976593777971259  1.0000
  N   N1        1.0  0.8563229063071276  0.31423254002876894  0.46327547254920626  1.0000
  N   N2        1.0  0.6857699497703961  0.14367619141258814  0.036727689363772194  1.0000
  N   N3        1.0  0.1436835559704832  0.6857799406356974  0.5367309616491694  1.0000
  N   N4        1.0  0.3142331342631053  0.8563278833160838  0.9632722182691535  1.0000
  N   N5        1.0  0.02216362378014481  0.42744571417005517  0.6429290468115026  1.0000
  N   N6        1.0  0.5725516043912576  0.9778328539028682  0.8570719167771299  1.0000
  N   N7        1.0  0.9778368003257327  0.5725559724367458  0.3570699754758735  1.0000
  N   N8        1.0  0.42744323193992523  0.022161668744153904  0.14292685752176476  1.0000
  N   N9        1.0  0.894222427838301  0.3768075785997241  0.7044618903371214  1.0000
  N   N10       1.0  0.6231908237572199  0.1057768161949184  0.7955396345308472  1.0000
  N   N11       1.0  0.10577785422154312  0.6231929060617462  0.295536318638824  1.0000
  N   N12       1.0  0.3768032487727098  0.894221318150649  0.20446155667531224  1.0000
  N   N13       1.0  0.1194542846997777  0.35456176597956096  0.7914002698820466  1.0000
  N   N14       1.0  0.6454440797036795  0.8805451431894655  0.7086016486124861  1.0000
  N   N15       1.0  0.8805439056165839  0.6454411383413474  0.20860030699406445  1.0000
  N   N16       1.0  0.3545595123410905  0.1194529442555776  0.29139972680993503  1.0000
  N   N17       1.0  0.22798672473822276  0.31476867083553367  0.8660993130446926  1.0000
  N   N18       1.0  0.6852396795698751  0.7720129328144054  0.633904184624903  1.0000
  N   N19       1.0  0.7720092317886155  0.685235451199489  0.13390281842016089  1.0000
  N   N20       1.0  0.31476418443749304  0.22798754639033092  0.366096455426259  1.0000
  N   N21       1.0  0.3821394918051125  0.17339613434310053  0.9547584796752699  1.0000
  N   N22       1.0  0.8266048614218419  0.6178623216912912  0.545244820562658  1.0000
  N   N23       1.0  0.6178559086670534  0.8266031920415744  0.0452427605379739  1.0000
  N   N24       1.0  0.17339927859129028  0.38214055331678765  0.4547558714486185  1.0000
  N   N25       1.0  0.4011714424280583  0.3275834254163996  0.998688674775579  1.0000
  N   N26       1.0  0.6724193850413797  0.5988265414919738  0.5013130559853707  1.0000
  N   N27       1.0  0.5988251520266203  0.6724158991493637  0.0013133757960729988  1.0000
  N   N28       1.0  0.32758671679867035  0.40117272404231136  0.49868681680842286  1.0000
