data_image0
_chemical_formula_structural       ZnH16C11N2O6
_chemical_formula_sum              "Zn1 H16 C11 N2 O6"
_cell_length_a       6.0608431568523935
_cell_length_b       7.09297951389784
_cell_length_c       8.7517440771185
_cell_angle_alpha    102.30575176356204
_cell_angle_beta     104.10755378282691
_cell_angle_gamma    112.25909631973892

_space_group_name_H-M_alt    "P 1"
_space_group_IT_number       1

loop_
  _space_group_symop_operation_xyz
  'x, y, z'

loop_
  _atom_site_type_symbol
  _atom_site_label
  _atom_site_symmetry_multiplicity
  _atom_site_fract_x
  _atom_site_fract_y
  _atom_site_fract_z
  _atom_site_occupancy
  Zn  Zn1       1.0  0.576325721024645  0.8614469354855032  0.671748012182853  1.0000
  H   H1        1.0  0.12458230087986502  0.8436109895408207  0.6910134915345693  1.0000
  H   H2        1.0  0.11677972949631509  0.637110568308522  0.5595945534273383  1.0000
  H   H3        1.0  0.5095144130827408  0.5717745996904428  0.82618760221407  1.0000
  H   H4        1.0  0.7995353486863194  0.7675148780101891  0.9307525050876394  1.0000
  H   H5        1.0  0.5529953310519318  0.23320456936811954  0.7666445563409072  1.0000
  H   H6        1.0  0.34473741787073203  0.4013670661568652  0.140371445962586  1.0000
  H   H7        1.0  0.31338616813929576  0.6295820086059436  0.11957863236492018  1.0000
  H   H8        1.0  0.826274067515456  0.4122811471932978  0.05009286514051328  1.0000
  H   H9        1.0  0.8734233252360326  0.17862427511063572  0.034443590828608726  1.0000
  H   H10       1.0  0.023773080083074712  0.48466850226027  0.8360175243047154  1.0000
  H   H11       1.0  0.8418438186529684  0.2596462347076809  0.5386889942424418  1.0000
  H   H12       1.0  0.7038062721860783  0.42785389276793506  0.6002141327558379  1.0000
  H   H13       1.0  0.7962082162904379  0.8294435462443205  0.2491920264328726  1.0000
  H   H14       1.0  0.15093622138562074  0.0371812709570278  0.5218477349040285  1.0000
  H   H15       1.0  0.6711085017589511  0.1795851835036545  0.253654710742545  1.0000
  H   H16       1.0  0.2893132720485241  0.9622231891818134  0.9869532018534745  1.0000
  C   C1        1.0  0.25041752967289443  0.5569784291764108  0.331607815768372  1.0000
  C   C2        1.0  0.22303597204633252  0.48217291125948236  0.1489897837551553  1.0000
  C   C3        1.0  0.9505710502266069  0.34046512558392555  0.023163460726230833  1.0000
  C   C4        1.0  0.9401181076067572  0.3204940889686442  0.8429727027445538  1.0000
  C   C5        1.0  0.1018419150915335  0.2114767387106937  0.7972048412744713  1.0000
  C   C6        1.0  0.674882249497152  0.2588089493139805  0.5672008399294982  1.0000
  C   C7        1.0  0.9925195656701576  0.9095633582950671  0.2538150334512964  1.0000
  C   C8        1.0  0.19342580525847103  0.026294661711382592  0.40745427165829545  1.0000
  C   C9        1.0  0.4434084044537485  0.12381793576025762  0.41049281256166387  1.0000
  C   C10       1.0  0.4792534323476971  0.10162241798661142  0.2564507427003876  1.0000
  C   C11       1.0  0.2683254401487928  0.9838822067169417  0.10894749372256031  1.0000
  N   N1        1.0  0.6755740161418871  0.19287823710488544  0.7179001187189727  1.0000
  N   N2        1.0  0.027901421911806695  0.8886424013260736  0.10661215900691451  1.0000
  O   O1        1.0  0.05723916930806886  0.4899758757435535  0.37362478931987664  1.0000
  O   O2        1.0  0.4804496387589268  0.6914467654244021  0.4323022210846404  1.0000
  O   O3        1.0  0.9855432289235182  0.005533516258296296  0.7246322081059519  1.0000
  O   O4        1.0  0.3382881115025427  0.3251198175442697  0.8360478462518801  1.0000
  O   O5        1.0  0.2041074539169044  0.7437017391270757  0.679063592199455  1.0000
  O   O6        1.0  0.6522439449202364  0.6904000232134208  0.8153257258886911  1.0000
