data_image0
_chemical_formula_structural       Sm2H18C12O18
_chemical_formula_sum              "Sm2 H18 C12 O18"
_cell_length_a       6.016519768442237
_cell_length_b       10.121969413613135
_cell_length_c       9.190620119608573
_cell_angle_alpha    78.47063518453714
_cell_angle_beta     69.76547637392751
_cell_angle_gamma    82.4495794326372

_space_group_name_H-M_alt    "P 1"
_space_group_IT_number       1

loop_
  _space_group_symop_operation_xyz
  'x, y, z'

loop_
  _atom_site_type_symbol
  _atom_site_label
  _atom_site_symmetry_multiplicity
  _atom_site_fract_x
  _atom_site_fract_y
  _atom_site_fract_z
  _atom_site_occupancy
  Sm  Sm1       1.0  0.47960761240521793  0.8883341050098179  0.23018516952845383  1.0000
  Sm  Sm2       1.0  0.5204142244887607  0.11167622378758317  0.7698074738805043  1.0000
  H   H1        1.0  0.5312013454005468  0.38864738681593985  0.10397038705414723  1.0000
  H   H2        1.0  0.46880265094817014  0.6113469670093679  0.8960198438502115  1.0000
  H   H3        1.0  0.9126044360833988  0.471913708809147  0.9353986768908837  1.0000
  H   H4        1.0  0.08741495377347522  0.528103417294396  0.06458589710823756  1.0000
  H   H5        1.0  0.09617350595559063  0.45547706100259683  0.6398776851578274  1.0000
  H   H6        1.0  0.9037902563019173  0.5445240994601263  0.3601041910054048  1.0000
  H   H7        1.0  0.8895131014549377  0.7737996768936171  0.387285783176523  1.0000
  H   H8        1.0  0.1104488535933541  0.22621072721081248  0.6127157106678138  1.0000
  H   H9        1.0  0.6114832884664595  0.7380578522256157  0.4761906486307691  1.0000
  H   H10       1.0  0.38852318119514706  0.26196650837065494  0.5238082882514516  1.0000
  H   H11       1.0  0.2804242147060592  0.044687979562652885  0.5077812544691154  1.0000
  H   H12       1.0  0.7195836686545292  0.9553217860778318  0.4922127738499566  1.0000
  H   H13       1.0  0.32247261043990977  0.8954060386028218  0.5837900705419583  1.0000
  H   H14       1.0  0.6775246612895458  0.1045950465296244  0.4162081562907856  1.0000
  H   H15       1.0  0.004592826804994803  0.049517136486286986  0.33031331409021175  1.0000
  H   H16       1.0  0.9954148816433559  0.9504770281170066  0.6696752566350455  1.0000
  H   H17       1.0  0.09136798057657101  0.0744078772467844  0.1391420629183527  1.0000
  H   H18       1.0  0.9086425334383391  0.9255793647060457  0.860852361967552  1.0000
  C   C1        1.0  0.6307736836361285  0.1724743640432322  0.10710287470618599  1.0000
  C   C2        1.0  0.36927354184450695  0.8275132446112963  0.8928984812585622  1.0000
  C   C3        1.0  0.6821594650571826  0.3175957472190589  0.06048838918256646  1.0000
  C   C4        1.0  0.31779446238858367  0.6823886063197404  0.9395381704128665  1.0000
  C   C5        1.0  0.8932320649788681  0.3637249166895414  0.9701107902034916  1.0000
  C   C6        1.0  0.10675053761676882  0.6362768626588107  0.029892969721053868  1.0000
  C   C7        1.0  0.11199029181395302  0.27629708858358265  0.9142039062289764  1.0000
  C   C8        1.0  0.8880355166007377  0.7237005224090111  0.08582121409125414  1.0000
  C   C9        1.0  0.21605542678305767  0.6380729020558675  0.4730469877330207  1.0000
  C   C10       1.0  0.7839555128288681  0.3619418382629647  0.526926517067899  1.0000
  C   C11       1.0  0.07170292194160773  0.5174151077491513  0.5342401546030614  1.0000
  C   C12       1.0  0.9282993444518935  0.48260447645554877  0.4657432946614504  1.0000
  O   O1        1.0  0.6183771672819348  0.10942238018191118  0.24366871944045693  1.0000
  O   O2        1.0  0.38162819907998363  0.8905832294479264  0.7563422272063176  1.0000
  O   O3        1.0  0.5827338738726837  0.11422701739333971  0.012014712603303185  1.0000
  O   O4        1.0  0.4172951394527686  0.8857730489995814  0.9880004234928916  1.0000
  O   O5        1.0  0.10633890488702497  0.14626294492992997  0.9492449541638731  1.0000
  O   O6        1.0  0.8936355520519684  0.8537177597366679  0.050761685298937195  1.0000
  O   O7        1.0  0.3044014697127083  0.3309803004217143  0.8304041254306678  1.0000
  O   O8        1.0  0.6956254871688969  0.6690299012230696  0.16958879677111577  1.0000
  O   O9        1.0  0.36842103706600676  0.6477251179651731  0.5352970514296798  1.0000
  O   O10       1.0  0.6315435034693735  0.35226892276584465  0.46472502733539744  1.0000
  O   O11       1.0  0.17769880118956402  0.7272064376874496  0.35918795050747565  1.0000
  O   O12       1.0  0.8222861129101562  0.2728001237903825  0.6408107986826221  1.0000
  O   O13       1.0  0.7197379507412837  0.8123900034475042  0.4157924571482138  1.0000
  O   O14       1.0  0.28026438847016527  0.18757471390188837  0.5842162118779866  1.0000
  O   O15       1.0  0.26252551764279997  0.9494015343958607  0.5004621313990183  1.0000
  O   O16       1.0  0.7374698346343111  0.05059911323699848  0.4995266793669086  1.0000
  O   O17       1.0  0.13811107108088552  0.03779531316403249  0.2338097827436058  1.0000
  O   O18       1.0  0.8618805166139297  0.9621879668222987  0.7661965698703952  1.0000
