data_image0
_chemical_formula_structural       Na2H16C10O10
_chemical_formula_sum              "Na2 H16 C10 O10"
_cell_length_a       4.920816564782142
_cell_length_b       5.81860022422545
_cell_length_c       11.894503101601433
_cell_angle_alpha    87.0192865891049
_cell_angle_beta     86.29668808157427
_cell_angle_gamma    80.0416423090422

_space_group_name_H-M_alt    "P 1"
_space_group_IT_number       1

loop_
  _space_group_symop_operation_xyz
  'x, y, z'

loop_
  _atom_site_type_symbol
  _atom_site_label
  _atom_site_symmetry_multiplicity
  _atom_site_fract_x
  _atom_site_fract_y
  _atom_site_fract_z
  _atom_site_occupancy
  Na  Na1       1.0  0.4663167910539203  0.6144775635928285  0.35488572710852395  1.0000
  Na  Na2       1.0  0.5336880311290031  0.3855227430414843  0.6451164131848941  1.0000
  H   H1        1.0  0.9304957121499767  0.9128980763042946  0.33589397003559174  1.0000
  H   H2        1.0  0.06951028681762488  0.08709526439516678  0.6641091889403794  1.0000
  H   H3        1.0  0.9043178398079306  0.7843080342122944  0.4509306901497325  1.0000
  H   H4        1.0  0.09568445688563539  0.21568192057402064  0.5490710572532292  1.0000
  H   H5        1.0  0.2656985663035841  0.8462284513260057  0.555308526694752  1.0000
  H   H6        1.0  0.7343054647898555  0.15376497039379433  0.4446955562951087  1.0000
  H   H7        1.0  0.0592242037454298  0.679487050797178  0.5946605423301462  1.0000
  H   H8        1.0  0.9407797106108616  0.32050814489954144  0.40534517046010166  1.0000
  H   H9        1.0  0.6556618801219259  0.028705593202950307  0.15444079072126723  1.0000
  H   H10       1.0  0.34433110799043476  0.9713176515284657  0.8455602692096845  1.0000
  H   H11       1.0  0.3868930549692634  0.21293885433970416  0.0825083081654157  1.0000
  H   H12       1.0  0.6130948442979118  0.7870654751140548  0.9174944333277181  1.0000
  H   H13       1.0  0.7474987691720755  0.17645671740916669  0.9681498361116636  1.0000
  H   H14       1.0  0.2524962397105526  0.8235246915739297  0.031847458344906  1.0000
  H   H15       1.0  0.9354504161383234  0.7030824662722422  0.1798482694256123  1.0000
  H   H16       1.0  0.0645469194881017  0.29690746281623587  0.8201444379502971  1.0000
  C   C1        1.0  0.29000285455970953  0.1601874091133411  0.25685851063298054  1.0000
  C   C2        1.0  0.710000320752208  0.8398233680853618  0.7431433579506147  1.0000
  C   C3        1.0  0.5010485055609449  0.18911411692804586  0.1603099244718251  1.0000
  C   C4        1.0  0.498942190536347  0.8108952280015417  0.8396874829679104  1.0000
  C   C5        1.0  0.8130849841409358  0.43537322582221066  0.08539973987497258  1.0000
  C   C6        1.0  0.1869092856973182  0.5646237646628761  0.9145937103749444  1.0000
  C   C7        1.0  0.8565521164586584  0.3175431867041141  0.9842732656734865  1.0000
  C   C8        1.0  0.143473058818259  0.6824649686182197  0.0157193215850029  1.0000
  C   C9        1.0  0.9586468860033864  0.6166179391787168  0.10012558755811087  1.0000
  C   C10       1.0  0.041349874595496786  0.3833947828508073  0.8998764951541387  1.0000
  O   O1        1.0  0.21268057259085546  0.3256376094579991  0.3228698608816529  1.0000
  O   O2        1.0  0.7873177181418922  0.6743664159840321  0.6771341233407993  1.0000
  O   O3        1.0  0.20274783716374162  0.9663191416191876  0.2593521071841209  1.0000
  O   O4        1.0  0.7972554958895302  0.03369166446237408  0.7406514364848318  1.0000
  O   O5        1.0  0.6336537632644834  0.38517333997634756  0.17366266813625938  1.0000
  O   O6        1.0  0.3663200477835247  0.6148382393543557  0.826332873160126  1.0000
  O   O7        1.0  0.7857058905036071  0.8620949254237331  0.3913732549192162  1.0000
  O   O8        1.0  0.21430254642448432  0.1378948296258429  0.6086282330701279  1.0000
  O   O9        1.0  0.22145122284901217  0.6912883447920848  0.538874132125187  1.0000
  O   O10       1.0  0.7785531615936065  0.30870334627508106  0.46113083369232294  1.0000
