data_image0
_chemical_formula_structural       Ba6P12H36C12O42
_chemical_formula_sum              "Ba6 P12 H36 C12 O42"
_cell_length_a       10.830269300143506
_cell_length_b       10.821235857061543
_cell_length_c       13.088885348168091
_cell_angle_alpha    113.33254967147434
_cell_angle_beta     93.37387118931183
_cell_angle_gamma    115.08937220292117

_space_group_name_H-M_alt    "P 1"
_space_group_IT_number       1

loop_
  _space_group_symop_operation_xyz
  'x, y, z'

loop_
  _atom_site_type_symbol
  _atom_site_label
  _atom_site_symmetry_multiplicity
  _atom_site_fract_x
  _atom_site_fract_y
  _atom_site_fract_z
  _atom_site_occupancy
  Ba  Ba1       1.0  0.2188642642841145  0.6040511287433717  0.14102025143590413  1.0000
  Ba  Ba2       1.0  0.7811355718643113  0.3959482381132349  0.8589794186002849  1.0000
  Ba  Ba3       1.0  0.18424007391281816  0.8408030972438713  0.9721067182583737  1.0000
  Ba  Ba4       1.0  0.8157588376189508  0.15919627033590442  0.027892906893072177  1.0000
  Ba  Ba5       1.0  0.6693737442547628  0.7444822641927334  0.07506752959398003  1.0000
  Ba  Ba6       1.0  0.33062660963305757  0.25551825569818487  0.9249325466867973  1.0000
  P   P1        1.0  0.5254416640717139  0.9900943285371894  0.17519688620114227  1.0000
  P   P2        1.0  0.4745586898161065  0.009906191353728406  0.8248031900796349  1.0000
  P   P3        1.0  0.054252212138720855  0.868968081241903  0.24605138103218144  1.0000
  P   P4        1.0  0.9457490688365269  0.13103244316788226  0.7539479779710659  1.0000
  P   P5        1.0  0.45948900776496515  0.4686441352460875  0.24564895402684783  1.0000
  P   P6        1.0  0.540510830854224  0.5313552368525551  0.7543499538470684  1.0000
  P   P7        1.0  0.15120847136543603  0.22710075652636877  0.14096134820803033  1.0000
  P   P8        1.0  0.8487918825223845  0.7728997633645494  0.8590387280727471  1.0000
  P   P9        1.0  0.8412781208347652  0.527510288097112  0.15749016090903467  1.0000
  P   P10       1.0  0.158722639930332  0.4724890780363184  0.8425095540119117  1.0000
  P   P11       1.0  0.6904584399056758  0.011306157520728301  0.3808710821459016  1.0000
  P   P12       1.0  0.30954046915533  0.9886932048170114  0.6191293051678175  1.0000
  H   H1        1.0  0.4789467344044667  0.18901345341194545  0.1866197822809639  1.0000
  H   H2        1.0  0.5210536194833536  0.8109870664789726  0.8133802939998133  1.0000
  H   H3        1.0  0.21289761598784196  0.0024190993031894003  0.4172540100451769  1.0000
  H   H4        1.0  0.7871027354292153  0.9975814153456923  0.5827468283978874  1.0000
  H   H5        1.0  0.5942731451276445  0.7192457433694415  0.33871364963607686  1.0000
  H   H6        1.0  0.4057272038186569  0.28075476603740424  0.6612879509692675  1.0000
  H   H7        1.0  0.9984100051998012  0.04609128812269601  0.19068284501931743  1.0000
  H   H8        1.0  0.0015903486880192927  0.9539092317682221  0.8093172312614598  1.0000
  H   H9        1.0  0.6689328306920571  0.39887541929334713  0.21996713391548892  1.0000
  H   H10       1.0  0.3310675281372824  0.6011251110816431  0.7800314180407213  1.0000
  H   H11       1.0  0.8110999809631352  0.1358476822609731  0.2983647705593029  1.0000
  H   H12       1.0  0.18889892809787062  0.8641516800767663  0.7016356167544231  1.0000
  H   H13       1.0  0.3855269930910339  0.9378070041736354  0.40006410094984807  1.0000
  H   H14       1.0  0.6144724361801225  0.062193516440459014  0.5999359304461791  1.0000
  H   H15       1.0  0.1459546625773599  0.7694196901204295  0.39299818984952145  1.0000
  H   H16       1.0  0.8540442489544019  0.23057967745934604  0.6070014353019246  1.0000
  H   H17       1.0  0.28430194339110676  0.5753909608979983  0.3925654995296171  1.0000
  H   H18       1.0  0.7156989282361083  0.42461071202723855  0.6074349829957484  1.0000
  H   H19       1.0  0.1896613722028562  0.31154732621523357  0.3956035335548265  1.0000
  H   H20       1.0  0.8103375393289127  0.6884520413645422  0.6043960915966196  1.0000
  H   H21       1.0  0.3763317592004825  0.4428807853465175  0.4524665242415651  1.0000
  H   H22       1.0  0.6236685946873449  0.5571197345444004  0.5475335520392122  1.0000
  H   H23       1.0  0.31091685622388354  0.24793554886747432  0.3479742582119698  1.0000
  H   H24       1.0  0.6890829799245425  0.7520638179891324  0.6520254118242192  1.0000
  H   H25       1.0  0.4597169530816815  0.19121137653871764  0.3753789866982871  1.0000
  H   H26       1.0  0.540283398335383  0.8087891381101644  0.6246218517447772  1.0000
  H   H27       1.0  0.6472643023633112  0.2769528152117645  0.4033445394079608  1.0000
  H   H28       1.0  0.3527360515245093  0.7230477046791535  0.5966555368728166  1.0000
  H   H29       1.0  0.5590236771110639  0.20275856269714865  0.4945448127308154  1.0000
  H   H30       1.0  0.4409771871038685  0.7972430945019796  0.505457956281397  1.0000
  H   H31       1.0  0.981818801751288  0.8551053614267304  0.4616147530419425  1.0000
  H   H32       1.0  0.018179592041079197  0.1448928531187264  0.5383844658649152  1.0000
  H   H33       1.0  0.847019692944464  0.6596193379018589  0.4029466534991073  1.0000
  H   H34       1.0  0.15297922105806092  0.34038003491995283  0.5970522094900517  1.0000
  H   H35       1.0  0.8247764253084213  0.7869035403598591  0.3585808383903811  1.0000
  H   H36       1.0  0.17522392857939914  0.21309697953105916  0.6414192378903962  1.0000
  C   C1        1.0  0.2862053015640599  0.3900353548300189  0.2781267345951406  1.0000
  C   C2        1.0  0.7137950523237605  0.609965165060899  0.7218733416856367  1.0000
  C   C3        1.0  0.5377981561483623  0.027169654087977307  0.3286346737142054  1.0000
  C   C4        1.0  0.46220178839143256  0.9728320143183926  0.6713665260886897  1.0000
  C   C5        1.0  0.9691136755180098  0.7106629063356139  0.2857595386145136  1.0000
  C   C6        1.0  0.03088812319663254  0.2893387711084899  0.7142402266333221  1.0000
  C   C7        1.0  0.29166013406221236  0.34603140557207734  0.3743475934500823  1.0000
  C   C8        1.0  0.708339295208944  0.6539691150420169  0.625652437945945  1.0000
  C   C9        1.0  0.5522200331948284  0.18439561580152747  0.4050924166931082  1.0000
  C   C10       1.0  0.44777980048283444  0.8156037458130431  0.594908015505368  1.0000
  C   C11       1.0  0.9011382236355414  0.7552463941324632  0.38295213379411314  1.0000
  C   C12       1.0  0.09886161498364746  0.24475297796617934  0.617046774079796  1.0000
  O   O1        1.0  0.4488188420860055  0.07373572294029171  0.14622665889344694  1.0000
  O   O2        1.0  0.5511815118018148  0.9262647969506262  0.8537734173873303  1.0000
  O   O3        1.0  0.6777589836658037  0.051167524933198615  0.1648593332574109  1.0000
  O   O4        1.0  0.32224137022202376  0.9488329949577194  0.8351407430233664  1.0000
  O   O5        1.0  0.43001653038618326  0.8190939056896911  0.09426871102640184  1.0000
  O   O6        1.0  0.5699838235016372  0.1809066142012342  0.9057313652543755  1.0000
  O   O7        1.0  0.13985186055116836  0.8255295336243195  0.16478767409811468  1.0000
  O   O8        1.0  0.8601484933366521  0.17447098626659854  0.8352124021826626  1.0000
  O   O9        1.0  0.1534832727792121  0.0174614329960079  0.3665571655651121  1.0000
  O   O10       1.0  0.8465165608984577  0.9825379286185556  0.6334432666333714  1.0000
  O   O11       1.0  0.9477835223214727  0.906920570312437  0.20226717159177113  1.0000
  O   O12       1.0  0.052215906949690805  0.09307995030165735  0.7977328598042561  1.0000
  O   O13       1.0  0.43713263918934325  0.4955152425067624  0.1414570971551754  1.0000
  O   O14       1.0  0.562866790081813  0.5044852781073319  0.8585429342408517  1.0000
  O   O15       1.0  0.5225114151589025  0.36267950880939287  0.2355037515145639  1.0000
  O   O16       1.0  0.47749131064315964  0.6373221731535709  0.7644952964557419  1.0000
  O   O17       1.0  0.553093261589865  0.6293885663267036  0.3578683423221776  1.0000
  O   O18       1.0  0.44690616521053533  0.37061194904535455  0.6421324512361366  1.0000
  O   O19       1.0  0.10745377956744312  0.2957799565911756  0.07374618404521979  1.0000
  O   O20       1.0  0.892545131964326  0.7042194109886  0.926253441106219  1.0000
  O   O21       1.0  0.21382656255722307  0.12653067531652348  0.0780220660609814  1.0000
  O   O22       1.0  0.7861737913306045  0.8734698445743946  0.921978010219796  1.0000
  O   O23       1.0  0.014839144406401807  0.14090865900048752  0.17651536541856666  1.0000
  O   O24       1.0  0.9851606892712681  0.8590907026140828  0.8234850667799094  1.0000
  O   O25       1.0  0.9237649164077907  0.4634886687908167  0.08239252352250763  1.0000
  O   O26       1.0  0.07623347738457659  0.5365095457546475  0.9176066953843502  1.0000
  O   O27       1.0  0.7637840538450148  0.40727478629857955  0.2044601016199081  1.0000
  O   O28       1.0  0.23621670939083833  0.5927245850768872  0.7955388511387511  1.0000
  O   O29       1.0  0.7368075381552117  0.5496395242055101  0.09456818648868652  1.0000
  O   O30       1.0  0.26319230046397735  0.4503598478931325  0.9054307213852227  1.0000
  O   O31       1.0  0.8289058752980762  0.14331321223282603  0.3765693289184783  1.0000
  O   O32       1.0  0.1710935515023237  0.856687303139232  0.623431464639829  1.0000
  O   O33       1.0  0.6633168540847763  0.8497993558495838  0.30166634271791554  1.0000
  O   O34       1.0  0.3366834973322881  0.1502011587992982  0.6983344957251488  1.0000
  O   O35       1.0  0.7093714473436136  0.0516401217607623  0.5086787798127048  1.0000
  O   O36       1.0  0.2906289040734508  0.948360392888127  0.4913220586303524  1.0000
  O   O37       1.0  0.4154584346770348  0.9021854722002516  0.3278438315763167  1.0000
  O   O38       1.0  0.5845413990006277  0.09781388941431862  0.6721566006221593  1.0000
  O   O39       1.0  0.0790248902807136  0.6799234237196076  0.31851465866185436  1.0000
  O   O40       1.0  0.9209758729551396  0.3200759476558588  0.6814842940968049  1.0000
  O   O41       1.0  0.24322947343015508  0.5077291588836064  0.30951614699086605  1.0000
  O   O42       1.0  0.756770365189034  0.49227021321502945  0.6904827608830431  1.0000
