data_image0
_chemical_formula_structural       Zn2H16C20O16
_chemical_formula_sum              "Zn2 H16 C20 O16"
_cell_length_a       5.892089748960325
_cell_length_b       8.216336290753476
_cell_length_c       11.894810757423533
_cell_angle_alpha    100.00599344574667
_cell_angle_beta     89.99090225099039
_cell_angle_gamma    111.0132557419314

_space_group_name_H-M_alt    "P 1"
_space_group_IT_number       1

loop_
  _space_group_symop_operation_xyz
  'x, y, z'

loop_
  _atom_site_type_symbol
  _atom_site_label
  _atom_site_symmetry_multiplicity
  _atom_site_fract_x
  _atom_site_fract_y
  _atom_site_fract_z
  _atom_site_occupancy
  Zn  Zn1       1.0  0.8360978623896713  6.246103780000716e-06  0.7500253921228789  1.0000
  Zn  Zn2       1.0  0.16391629442632188  4.854381728599872e-06  0.2499735045690201  1.0000
  H   H1        1.0  0.9661670764582977  0.7284487749432316  0.8898011498845833  1.0000
  H   H2        1.0  0.2377299933214871  0.2715542680707443  0.6102153385181026  1.0000
  H   H3        1.0  0.0338235960176547  0.2715355718278615  0.1102153636698731  1.0000
  H   H4        1.0  0.7622638879137967  0.7284465947519719  0.3897835624306509  1.0000
  H   H5        1.0  0.5009406725727745  0.5500386152493563  0.7969260909966707  1.0000
  H   H6        1.0  0.9507971218168336  0.4499774508619581  0.7030003196629194  1.0000
  H   H7        1.0  0.4990787918201605  0.4499693178453511  0.20308533129200868  1.0000
  H   H8        1.0  0.04915768975995152  0.5500029510558092  0.2969812907046218  1.0000
  H   H9        1.0  0.6645624096693155  0.9221608046338831  0.9437396374398829  1.0000
  H   H10       1.0  0.7424041782547445  0.07789443683444117  0.5563360277709037  1.0000
  H   H11       1.0  0.335475709612254  0.07786402067200981  0.0562643079798377  1.0000
  H   H12       1.0  0.2575617399389645  0.9220878604227211  0.44366092153432385  1.0000
  H   H13       1.0  0.46872589325258923  0.9726797337997082  0.8806818036966391  1.0000
  H   H14       1.0  0.4959466728154993  0.0272345453816314  0.6193221025083204  1.0000
  H   H15       1.0  0.5312985014160532  0.0273346408282933  0.11932524851120968  1.0000
  H   H16       1.0  0.5040262376306899  0.9727346084034421  0.38067683766109167  1.0000
  C   C1        1.0  0.2872642169801622  0.19595142091343834  0.8702839749606284  1.0000
  C   C2        1.0  0.09125847636587286  0.8040011759663911  0.6296779671705082  1.0000
  C   C3        1.0  0.7127352702843055  0.8040335180748954  0.1297132617129861  1.0000
  C   C4        1.0  0.9086992374806755  0.19599186597837098  0.3703234674465179  1.0000
  C   C5        1.0  0.5193337741106276  0.3454842246646948  0.8895894569833729  1.0000
  C   C6        1.0  0.17376735775229699  0.6545679890512801  0.6103872696244536  1.0000
  C   C7        1.0  0.4807064848686052  0.6545245190201141  0.11040860179728895  1.0000
  C   C8        1.0  0.8262028258536276  0.34542621627338116  0.38961008606721487  1.0000
  C   C9        1.0  0.8437684617439132  0.5985257097739236  0.9009247631637008  1.0000
  C   C10       1.0  0.24509821179594138  0.4014807297553276  0.5990124605193756  1.0000
  C   C11       1.0  0.15627714182590324  0.40151743393664674  0.0990743737940818  1.0000
  C   C12       1.0  0.7548797333484456  0.5985188119007887  0.4009862969908156  1.0000
  C   C13       1.0  0.8951945011783947  0.48974965392796577  0.9654555943401703  1.0000
  C   C14       1.0  0.4054133745366996  0.5103171810041118  0.5345268364301106  1.0000
  C   C15       1.0  0.10481866277282145  0.5102355028312074  0.034547556197544786  1.0000
  C   C16       1.0  0.5945765830476404  0.48969957325281394  0.46547288500877215  1.0000
  C   C17       1.0  0.6028420097954169  0.5054271134517095  0.8523687620488261  1.0000
  C   C18       1.0  0.09729182948267125  0.4946002540181737  0.6475429092999292  1.0000
  C   C19       1.0  0.3971866365480139  0.4945923443266054  0.14763293678480946  1.0000
  C   C20       1.0  0.9026792853469843  0.5053924015325534  0.3524483979319797  1.0000
  O   O1        1.0  0.12077163034776815  0.21428112988994027  0.8097417743635303  1.0000
  O   O2        1.0  0.9063397632854734  0.7857192925284695  0.6901729664704418  1.0000
  O   O3        1.0  0.879245846941842  0.7857261678437764  0.19025276190838977  1.0000
  O   O4        1.0  0.09364535263403442  0.21427762474596787  0.30982635973816736  1.0000
  O   O5        1.0  0.25855030392357736  0.05604486156828159  0.9112209623222043  1.0000
  O   O6        1.0  0.20244258194549056  0.943955877119336  0.5887847276877309  1.0000
  O   O7        1.0  0.7414727488272063  0.9439600349728394  0.08878005209078307  1.0000
  O   O8        1.0  0.7975218759247723  0.056037067022863596  0.4112141760655561  1.0000
  O   O9        1.0  0.6995301582364133  0.33444146134279856  0.9589573359340093  1.0000
  O   O10       1.0  0.3650546071561749  0.6655919000882803  0.5410378441141006  1.0000
  O   O11       1.0  0.3005080613192989  0.6655462765613863  0.0410444109631882  1.0000
  O   O12       1.0  0.6349226738980036  0.33440631498299206  0.458960774378987  1.0000
  O   O13       1.0  0.5970345662338589  0.9182844548702178  0.8658963300793943  1.0000
  O   O14       1.0  0.6786272959174937  0.0817033054488476  0.634165546586793  1.0000
  O   O15       1.0  0.4030085232348383  0.08172997673179339  0.1341124160850029  1.0000
  O   O16       1.0  0.32134747542959025  0.9182763350264622  0.36583112763185  1.0000
