data_image0
_chemical_formula_structural       Zn2H16C20S4N12
_chemical_formula_sum              "Zn2 H16 C20 S4 N12"
_cell_length_a       8.562962551004654
_cell_length_b       9.077546581820823
_cell_length_c       9.077555833700536
_cell_angle_alpha    116.584436401607
_cell_angle_beta     89.99988609755275
_cell_angle_gamma    90.0000804697025

_space_group_name_H-M_alt    "P 1"
_space_group_IT_number       1

loop_
  _space_group_symop_operation_xyz
  'x, y, z'

loop_
  _atom_site_type_symbol
  _atom_site_label
  _atom_site_symmetry_multiplicity
  _atom_site_fract_x
  _atom_site_fract_y
  _atom_site_fract_z
  _atom_site_occupancy
  Zn  Zn1       1.0  0.9999981140860257  0.9999988714012745  3.965679554518248e-07  1.0000
  Zn  Zn2       1.0  0.49999970360892115  0.5000008861161334  0.49999903115856653  1.0000
  H   H1        1.0  0.7500018161408164  0.7081527554238105  0.791844756111914  1.0000
  H   H2        1.0  0.25000094709907467  0.7918460580566703  0.708152186589253  1.0000
  H   H3        1.0  0.25000109453292646  0.291845315034962  0.208154948895313  1.0000
  H   H4        1.0  0.750000795757536  0.20815448025143718  0.2918464232902879  1.0000
  H   H5        1.0  0.9495211710359894  0.07513351846687748  0.7003519618993368  1.0000
  H   H6        1.0  0.4495179744867314  0.42486682523474434  0.7996489463081391  1.0000
  H   H7        1.0  0.5504860378050934  0.7996506097711631  0.4248672346504991  1.0000
  H   H8        1.0  0.05048297366359829  0.7003501190040923  0.07513127827739664  1.0000
  H   H9        1.0  0.05048407527686289  0.9248645499222263  0.29964884379602813  1.0000
  H   H10       1.0  0.5504837683679185  0.5751349407871232  0.20035241807722326  1.0000
  H   H11       1.0  0.44951687286864933  0.2003474606876168  0.575132470356728  1.0000
  H   H12       1.0  0.9495152657327425  0.2996467258099145  0.9248645715377679  1.0000
  H   H13       1.0  0.7500039676717235  0.0229495524587122  0.4770526134978896  1.0000
  H   H14       1.0  0.25000025826197697  0.47705271067805205  0.022947663557168704  1.0000
  H   H15       1.0  0.2500001108221497  0.9770485180004016  0.5229470915083783  1.0000
  H   H16       1.0  0.7500003167767986  0.5229478317704377  0.9770487449432327  1.0000
  C   C1        1.0  0.7500019422662303  0.7786096014946435  0.7213907991206768  1.0000
  C   C2        1.0  0.25000082097204773  0.7213916715540735  0.7786094512120416  1.0000
  C   C3        1.0  0.2500009684075123  0.22138846896412898  0.278608905886543  1.0000
  C   C4        1.0  0.7499997540651223  0.2786113304626525  0.2213902649199185  1.0000
  C   C5        1.0  0.8580208370652896  0.9829098292876994  0.6717621830933925  1.0000
  C   C6        1.0  0.3580169711672241  0.517090273452098  0.8282384385555165  1.0000
  C   C7        1.0  0.6419881733205128  0.8282406052299008  0.5170906100293992  1.0000
  C   C8        1.0  0.1419830483824143  0.671760604203925  0.9829098165485848  1.0000
  C   C9        1.0  0.1419832414274325  0.017088239101056505  0.3282386226029247  1.0000
  C   C10       1.0  0.6419882751529755  0.48291765805427644  0.17176238938549918  1.0000
  C   C11       1.0  0.35801356953264474  0.17175992686712502  0.4829113019202753  1.0000
  C   C12       1.0  0.8580140231930002  0.3282374703938515  0.017087687083311216  1.0000
  C   C13       1.0  0.7500045892369938  0.952522162495974  0.5474775834275294  1.0000
  C   C14       1.0  0.24999934182267938  0.5474754191303787  0.9525188061469552  1.0000
  C   C15       1.0  0.25000065707666147  0.04747467610901171  0.45252156845205604  1.0000
  C   C16       1.0  0.750002401034848  0.45252019590054715  0.04747538984958064  1.0000
  C   C17       1.0  0.7139053264843155  0.8808558067193032  0.11914352823867361  1.0000
  C   C18       1.0  0.21389800001308862  0.6191363932472599  0.38085194685753293  1.0000
  C   C19       1.0  0.7860920646385878  0.3808592134987733  0.6191466519087073  1.0000
  C   C20       1.0  0.2860894094537231  0.11914842922053741  0.8808556403337281  1.0000
  S   S1        1.0  0.5308950257989193  0.8579436896200648  0.14205524429386446  1.0000
  S   S2        1.0  0.03088894918361971  0.6420570296867182  0.35794219991236553  1.0000
  S   S3        1.0  0.9691022832928907  0.35794720418173404  0.6420580693529417  1.0000
  S   S4        1.0  0.46910087795441757  0.1420556126911237  0.8579450138448056  1.0000
  N   N1        1.0  0.853797842110154  0.9012860074414349  0.764189441685382  1.0000
  N   N2        1.0  0.35379429097668685  0.5987140948817287  0.7358100861637314  1.0000
  N   N3        1.0  0.6462085210573109  0.7358098280743663  0.5987121825699407  1.0000
  N   N4        1.0  0.1462037045123949  0.7641889222064933  0.9012860301801099  1.0000
  N   N5        1.0  0.14620740420384234  0.09871206301802721  0.23581026331994084  1.0000
  N   N6        1.0  0.6462086197007294  0.40128890713568666  0.2641896299663245  1.0000
  N   N7        1.0  0.35379438961528104  0.26418824031404853  0.4012886231273286  1.0000
  N   N8        1.0  0.8537933670618755  0.23580915032092517  0.09871257414183535  1.0000
  N   N9        1.0  0.8500883646511993  0.8975522848062667  0.1024510655992686  1.0000
  N   N10       1.0  0.35008448187217306  0.6024498481305187  0.39754971298527425  1.0000
  N   N11       1.0  0.6499067506002021  0.3975519158178926  0.6024527520987066  1.0000
  N   N12       1.0  0.1499087069206553  0.1024494770734989  0.8975525001700009  1.0000
