data_image0
_chemical_formula_structural       Zr12H64C80N24O64
_chemical_formula_sum              "Zr12 H64 C80 N24 O64"
_cell_length_a       15.887308560533667
_cell_length_b       15.906148048597556
_cell_length_c       34.39267779994227
_cell_angle_alpha    89.70622132414678
_cell_angle_beta     90.06084339073365
_cell_angle_gamma    89.80949865343732

_space_group_name_H-M_alt    "P 1"
_space_group_IT_number       1

loop_
  _space_group_symop_operation_xyz
  'x, y, z'

loop_
  _atom_site_type_symbol
  _atom_site_label
  _atom_site_symmetry_multiplicity
  _atom_site_fract_x
  _atom_site_fract_y
  _atom_site_fract_z
  _atom_site_occupancy
  Zr  Zr1       1.0  0.9036530203422615  0.9458696763686231  0.4527548076008402  1.0000
  Zr  Zr2       1.0  0.9117688327064003  0.9497325189683462  0.5555166428538458  1.0000
  Zr  Zr3       1.0  0.060797841468705406  0.10026276595380071  0.44695694027659283  1.0000
  Zr  Zr4       1.0  0.06705444776442701  0.10951255168267687  0.5511562371765281  1.0000
  Zr  Zr5       1.0  0.8737774679417356  0.1386912851570941  0.5010192137001328  1.0000
  Zr  Zr6       1.0  0.0980702825028104  0.913529240032794  0.501178029187628  1.0000
  Zr  Zr7       1.0  0.41192356002154906  0.6013149332731444  0.9519375833067162  1.0000
  Zr  Zr8       1.0  0.4181404907798055  0.5948205246450158  0.054796388190489216  1.0000
  Zr  Zr9       1.0  0.5673415985632886  0.4417927610469689  0.945045222535207  1.0000
  Zr  Zr10      1.0  0.5762607818250772  0.43790103109539996  0.04931246263384281  1.0000
  Zr  Zr11      1.0  0.6053645180367226  0.6303809442983804  0.99982965095947  1.0000
  Zr  Zr12      1.0  0.38073639223972583  0.4084346084660381  0.0008546617731539997  1.0000
  H   H1        1.0  0.9421588628288049  0.8128306801218129  0.5018144102204617  1.0000
  H   H2        1.0  0.9003855304026872  0.11637666611353126  0.582888102592051  1.0000
  H   H3        1.0  0.19613021823892043  0.07950010034888778  0.5011444333630595  1.0000
  H   H4        1.0  0.9037352578203155  0.10716665821539807  0.4154861829470421  1.0000
  H   H5        1.0  0.8794384217003711  0.9863307177318601  0.6312842284459496  1.0000
  H   H6        1.0  0.9970930830121958  0.0357211507713515  0.6191091295081039  1.0000
  H   H7        1.0  0.15672540894968992  0.24732928131749787  0.5527262809069386  1.0000
  H   H8        1.0  0.2075987094928635  0.17940732451322106  0.423615703614722  1.0000
  H   H9        1.0  0.07971914345508682  0.06955567112201066  0.37212488818966  1.0000
  H   H10       1.0  0.8401279479261845  0.9475500779508578  0.3748974954345103  1.0000
  H   H11       1.0  0.7599307150217671  0.8607311330842361  0.45356458959307855  1.0000
  H   H12       1.0  0.8049388656348243  0.8490929498438714  0.5092289867723496  1.0000
  H   H13       1.0  0.13757194322476352  0.24744460309060656  0.4333138541695619  1.0000
  H   H14       1.0  0.9209060818590302  0.8884761294711293  0.37898107997303765  1.0000
  H   H15       1.0  0.75646973077464  0.8767986711687993  0.5490959958322678  1.0000
  H   H16       1.0  0.09581679542622372  0.0568067377541439  0.6252492929138286  1.0000
  H   H17       1.0  0.2806504174370801  0.5617407984768333  0.0008647002641595  1.0000
  H   H18       1.0  0.5856769465708355  0.6023165932408856  0.08191375420677363  1.0000
  H   H19       1.0  0.5340630362314158  0.30685949877062046  0.9996462244281052  1.0000
  H   H20       1.0  0.5720036392235458  0.6026310959804987  0.9146940618660725  1.0000
  H   H21       1.0  0.454949630212333  0.6207957113861226  0.13070151302652994  1.0000
  H   H22       1.0  0.5043408655544114  0.5059133433422999  0.11771338472493655  1.0000
  H   H23       1.0  0.7193483916601126  0.3512209923775628  0.04646614411782221  1.0000
  H   H24       1.0  0.672513868953871  0.33980107764535455  0.9912100866940539  1.0000
  H   H25       1.0  0.5369602823778267  0.42094215794256923  0.8706334330744314  1.0000
  H   H26       1.0  0.41219634336948735  0.6694375648913462  0.8752713926574603  1.0000
  H   H27       1.0  0.3268630936471197  0.7457741320931249  0.9545111990896022  1.0000
  H   H28       1.0  0.31458485723612734  0.7001172729703596  0.008553357226283302  1.0000
  H   H29       1.0  0.7193037652380526  0.36565927686189065  0.9505018826568876  1.0000
  H   H30       1.0  0.35282698572648036  0.5889916677180337  0.8772982574201864  1.0000
  H   H31       1.0  0.26465573963233874  0.6859029944677387  0.04994779700005132  1.0000
  H   H32       1.0  0.5273160553881908  0.40717561808042985  0.12432090546065673  1.0000
  H   H33       1.0  0.4071321777092862  0.1444064693608453  0.9350780287724736  1.0000
  H   H34       1.0  0.5094826831294129  0.22871644223417312  0.8692542911512648  1.0000
  H   H35       1.0  0.5596412627908975  0.9067888647194803  0.9390583307529641  1.0000
  H   H36       1.0  0.4648008695850692  0.819597076328243  0.8719892078028197  1.0000
  H   H37       1.0  0.879197204519997  0.5882256874372728  0.06297537752941203  1.0000
  H   H38       1.0  0.789685091264957  0.49073748401963246  0.12897599800087534  1.0000
  H   H39       1.0  0.1156305416665759  0.4423090355360768  0.06707127188115443  1.0000
  H   H40       1.0  0.19968028073752464  0.5449378788155244  0.13252000168418485  1.0000
  H   H41       1.0  0.8765074949044732  0.5965869402438954  0.9378129688153226  1.0000
  H   H42       1.0  0.7877161932418701  0.4959440314269656  0.87299370714716  1.0000
  H   H43       1.0  0.11374129073649193  0.4461759642930969  0.9354219890136835  1.0000
  H   H44       1.0  0.19774403287474482  0.5422089713597416  0.8675422221865009  1.0000
  H   H45       1.0  0.522051489937894  0.22229879297751146  0.1310890938616609  1.0000
  H   H46       1.0  0.4159833743207457  0.14202462888081865  0.06575943259137772  1.0000
  H   H47       1.0  0.5673054882561601  0.8992261526864737  0.06292387529516932  1.0000
  H   H48       1.0  0.4666838320369778  0.8138340586562972  0.12898632329775955  1.0000
  H   H49       1.0  0.9608549491906473  0.7323235372841805  0.6315923800985105  1.0000
  H   H50       1.0  0.0652029048672986  0.6485988580567649  0.5665133457730678  1.0000
  H   H51       1.0  0.9084398405205365  0.4111063240764493  0.563304728733556  1.0000
  H   H52       1.0  0.012957550163172  0.3226169785620101  0.6275058061197714  1.0000
  H   H53       1.0  0.9692409234878171  0.732445027522324  0.3672317203040763  1.0000
  H   H54       1.0  0.0593218965266402  0.6475805187494641  0.43686203968622567  1.0000
  H   H55       1.0  0.910746325222796  0.412384500909283  0.43950973619903533  1.0000
  H   H56       1.0  0.009468864996442502  0.3221669038598306  0.37433587430285103  1.0000
  H   H57       1.0  0.3626818973200798  0.9427918815082132  0.5661212590967397  1.0000
  H   H58       1.0  0.2786565079772387  0.045371806297367784  0.6316231602174726  1.0000
  H   H59       1.0  0.6885616212583016  0.9968834448936047  0.6296903756543915  1.0000
  H   H60       1.0  0.6020268152640824  0.09805505869508827  0.5637839920246963  1.0000
  H   H61       1.0  0.2780467010588055  0.039227390518789186  0.36712056196602577  1.0000
  H   H62       1.0  0.3639724524427876  0.9468195094785726  0.4358764735103551  1.0000
  H   H63       1.0  0.6886600345454498  0.0016306986801736996  0.3719551121383376  1.0000
  H   H64       1.0  0.5977049441500527  0.09395559540536878  0.4387680688619825  1.0000
  C   C1        1.0  0.7338956194240964  0.06064363850219928  0.440458890656224  1.0000
  C   C2        1.0  0.0296489859899438  0.7835303851125345  0.5658807983014641  1.0000
  C   C3        1.0  0.7375123689102098  0.062455670155308986  0.5629857209309962  1.0000
  C   C4        1.0  0.0288601487214564  0.7833680063722568  0.43574315043702694  1.0000
  C   C5        1.0  0.2279600831493198  0.9794670307551172  0.4352394182730564  1.0000
  C   C6        1.0  0.9474839306928474  0.2766433578349916  0.5607472693137441  1.0000
  C   C7        1.0  0.2274180795177472  0.9777087310386533  0.5658112531307395  1.0000
  C   C8        1.0  0.9476935785435644  0.2769827207285046  0.4417644754384186  1.0000
  C   C9        1.0  0.9854971076176542  0.4556885796956534  0.36846927107467325  1.0000
  C   C10       1.0  0.9883929165329732  0.5235537990694181  0.310394538211142  1.0000
  C   C11       1.0  0.9897071808352892  0.598245199777601  0.366276615543157  1.0000
  C   C12       1.0  0.41257757014874846  0.017644220049390896  0.36523650967394883  1.0000
  C   C13       1.0  0.4872337455145655  0.017135433442291487  0.3091400261558378  1.0000
  C   C14       1.0  0.5551496950593346  0.0224990287682232  0.3670275060413247  1.0000
  C   C15       1.0  0.41246054386267167  0.020142789513876394  0.6349244572879942  1.0000
  C   C16       1.0  0.4856142614189666  0.021308229117465795  0.6914852921707962  1.0000
  C   C17       1.0  0.5552066437391971  0.022245657770319793  0.634100145017648  1.0000
  C   C18       1.0  0.98529181457792  0.45549172706427027  0.6333279104164266  1.0000
  C   C19       1.0  0.9863953408495618  0.598173272253291  0.6347897723264995  1.0000
  C   C20       1.0  0.9861240890710974  0.5235123901102411  0.6910115880697705  1.0000
  C   C21       1.0  0.4927842932065971  0.9467270994880007  0.13330078733559256  1.0000
  C   C22       1.0  0.4938048808093569  0.08936115255028197  0.13421648677655904  1.0000
  C   C23       1.0  0.4921363176003126  0.01575149316488479  0.19073818481189878  1.0000
  C   C24       1.0  0.525507881972736  0.7712906569346528  0.9400458730152725  1.0000
  C   C25       1.0  0.2501155676250377  0.4792649682960572  0.065832478067847  1.0000
  C   C26       1.0  0.5325105984519639  0.7640217355940562  0.06283051460952292  1.0000
  C   C27       1.0  0.2491093032817489  0.4781555822157768  0.9354688338764494  1.0000
  C   C28       1.0  0.4431455715631571  0.2790810658382623  0.9353294295838386  1.0000
  C   C29       1.0  0.744439931640649  0.5514694517349665  0.06024424312251852  1.0000
  C   C30       1.0  0.45225145677655126  0.2762893195341291  0.06529709197042882  1.0000
  C   C31       1.0  0.7416118310095784  0.5584229810162712  0.940038643506924  1.0000
  C   C32       1.0  0.9228728594861836  0.5178894199986385  0.13430604709615326  1.0000
  C   C33       1.0  0.9918020672723812  0.5196413786720411  0.19199295951466414  1.0000
  C   C34       1.0  0.06579341351575613  0.5185489578603181  0.13576063461150065  1.0000
  C   C35       1.0  0.4877708035556195  0.9526095975073613  0.867543923761048  1.0000
  C   C36       1.0  0.4845726498378795  0.09508039192606078  0.8661633941440033  1.0000
  C   C37       1.0  0.48637821560856764  0.021819338486253097  0.8098647075463749  1.0000
  C   C38       1.0  0.920991976313971  0.5221573811469895  0.8672854317754359  1.0000
  C   C39       1.0  0.06373280139025891  0.5198317896667887  0.8656128751770498  1.0000
  C   C40       1.0  0.9892832687668901  0.5216695002731125  0.8094407336018254  1.0000
  C   C41       1.0  0.4412576395690877  0.19267632371683158  0.9189618764463747  1.0000
  C   C42       1.0  0.48052834450768245  0.17689646871357917  0.8852138109442723  1.0000
  C   C43       1.0  0.5271186413898192  0.8576570331151242  0.9229865862434824  1.0000
  C   C44       1.0  0.4912915549558364  0.8720476785093182  0.8881836982073995  1.0000
  C   C45       1.0  0.8296032774891061  0.5545218775477777  0.07838468385769913  1.0000
  C   C46       1.0  0.8425331810548471  0.5188043648093553  0.11339881884435243  1.0000
  C   C47       1.0  0.16390132362505483  0.4771108523915755  0.08275000246283072  1.0000
  C   C48       1.0  0.1479883097408816  0.5159460346008657  0.11657085400177185  1.0000
  C   C49       1.0  0.8274939633160303  0.5618408622287773  0.9226047714078336  1.0000
  C   C50       1.0  0.8407769213919281  0.5245048297896487  0.8881647349899499  1.0000
  C   C51       1.0  0.1626402924228429  0.47811149793241003  0.9187805456831202  1.0000
  C   C52       1.0  0.1462832296651868  0.5155172169655057  0.8845042715140257  1.0000
  C   C53       1.0  0.4916225525421609  0.1717495047699984  0.11506349559198986  1.0000
  C   C54       1.0  0.45131177802184663  0.18944165757734047  0.08166842991419543  1.0000
  C   C55       1.0  0.533389026725537  0.8507835763158196  0.07901455978019102  1.0000
  C   C56       1.0  0.49535571309883153  0.8659794112264975  0.11315252430107142  1.0000
  C   C57       1.0  0.9873671622547846  0.5217726773560186  0.7679192281518328  1.0000
  C   C58       1.0  0.9866451452592174  0.5217835915971775  0.7325775763733022  1.0000
  C   C59       1.0  0.4864889857673447  0.020820010870941996  0.7683534538906402  1.0000
  C   C60       1.0  0.48649065866841573  0.02102761045985349  0.7330190013404521  1.0000
  C   C61       1.0  0.48943548603735115  0.015369374600083998  0.26763886111246654  1.0000
  C   C62       1.0  0.4907825800264476  0.014724823373221297  0.23230413882197357  1.0000
  C   C63       1.0  0.9901608060218337  0.5205842269813415  0.2335384804138344  1.0000
  C   C64       1.0  0.9892068757273478  0.5214378012825306  0.2688672536587761  1.0000
  C   C65       1.0  0.9900825863788398  0.6805910348740767  0.6157641340722224  1.0000
  C   C66       1.0  0.03045039895975071  0.6968304803944249  0.5822807827210001  1.0000
  C   C67       1.0  0.9441367164645841  0.3620765160045635  0.5783442982959884  1.0000
  C   C68       1.0  0.9829206469400449  0.37544557617183455  0.612507911869905  1.0000
  C   C69       1.0  0.9940558442702141  0.6807373748983918  0.3848103461391689  1.0000
  C   C70       1.0  0.029170612675500307  0.6967604862291877  0.4194981221461875  1.0000
  C   C71       1.0  0.9449280579409347  0.3629550906324112  0.42425374747123373  1.0000
  C   C72       1.0  0.9820140109867526  0.3756913948053437  0.3896132210173136  1.0000
  C   C73       1.0  0.31420172535256796  0.9765687513440322  0.5822207717042645  1.0000
  C   C74       1.0  0.33042512510965605  0.016259044068014792  0.6157435587120832  1.0000
  C   C75       1.0  0.6361442567743795  0.025427782492258192  0.613827859313503  1.0000
  C   C76       1.0  0.6508496872093305  0.06362976504433247  0.5795788161849417  1.0000
  C   C77       1.0  0.3303079037462808  0.013763463291084596  0.38416864746727714  1.0000
  C   C78       1.0  0.3148550320445693  0.9780980447674847  0.4189110855351431  1.0000
  C   C79       1.0  0.6351986329645243  0.027279280084002294  0.38791032070029985  1.0000
  C   C80       1.0  0.6479719961429568  0.06244325371884679  0.4228518047873708  1.0000
  N   N1        1.0  0.9889046392390242  0.44944683559485543  0.3293447527852608  1.0000
  N   N2        1.0  0.9874332645575736  0.5998876194783521  0.327049498073798  1.0000
  N   N3        1.0  0.9872077774640787  0.5283085628560542  0.38844517476457  1.0000
  N   N4        1.0  0.41091176994638806  0.018488646739434993  0.3259990340368973  1.0000
  N   N5        1.0  0.561512925284987  0.017547016045455197  0.3279562520817125  1.0000
  N   N6        1.0  0.4826572778437139  0.021268402874781586  0.387215813766723  1.0000
  N   N7        1.0  0.40983287307395955  0.023479842307089892  0.6741195321364446  1.0000
  N   N8        1.0  0.560421590473304  0.019258780278278195  0.6732593609787261  1.0000
  N   N9        1.0  0.48329993245032205  0.0209800872457677  0.6134072038337168  1.0000
  N   N10       1.0  0.9856738427680796  0.5280737382823019  0.6129873068224969  1.0000
  N   N11       1.0  0.9833235536119034  0.5997464901117837  0.6739881657566544  1.0000
  N   N12       1.0  0.9887465351059462  0.44933867129360994  0.6724852982334542  1.0000
  N   N13       1.0  0.4935025549370167  0.01891786847515679  0.11267128718213833  1.0000
  N   N14       1.0  0.49669257949136647  0.09155678209121729  0.17342984517411253  1.0000
  N   N15       1.0  0.48861970941926103  0.9413580434138279  0.17247622317250946  1.0000
  N   N16       1.0  0.9173321822920002  0.5158005379758063  0.17347311476558505  1.0000
  N   N17       1.0  0.0678732044374613  0.5226672085221435  0.17493470810693176  1.0000
  N   N18       1.0  0.9953045897412808  0.517733801426452  0.11398272553058324  1.0000
  N   N19       1.0  0.4860249750242573  0.02448362949352399  0.8879648932852862  1.0000
  N   N20       1.0  0.4878450110239569  0.09758129782329658  0.8269689853607078  1.0000
  N   N21       1.0  0.48482217971598385  0.9471710360039792  0.8284116722880912  1.0000
  N   N22       1.0  0.9936429163147836  0.5207040122734907  0.8875513106587366  1.0000
  N   N23       1.0  0.06561989294054629  0.5233916528503569  0.8264290268210888  1.0000
  N   N24       1.0  0.9150602822893391  0.5196966593296534  0.8281418226340664  1.0000
  O   O1        1.0  0.7790789046905147  0.9970139370135126  0.4308980852170877  1.0000
  O   O2        1.0  0.7554995151891505  0.11956601120073164  0.4630388448195007  1.0000
  O   O3        1.0  0.9695675761491459  0.8309369716353598  0.5767859132233826  1.0000
  O   O4        1.0  0.08724055082509351  0.8032464612145986  0.5415003185066569  1.0000
  O   O5        1.0  0.7831945686082236  0.9994125915878556  0.5730127179244849  1.0000
  O   O6        1.0  0.7595332980078453  0.12251990046745928  0.5406692892922751  1.0000
  O   O7        1.0  0.9714222946635047  0.8334272834559114  0.42334724345970204  1.0000
  O   O8        1.0  0.08327360919619052  0.8002524698682618  0.4617262001130627  1.0000
  O   O9        1.0  0.8144243273676182  0.8502709143466304  0.46557680897128534  1.0000
  O   O10       1.0  0.8981610827375733  0.9448719691554214  0.38397171004100283  1.0000
  O   O11       1.0  0.8093238743053632  0.8533384779186474  0.5396374977160792  1.0000
  O   O12       1.0  0.9277353861397729  0.9705505893724077  0.6156596283741325  1.0000
  O   O13       1.0  0.8720195044942898  0.0085091622106432  0.5024293312863152  1.0000
  O   O14       1.0  0.956582193769819  0.8721019711253529  0.5018775248251829  1.0000
  O   O15       1.0  0.18103097872275242  0.03995828875552119  0.4236217264421783  1.0000
  O   O16       1.0  0.20789955593215131  0.9227268498048459  0.45969413952682475  1.0000
  O   O17       1.0  0.0118678711487377  0.23273315390820665  0.5696922328972253  1.0000
  O   O18       1.0  0.8872312331015522  0.254092718409197  0.5384302384109818  1.0000
  O   O19       1.0  0.1766392233620024  0.032113970365863095  0.5790745654177913  1.0000
  O   O20       1.0  0.21136868340448703  0.9254519715912648  0.5385383740198578  1.0000
  O   O21       1.0  0.0151012364859682  0.23569843772618523  0.43546517882224134  1.0000
  O   O22       1.0  0.8840832094927863  0.25082634490279787  0.4608744442463007  1.0000
  O   O23       1.0  0.1708535266500704  0.20060983915372074  0.4440955917205543  1.0000
  O   O24       1.0  0.0454101389748942  0.10543014725035957  0.3884832423081549  1.0000
  O   O25       1.0  0.1659393152087389  0.18795774319151798  0.5479100425260202  1.0000
  O   O26       1.0  0.0432036322038059  0.08210504918516649  0.6162427889445754  1.0000
  O   O27       1.0  0.13891671232202193  0.05825915930036268  0.49929603108798676  1.0000
  O   O28       1.0  0.0016594726108679  0.13989277100631634  0.4997549425871882  1.0000
  O   O29       1.0  0.031725405430592  0.976133291320714  0.4580100330887548  1.0000
  O   O30       1.0  0.9244927920469977  0.09170048584831388  0.5596808750335784  1.0000
  O   O31       1.0  0.920620031424491  0.08507709097609249  0.4407388067267207  1.0000
  O   O32       1.0  0.03373105671571611  0.9795063532349955  0.5425509635356321  1.0000
  O   O33       1.0  0.4615303309626597  0.726800163125837  0.9305535330080874  1.0000
  O   O34       1.0  0.5853777790237585  0.7483194780306872  0.9621426200067307  1.0000
  O   O35       1.0  0.295258280308218  0.5422422694945225  0.07536072689799773  1.0000
  O   O36       1.0  0.27132167097079934  0.42059471393348946  0.04260828836289221  1.0000
  O   O37       1.0  0.4722596608188638  0.7171249598262148  0.07419231417738102  1.0000
  O   O38       1.0  0.5912089117660244  0.7431409635055174  0.03941303857125431  1.0000
  O   O39       1.0  0.29925955913776653  0.5351644477139104  0.9230999304993407  1.0000
  O   O40       1.0  0.26592085327895626  0.4239688790710544  0.9617984689257217  1.0000
  O   O41       1.0  0.3157602841717306  0.6908342658158942  0.9659074776802686  1.0000
  O   O42       1.0  0.40889840870880795  0.6107829712854309  0.8834215040075581  1.0000
  O   O43       1.0  0.3201564874762682  0.6973697982674593  0.039310866495576115  1.0000
  O   O44       1.0  0.4392040812546583  0.5728511273022221  0.11495635667798612  1.0000
  O   O45       1.0  0.47476787785777935  0.633909500658774  0.0019695686972838007  1.0000
  O   O46       1.0  0.34009413608290373  0.5477154264661266  0.0013306584131243  1.0000
  O   O47       1.0  0.5020013273428674  0.3265192063783714  0.9232376202718701  1.0000
  O   O48       1.0  0.38772573705747965  0.29827996228059556  0.9607750110118547  1.0000
  O   O49       1.0  0.7003812867478204  0.48705869092068343  0.06909678853585183  1.0000
  O   O50       1.0  0.7223224327080331  0.6116293823371635  0.03777153262102931  1.0000
  O   O51       1.0  0.5117195483908646  0.3242194056043388  0.07653276975489832  1.0000
  O   O52       1.0  0.3954150332837401  0.2955588589285227  0.04052467403242591  1.0000
  O   O53       1.0  0.7000540213655384  0.49226370361907357  0.9329349995688081  1.0000
  O   O54       1.0  0.7161956796384318  0.6209736045791201  0.9602483888779934  1.0000
  O   O55       1.0  0.6668741040639576  0.3425138066467424  0.9606390246523167  1.0000
  O   O56       1.0  0.5694045466781859  0.4583686134746471  0.8869863726595074  1.0000
  O   O57       1.0  0.6646930162341107  0.34278994843582206  0.03438484210098382  1.0000
  O   O58       1.0  0.5516816629493562  0.4595175523482736  0.11476398337674006  1.0000
  O   O59       1.0  0.5206721298253215  0.3664659063647945  0.9989475096575976  1.0000
  O   O60       1.0  0.6041241264663028  0.5026987008781062  0.9985729052967829  1.0000
  O   O61       1.0  0.44268947473201353  0.4741026236769342  0.957899971710859  1.0000
  O   O62       1.0  0.5607388541161596  0.5782629678698683  0.05877124875117802  1.0000
  O   O63       1.0  0.5500906445851116  0.5838363317770713  0.9396355459981085  1.0000
  O   O64       1.0  0.44737868340773457  0.4716914394213417  0.04318816318102851  1.0000
