data_image0
_chemical_formula_structural       Co2H24C38N8O8
_chemical_formula_sum              "Co2 H24 C38 N8 O8"
_cell_length_a       7.779156514404594
_cell_length_b       9.283228949979852
_cell_length_c       12.829392167327834
_cell_angle_alpha    105.22575091330204
_cell_angle_beta     100.58332291637485
_cell_angle_gamma    109.15655439256574

_space_group_name_H-M_alt    "P 1"
_space_group_IT_number       1

loop_
  _space_group_symop_operation_xyz
  'x, y, z'

loop_
  _atom_site_type_symbol
  _atom_site_label
  _atom_site_symmetry_multiplicity
  _atom_site_fract_x
  _atom_site_fract_y
  _atom_site_fract_z
  _atom_site_occupancy
  Co  Co1       1.0  0.7700600454003208  0.06758922756051082  0.2229105654413033  1.0000
  Co  Co2       1.0  0.047038894192461024  0.8450888036554641  0.7768946127245968  1.0000
  H   H1        1.0  0.6492127413478385  0.38732245687551625  0.5748115484183742  1.0000
  H   H2        1.0  0.5738409843229062  0.8108318358713614  0.4251272709159295  1.0000
  H   H3        1.0  0.2555537999509596  0.10170106169591259  0.5683027966272434  1.0000
  H   H4        1.0  0.1872286835714334  0.5316709832420229  0.4318922836201153  1.0000
  H   H5        1.0  0.35523075246720737  0.5877174936850976  0.21600239111501196  1.0000
  H   H6        1.0  0.639826763552861  0.3729784535815383  0.7843411476487248  1.0000
  H   H7        1.0  0.38222662345828695  0.5271261731181481  0.8756591151326774  1.0000
  H   H8        1.0  0.00725560942687753  0.6506667323161535  0.12463576841793868  1.0000
  H   H9        1.0  0.6041336003057012  0.2666360555437848  0.36617297283080324  1.0000
  H   H10       1.0  0.7372610421525251  0.8991717313206137  0.6337304068925036  1.0000
  H   H11       1.0  0.13258818713627815  0.24479006904014955  0.8085997734865631  1.0000
  H   H12       1.0  0.8243730498455121  0.43482509036204664  0.1911692709440374  1.0000
  H   H13       1.0  0.05043473733562112  0.9054102797638207  0.15209550510213893  1.0000
  H   H14       1.0  0.39835122239053783  0.7543390354400968  0.8480657162719683  1.0000
  H   H15       1.0  0.3294734995628232  0.8670372265682358  0.2518041246520326  1.0000
  H   H16       1.0  0.578263238275916  0.6162448190897575  0.7486667401861808  1.0000
  H   H17       1.0  0.7837563154728496  0.9378393269359433  0.9984251160325996  1.0000
  H   H18       1.0  0.2847911753577463  0.9392270836494488  0.0009673528372146644  1.0000
  H   H19       1.0  0.42775327329022855  0.9638061491129969  0.46625095735327443  1.0000
  H   H20       1.0  0.46158712742138164  0.49655546945064083  0.5342174291270894  1.0000
  H   H21       1.0  0.8996121968550455  0.36176109743940527  0.7128663780591185  1.0000
  H   H22       1.0  0.6882303165398155  0.6490547442342417  0.2870119340124901  1.0000
  H   H23       1.0  0.09169167769903198  0.21010102304018113  0.6380741833189633  1.0000
  H   H24       1.0  0.9559027529842297  0.5731736075950804  0.36167914848260824  1.0000
  C   C1        1.0  0.09792994650408816  0.9468461014679048  0.24417685112793205  1.0000
  C   C2        1.0  0.35402638170150874  0.7033029047694936  0.756005921191374  1.0000
  C   C3        1.0  0.2531441118412942  0.9242712021701036  0.30025096069409324  1.0000
  C   C4        1.0  0.4533437710337722  0.6245025533562083  0.7001061045372055  1.0000
  C   C5        1.0  0.3084377716480303  0.9793504697622947  0.4182115861331824  1.0000
  C   C6        1.0  0.3905519484288149  0.5606900687549652  0.5821457573187132  1.0000
  C   C7        1.0  0.21182377772018407  0.05826604871743508  0.47620494858322365  1.0000
  C   C8        1.0  0.23589551114913124  0.5811708007471594  0.523976733260362  1.0000
  C   C9        1.0  0.05900433459126479  0.0775231704321868  0.4135232503386277  1.0000
  C   C10       1.0  0.1459240703110112  0.663782180678332  0.5864870595399694  1.0000
  C   C11       1.0  0.9504344948192268  0.16323191224019945  0.4645362733124827  1.0000
  C   C12       1.0  0.9865718939102949  0.6985054371625453  0.5353348669637583  1.0000
  C   C13       1.0  0.9828158574043898  0.2264734436429379  0.5812612138234243  1.0000
  C   C14       1.0  0.903077003253699  0.6456167206340876  0.41859811393758406  1.0000
  C   C15       1.0  0.8752713339114848  0.3087376270068488  0.6223263310689546  1.0000
  C   C16       1.0  0.7540485273903241  0.686284310426863  0.3775442660363666  1.0000
  C   C17       1.0  0.7364304111248855  0.3243906111591599  0.5453321341817343  1.0000
  C   C18       1.0  0.6911176027153445  0.7780392476223952  0.4545395480620514  1.0000
  C   C19       1.0  0.710405166826817  0.2581372989944485  0.430086085520756  1.0000
  C   C20       1.0  0.7800672619481969  0.827079673670333  0.5697722855929683  1.0000
  C   C21       1.0  0.08004018508998458  0.2963405547596024  0.16991004278031602  1.0000
  C   C22       1.0  0.41014984416070627  0.1270539887405135  0.8298553209694859  1.0000
  C   C23       1.0  0.17107463802982883  0.35588798608166866  0.0899966206249303  1.0000
  C   C24       1.0  0.5812570397917085  0.26614133290205183  0.9098447681263269  1.0000
  C   C25       1.0  0.31093450364903663  0.5143039558578264  0.1267174630731418  1.0000
  C   C26       1.0  0.6846922460903286  0.3882547816412723  0.873482327806677  1.0000
  C   C27       1.0  0.386924346837901  0.5761376710276095  0.04978764098414248  1.0000
  C   C28       1.0  0.8377117251154829  0.5266398007239558  0.9505482994934058  1.0000
  C   C29       1.0  0.3201288456168783  0.47827865362582844  0.9344531352132606  1.0000
  C   C30       1.0  0.8862573074532348  0.5433554887523326  0.06572392694383207  1.0000
  C   C31       1.0  0.18179356337154925  0.3221783752473185  0.8970089771428391  1.0000
  C   C32       1.0  0.7852039068956244  0.42431240540307147  0.10286796700808756  1.0000
  C   C33       1.0  0.10752793554709678  0.25842072133372074  0.9743763844629925  1.0000
  C   C34       1.0  0.6333499507900839  0.2836193251936833  0.025329095973290805  1.0000
  C   C35       1.0  0.5368223162979787  0.744888516350002  0.08462020902454263  1.0000
  C   C36       1.0  0.9524459277061652  0.6609569131013372  0.9158790960881688  1.0000
  C   C37       1.0  0.9657750278478189  0.09292725903326729  0.9373362034167272  1.0000
  C   C38       1.0  0.5283719136519665  0.15497593508410284  0.062174298724215815  1.0000
  N   N1        1.0  0.8149286370980916  0.1788692754381528  0.3900479377704187  1.0000
  N   N2        1.0  0.9248853273332072  0.7882345713747794  0.6097844961699367  1.0000
  N   N3        1.0  0.0013505157926800985  0.01955421628573359  0.2991732503221556  1.0000
  N   N4        1.0  0.2024018524159103  0.7206278151597727  0.7008426967377446  1.0000
  N   N5        1.0  0.8921403418548267  0.0512512743468676  0.016991095882154604  1.0000
  N   N6        1.0  0.374951415367093  0.03406951224646799  0.9824685990798799  1.0000
  N   N7        1.0  0.9375608587691104  0.14604508724277568  0.1276985161455713  1.0000
  N   N8        1.0  0.309562452946885  0.01890351203891069  0.8719542199057956  1.0000
  O   O1        1.0  0.5998876107184188  0.789505752294829  0.00934556771763073  1.0000
  O   O2        1.0  0.09065138723899219  0.7807919937227082  0.9911724372669825  1.0000
  O   O3        1.0  0.592798192364512  0.8352332672527607  0.1897853478934195  1.0000
  O   O4        1.0  0.9030858987239653  0.6464578083673939  0.8107849238233769  1.0000
  O   O5        1.0  0.9109582045724948  0.9895776261005264  0.8363140433669116  1.0000
  O   O6        1.0  0.5742714610533354  0.15209376204528266  0.16302362282281282  1.0000
  O   O7        1.0  0.12196720582042529  0.38272214964344187  0.27227149442670406  1.0000
  O   O8        1.0  0.34972243657191626  0.11164292027073229  0.727638792490275  1.0000
