data_image0
_chemical_formula_structural       Nd2H24C42N2O18
_chemical_formula_sum              "Nd2 H24 C42 N2 O18"
_cell_length_a       9.25499701854502
_cell_length_b       10.607865688553527
_cell_length_c       11.234927795783491
_cell_angle_alpha    60.29321700579604
_cell_angle_beta     79.63554130175136
_cell_angle_gamma    81.2583883829596

_space_group_name_H-M_alt    "P 1"
_space_group_IT_number       1

loop_
  _space_group_symop_operation_xyz
  'x, y, z'

loop_
  _atom_site_type_symbol
  _atom_site_label
  _atom_site_symmetry_multiplicity
  _atom_site_fract_x
  _atom_site_fract_y
  _atom_site_fract_z
  _atom_site_occupancy
  Nd  Nd1       1.0  0.17367267869349226  0.5910917484046151  0.5061977381596352  1.0000
  Nd  Nd2       1.0  0.8263261873019515  0.4089078765431965  0.4938043031936418  1.0000
  H   H1        1.0  0.4606623202267882  0.37491228628756096  0.6212346371515739  1.0000
  H   H2        1.0  0.5393299801639202  0.6250874283434982  0.37876561543686194  1.0000
  H   H3        1.0  0.3906665826664053  0.4470681823400255  0.7212438684075341  1.0000
  H   H4        1.0  0.6093267155051335  0.5529325490574807  0.278757578608847  1.0000
  H   H5        1.0  0.4805134353383522  0.8876340139751021  0.1833427413589278  1.0000
  H   H6        1.0  0.5194877577051501  0.11236475442986198  0.8166540054163323  1.0000
  H   H7        1.0  0.1512133090513998  0.06256864652812061  0.42576957508762103  1.0000
  H   H8        1.0  0.8487765081459102  0.9374214919604569  0.5742298892854907  1.0000
  H   H9        1.0  0.4922646927213491  0.3337066552009276  0.3548135457090355  1.0000
  H   H10       1.0  0.5077187140447635  0.6662955034271789  0.6451797577828418  1.0000
  H   H11       1.0  0.6674635711453333  0.19213531868186354  0.2647591356260008  1.0000
  H   H12       1.0  0.3325264633268006  0.8078655507687245  0.7352391467659205  1.0000
  H   H13       1.0  0.6407380963378202  0.7801344037276081  0.07144373073812459  1.0000
  H   H14       1.0  0.35926509990852656  0.2198664354948221  0.9285544967962027  1.0000
  H   H15       1.0  0.9969379954200546  0.9035953760638834  0.18563194460029564  1.0000
  H   H16       1.0  0.0030610410313016987  0.09641625390938198  0.8143639084429425  1.0000
  H   H17       1.0  0.8141283581564522  0.0144695506223371  0.2978403980701216  1.0000
  H   H18       1.0  0.18586534221577014  0.9855256307187903  0.7021661024604742  1.0000
  H   H19       1.0  0.8128457581887928  0.8562900374763772  0.8702267492714597  1.0000
  H   H20       1.0  0.18714726921961494  0.1436997019670372  0.1297822364038411  1.0000
  H   H21       1.0  0.9792854489579451  0.7416599487183292  0.7453060140493764  1.0000
  H   H22       1.0  0.0207196501840343  0.258343974392929  0.25469504459290704  1.0000
  H   H23       1.0  0.26058297684838994  0.5495557527035403  0.06638079944105617  1.0000
  H   H24       1.0  0.7394279303158696  0.45045790677378517  0.9336169472664724  1.0000
  C   C1        1.0  0.30491528049107336  0.8683707431314288  0.36981776516503856  1.0000
  C   C2        1.0  0.695080630367812  0.13162601793997908  0.6301761524203117  1.0000
  C   C3        1.0  0.3640238044368047  0.0041728109372343005  0.3470249898544253  1.0000
  C   C4        1.0  0.635967575556741  0.9958247620022788  0.6529754422476304  1.0000
  C   C5        1.0  0.2648782148850657  0.09149144947348022  0.3898710582335385  1.0000
  C   C6        1.0  0.7351132730568821  0.9085051476792569  0.6101271154228203  1.0000
  C   C7        1.0  0.3091128662347201  0.21025995737782216  0.39239340472252593  1.0000
  C   C8        1.0  0.6908745541720477  0.7897321998633088  0.6076090721902291  1.0000
  C   C9        1.0  0.45633432796310563  0.24320703510219488  0.35052576154159004  1.0000
  C   C10       1.0  0.5436560542496095  0.7567895210708713  0.6494734761325278  1.0000
  C   C11       1.0  0.5549445026350667  0.160914726803135  0.3029266237034563  1.0000
  C   C12       1.0  0.4450479754465277  0.8390828498314633  0.6970736524776628  1.0000
  C   C13       1.0  0.5125428184878797  0.04094728577636182  0.29970348839167127  1.0000
  C   C14       1.0  0.4874563255056685  0.9590491881036343  0.7002972262054147  1.0000
  C   C15       1.0  0.20063906100912735  0.3024595911853681  0.43944174585129053  1.0000
  C   C16       1.0  0.7993587995643024  0.6975389797114177  0.5605600091708568  1.0000
  C   C17       1.0  0.6265015524769665  0.9680707508609462  0.24079553833959727  1.0000
  C   C18       1.0  0.3734954029816676  0.03192575291345889  0.7592045800025392  1.0000
  C   C19       1.0  0.6863110480141685  0.8368986964958793  0.11311272554370085  1.0000
  C   C20       1.0  0.31368666543312423  0.16310216153571128  0.886885373498487  1.0000
  C   C21       1.0  0.837083632703063  0.8354744923702101  0.11227678368660325  1.0000
  C   C22       1.0  0.16291927790399538  0.16452946063545676  0.8877236787007309  1.0000
  C   C23       1.0  0.8807907285390185  0.9021834875606131  0.18032519210538586  1.0000
  C   C24       1.0  0.11920652157810707  0.0978226222506891  0.8196751181971181  1.0000
  C   C25       1.0  0.7774396248631134  0.9667606758684215  0.24333478164973607  1.0000
  C   C26       1.0  0.2225570525974234  0.033238978973813005  0.7566666634485915  1.0000
  C   C27       1.0  0.9393315705672195  0.7647134650887678  0.04263732435955349  1.0000
  C   C28       1.0  0.060678353692374294  0.23528507188478184  0.9573645317259438  1.0000
  C   C29       1.0  0.9087308976287292  0.7863065311832498  0.9157389996961459  1.0000
  C   C30       1.0  0.09127689255605989  0.21369079890585846  0.08426635836642053  1.0000
  C   C31       1.0  0.0017599058123067986  0.7241473765031828  0.8444985446098984  1.0000
  C   C32       1.0  0.998249840756401  0.2758532984668348  0.1555032878829081  1.0000
  C   C33       1.0  0.1284669146046227  0.6375364298080726  0.8988339204061334  1.0000
  C   C34       1.0  0.8715480596886068  0.3624674892743655  0.1011666430445501  1.0000
  C   C35       1.0  0.16160623548822167  0.616234939658213  0.02441112522152624  1.0000
  C   C36       1.0  0.8384076559993333  0.3837690502983051  0.9755877779564559  1.0000
  C   C37       1.0  0.06778538452522298  0.6787422735936275  0.09687432300896154  1.0000
  C   C38       1.0  0.9322306802148645  0.3212616118993026  0.9031269926176083  1.0000
  C   C39       1.0  0.10378035713041102  0.649607101254247  0.2333918244857288  1.0000
  C   C40       1.0  0.8962333490250671  0.3503989894141526  0.7666079631963784  1.0000
  C   C41       1.0  0.22529632443232828  0.5738960909904377  0.8152823600102014  1.0000
  C   C42       1.0  0.7747102358206419  0.42610359710755574  0.18471768179970385  1.0000
  N   N1        1.0  0.5892779726653927  0.9027620176179172  0.1735865264949367  1.0000
  N   N2        1.0  0.41072632931018654  0.0972388625841845  0.8264106370216383  1.0000
  O   O1        1.0  0.3921361679986148  0.7529987187248111  0.3989180275620114  1.0000
  O   O2        1.0  0.60785730786381  0.24699987467622728  0.6010834430470596  1.0000
  O   O3        1.0  0.1683263928783845  0.8690243025415043  0.3681210494387487  1.0000
  O   O4        1.0  0.8316674450351796  0.1309715499221298  0.6318691053491395  1.0000
  O   O5        1.0  0.0648801518742133  0.28897820506063  0.4479498819425346  1.0000
  O   O6        1.0  0.9351104084355979  0.7110303934224689  0.5520422593247218  1.0000
  O   O7        1.0  0.2549388056326194  0.3871907304263472  0.4663359449766349  1.0000
  O   O8        1.0  0.7450563558505934  0.6128002159015082  0.5336695387215898  1.0000
  O   O9        1.0  0.0036525398680353973  0.6000849122424726  0.3387583816517434  1.0000
  O   O10       1.0  0.9963545003754889  0.39992228118052947  0.6612409676144112  1.0000
  O   O11       1.0  0.2286546951968305  0.6760069166884933  0.2419844868019965  1.0000
  O   O12       1.0  0.7713578503630956  0.3239861894725991  0.7580193866653889  1.0000
  O   O13       1.0  0.19509606336669796  0.630223964458395  0.6910214903673548  1.0000
  O   O14       1.0  0.8049069322652116  0.369778900906752  0.3089794378647355  1.0000
  O   O15       1.0  0.32706985978374803  0.47657073890658813  0.8659521637645115  1.0000
  O   O16       1.0  0.6729324313478031  0.5234280331934614  0.1340444270898048  1.0000
  O   O17       1.0  0.38264082223658846  0.440567995088749  0.6371450404717296  1.0000
  O   O18       1.0  0.617358832312256  0.559436133254586  0.3628513491943294  1.0000
