data_image0
_chemical_formula_structural       Cs2H22C24N4O14
_chemical_formula_sum              "Cs2 H22 C24 N4 O14"
_cell_length_a       4.943348921129588
_cell_length_b       11.427322760356818
_cell_length_c       13.912095684235847
_cell_angle_alpha    91.05831337332778
_cell_angle_beta     103.07024000548988
_cell_angle_gamma    85.48820583436596

_space_group_name_H-M_alt    "P 1"
_space_group_IT_number       1

loop_
  _space_group_symop_operation_xyz
  'x, y, z'

loop_
  _atom_site_type_symbol
  _atom_site_label
  _atom_site_symmetry_multiplicity
  _atom_site_fract_x
  _atom_site_fract_y
  _atom_site_fract_z
  _atom_site_occupancy
  Cs  Cs1       1.0  0.7833633779279268  0.9559069486274583  0.8632808292579385  1.0000
  Cs  Cs2       1.0  0.21663570612248859  0.04409136782700783  0.1367214627637807  1.0000
  H   H1        1.0  0.3220966710166948  0.5902404618507191  0.2821773525187226  1.0000
  H   H2        1.0  0.6779188420174052  0.40976292196961583  0.7178256585837914  1.0000
  H   H3        1.0  0.4494612212018295  0.7659494040745971  0.20661393722571122  1.0000
  H   H4        1.0  0.5505646434979141  0.23405416241537588  0.7933921759131692  1.0000
  H   H5        1.0  0.9692021314294265  0.5465486133952385  0.054914072205463134  1.0000
  H   H6        1.0  0.030801150481536907  0.4534503152825877  0.9450850297876061  1.0000
  H   H7        1.0  0.8412050853391759  0.3684542710743487  0.12925612276124807  1.0000
  H   H8        1.0  0.15879190212896083  0.6315455317491399  0.8707432995700373  1.0000
  H   H9        1.0  0.6839780351723804  0.6045134809908249  0.6856552857736347  1.0000
  H   H10       1.0  0.31601887111271754  0.3954880511212052  0.31434439094658023  1.0000
  H   H11       1.0  0.1945515010896415  0.5537708515790387  0.5354993676255688  1.0000
  H   H12       1.0  0.8054332552553659  0.4462244961019408  0.4644961455962715  1.0000
  H   H13       1.0  0.2466860346452435  0.6945604886705398  0.4071827871253575  1.0000
  H   H14       1.0  0.7533028053468838  0.30543648680200874  0.5928133226869292  1.0000
  H   H15       1.0  0.6084718830632382  0.9309235428716248  0.4846191958118027  1.0000
  H   H16       1.0  0.3915251044048986  0.06907625995186353  0.5153802265194898  1.0000
  H   H17       1.0  0.5477459035980347  0.7900018591767336  0.610973179928486  1.0000
  H   H18       1.0  0.4522510838700952  0.20999794364675486  0.3890262424027995  1.0000
  H   H19       1.0  0.6709271675552343  0.2448120933515767  0.23132204767161113  1.0000
  H   H20       1.0  0.329067656314784  0.7551894895089434  0.7686774579478525  1.0000
  H   H21       1.0  0.7992918239482022  0.1185772870735988  0.2742016320896852  1.0000
  H   H22       1.0  0.2007028989205395  0.8814255968432649  0.7258002472567995  1.0000
  C   C1        1.0  0.5718500845057689  0.4658474001028595  0.21177915960056742  1.0000
  C   C2        1.0  0.42815099321556  0.5341541732562619  0.788220152875141  1.0000
  C   C3        1.0  0.46425203965883094  0.581235243795092  0.23259251328138933  1.0000
  C   C4        1.0  0.535759436925744  0.41876579033346695  0.7674090675901796  1.0000
  C   C5        1.0  0.5335858336725607  0.6790359534360562  0.19007799913969592  1.0000
  C   C6        1.0  0.4664318835511735  0.3209647857029766  0.8099248014801859  1.0000
  C   C7        1.0  0.7143862387079452  0.6661129133145568  0.12469794439565621  1.0000
  C   C8        1.0  0.2856252312705506  0.33388797806993864  0.8753043429219503  1.0000
  C   C9        1.0  0.8251968128833056  0.5533836260374799  0.10359826309703384  1.0000
  C   C10       1.0  0.17480642843614896  0.44661616728461695  0.8964009660904964  1.0000
  C   C11       1.0  0.7547842349173235  0.4554167090516401  0.1453560753030843  1.0000
  C   C12       1.0  0.24521479437436963  0.5445839076676366  0.8546436453234278  1.0000
  C   C13       1.0  0.8640645642317537  0.6605804540639185  0.5799756344617465  1.0000
  C   C14       1.0  0.13592418136517637  0.33941796520904444  0.420022142631538  1.0000
  C   C15       1.0  0.06524230580373569  0.635913756156775  0.5225730054970087  1.0000
  C   C16       1.0  0.9347465275823126  0.36408307657170996  0.47742381076131574  1.0000
  C   C17       1.0  0.09487494866608157  0.713834841089849  0.4519476541198486  1.0000
  C   C18       1.0  0.9051097604813236  0.28616122849133774  0.5480486927424906  1.0000
  C   C19       1.0  0.9286737098596943  0.8205052763380326  0.43897305247099894  1.0000
  C   C20       1.0  0.07131503573724268  0.17949314293493054  0.5610247246222855  1.0000
  C   C21       1.0  0.7340918813909098  0.8480414850235433  0.497152107859776  1.0000
  C   C22       1.0  0.2659009884446562  0.15195769739671056  0.5028461386294936  1.0000
  C   C23       1.0  0.7019299304110902  0.7697491917761712  0.567091111896552  1.0000
  C   C24       1.0  0.2980608570094034  0.23025004139257282  0.4329069634919591  1.0000
  N   N1        1.0  0.7851796287058335  0.7651546445910429  0.07933860086544807  1.0000
  N   N2        1.0  0.2148359994967421  0.23484600255240914  0.9206647350996989  1.0000
  N   N3        1.0  0.9601714721517283  0.9035323160188401  0.3682638624489556  1.0000
  N   N4        1.0  0.03982135048624969  0.09646758830162135  0.6317352176808129  1.0000
  O   O1        1.0  0.5062961570673963  0.3730339580199813  0.2520947399950799  1.0000
  O   O2        1.0  0.4937007086261857  0.62696843873632  0.7479050639196033  1.0000
  O   O3        1.0  0.6826328563153935  0.8668607384838152  0.09650615706117799  1.0000
  O   O4        1.0  0.3173827652811028  0.13313976591557264  0.9034978853500064  1.0000
  O   O5        1.0  0.9506049097522506  0.7522128799346605  0.022224000444055005  1.0000
  O   O6        1.0  0.04940860204980879  0.24778882534561575  0.9777785851687639  1.0000
  O   O7        1.0  0.8329636608690336  0.5795601123232785  0.6422434345581963  1.0000
  O   O8        1.0  0.1670312441840238  0.42043974124869277  0.35775581667233075  1.0000
  O   O9        1.0  0.1341525596041748  0.8807662116700996  0.31612653735264473  1.0000
  O   O10       1.0  0.8658442994833278  0.1192360423421377  0.6838739730080761  1.0000
  O   O11       1.0  0.8113190329224123  0.9994782917685046  0.361224875741904  1.0000
  O   O12       1.0  0.18867378310948618  0.0005214698078929744  0.6387749108339023  1.0000
  O   O13       1.0  0.7517972279191126  0.166286909079723  0.21376358525565564  1.0000
  O   O14       1.0  0.24820174756890626  0.8337142867956827  0.7862376754573859  1.0000
