data_image0
_chemical_formula_structural       Cu2H40C40N4O8
_chemical_formula_sum              "Cu2 H40 C40 N4 O8"
_cell_length_a       8.730829104497353
_cell_length_b       13.936717636576475
_cell_length_c       14.658961707154646
_cell_angle_alpha    90.0025902963448
_cell_angle_beta     99.01211937533019
_cell_angle_gamma    89.99944919904854

_space_group_name_H-M_alt    "P 1"
_space_group_IT_number       1

loop_
  _space_group_symop_operation_xyz
  'x, y, z'

loop_
  _atom_site_type_symbol
  _atom_site_label
  _atom_site_symmetry_multiplicity
  _atom_site_fract_x
  _atom_site_fract_y
  _atom_site_fract_z
  _atom_site_occupancy
  Cu  Cu1       1.0  0.5000035507389881  0.49999898089324557  0.5000004401843299  1.0000
  Cu  Cu2       1.0  0.5000001961187905  6.48351715400001e-07  1.2169629997077023e-06  1.0000
  H   H1        1.0  0.49635503124370234  0.5154520427931217  0.272939131115244  1.0000
  H   H2        1.0  0.503610707547324  0.0154379294430598  0.22702103979379024  1.0000
  H   H3        1.0  0.5036394616010256  0.4845502243420869  0.7270674892553757  1.0000
  H   H4        1.0  0.4963611803380417  0.9845629020236972  0.7729570329769118  1.0000
  H   H5        1.0  0.5333437507622707  0.7326009278549677  0.4669453628444415  1.0000
  H   H6        1.0  0.4666780977825269  0.2325921683060415  0.03303782646664639  1.0000
  H   H7        1.0  0.4666588445206372  0.2674027743143199  0.5330612708892417  1.0000
  H   H8        1.0  0.5333368711240497  0.7674222963657868  0.9669521317139597  1.0000
  H   H9        1.0  0.11167731830740732  0.3311857032929026  0.3512344575283067  1.0000
  H   H10       1.0  0.8883374719994279  0.8311951438587432  0.14876669001451856  1.0000
  H   H11       1.0  0.8883335409821244  0.6688093886816731  0.648779707766522  1.0000
  H   H12       1.0  0.11165687400171011  0.1687985127656972  0.8512330952524678  1.0000
  H   H13       1.0  0.2075906388198447  0.26359014486559573  0.2721493836518931  1.0000
  H   H14       1.0  0.7924255181235367  0.7636024856826751  0.2278455650432321  1.0000
  H   H15       1.0  0.7924120446007733  0.7364035119939275  0.7278613508198004  1.0000
  H   H16       1.0  0.2075745964504137  0.236392605961889  0.7721533510020889  1.0000
  H   H17       1.0  0.1592693973465487  0.38645013071906226  0.2507249577691013  1.0000
  H   H18       1.0  0.8407334943079973  0.8864639166008959  0.2492741323723422  1.0000
  H   H19       1.0  0.8407274734413406  0.6135428086008119  0.7492845954635072  1.0000
  H   H20       1.0  0.1592724329046362  0.11352902246704838  0.7507259648509078  1.0000
  H   H21       1.0  0.8046182861664946  0.3403085992896208  0.2977243997128625  1.0000
  H   H22       1.0  0.1953939121243806  0.8403197293169099  0.20226600172872367  1.0000
  H   H23       1.0  0.1953922353387227  0.6596879273705769  0.7022740452962282  1.0000
  H   H24       1.0  0.8046051015941135  0.1596803850970403  0.7977355488453385  1.0000
  H   H25       1.0  0.7815813229785036  0.2366215328142403  0.3631510315500464  1.0000
  H   H26       1.0  0.2184266672023583  0.736630132396634  0.13683455239728906  1.0000
  H   H27       1.0  0.21842344463409097  0.7633764289582958  0.6368489662338774  1.0000
  H   H28       1.0  0.7815723171393782  0.2633721345721156  0.8631656312386153  1.0000
  H   H29       1.0  0.8849946143384528  0.3383702938261949  0.41777105074212534  1.0000
  H   H30       1.0  0.11501530219472761  0.8383783551478106  0.0822204359127028  1.0000
  H   H31       1.0  0.11500781940728189  0.6616283854614623  0.5822280644723676  1.0000
  H   H32       1.0  0.8849860600693306  0.16162462941254327  0.9177826807992631  1.0000
  H   H33       1.0  0.48924527201297247  0.6328022840129606  0.14272237594772716  1.0000
  H   H34       1.0  0.5107304748950768  0.13278642350459796  0.3572464264035133  1.0000
  H   H35       1.0  0.5107410890197883  0.3671992655848514  0.8572828640910897  1.0000
  H   H36       1.0  0.48925198148403837  0.8672086678652775  0.6427386935901963  1.0000
  H   H37       1.0  0.5288093244267814  0.859378260476433  0.3452410493362237  1.0000
  H   H38       1.0  0.4712132751433772  0.3593687998715397  0.1547531108293967  1.0000
  H   H39       1.0  0.47119324148532366  0.140624724131392  0.6547642173981387  1.0000
  H   H40       1.0  0.5287960867528696  0.64063705466765  0.8452452348321132  1.0000
  C   C1        1.0  0.3505631658694668  0.367574676969511  0.3598930058772325  1.0000
  C   C2        1.0  0.6494512531566629  0.8675815555951587  0.1400994401681928  1.0000
  C   C3        1.0  0.6494427760263336  0.6324196971727644  0.6401077748686176  1.0000
  C   C4        1.0  0.35055010911930407  0.1324156887326637  0.859903676421446  1.0000
  C   C5        1.0  0.639635081890532  0.35839736030379044  0.3914476133753125  1.0000
  C   C6        1.0  0.36036882141267773  0.8584080662439393  0.1085380777511986  1.0000
  C   C7        1.0  0.3603683792754638  0.6415984487206998  0.6085454498962477  1.0000
  C   C8        1.0  0.6396302069904678  0.1415927657152665  0.8914641563301658  1.0000
  C   C9        1.0  0.5026384212440007  0.5926907549408895  0.286180613210135  1.0000
  C   C10       1.0  0.4973386076257497  0.0926796378553618  0.21378452871576306  1.0000
  C   C11       1.0  0.49735489732496757  0.40731151217924844  0.713825224122111  1.0000
  C   C12       1.0  0.502644964265194  0.9073247813426734  0.7861986405470489  1.0000
  C   C13       1.0  0.5236720183844598  0.7132036942450526  0.3939489237127773  1.0000
  C   C14       1.0  0.4763371845304079  0.21319691046349482  0.1060337108834446  1.0000
  C   C15       1.0  0.4763281696083084  0.28679713771303744  0.6060534099149493  1.0000
  C   C16       1.0  0.5236709296533989  0.7868118140959128  0.8939604343407908  1.0000
  C   C17       1.0  0.19900612831895614  0.3335127258029332  0.3050847804312369  1.0000
  C   C18       1.0  0.8010074339981513  0.8335220148158913  0.19491363277415993  1.0000
  C   C19       1.0  0.80099652572639  0.6664823660823345  0.6949245870870085  1.0000
  C   C20       1.0  0.1989950438149464  0.16647235934595267  0.8050875328246292  1.0000
  C   C21       1.0  0.4935953268470428  0.32932018954286235  0.3417980148497223  1.0000
  C   C22       1.0  0.5064123080601419  0.82932807118042  0.1581928869833291  1.0000
  C   C23       1.0  0.5064082371175047  0.6706777721822021  0.6581998329118051  1.0000
  C   C24       1.0  0.49358674971827543  0.17067132575304814  0.8418107140514834  1.0000
  C   C25       1.0  0.786866294684529  0.3152929197922916  0.36655638479297886  1.0000
  C   C26       1.0  0.21313904987820112  0.8152999543674614  0.1334323530878763  1.0000
  C   C27       1.0  0.21313958845776432  0.6847057594595968  0.6334416620765565  1.0000
  C   C28       1.0  0.7868576593442285  0.1847015951230588  0.8665696819160685  1.0000
  C   C29       1.0  0.4987704671435012  0.6580351389703979  0.21390936366426422  1.0000
  C   C30       1.0  0.5012146280169248  0.15801738803925502  0.286069512373281  1.0000
  C   C31       1.0  0.501219402031886  0.3419656931273708  0.7860975419823573  1.0000
  C   C32       1.0  0.4987759601726652  0.8419791383970862  0.7139169879675364  1.0000
  C   C33       1.0  0.5209114523620003  0.7836218276242947  0.3260818209123855  1.0000
  C   C34       1.0  0.47910095183370066  0.2836046195005153  0.1739047968897651  1.0000
  C   C35       1.0  0.4790877082134699  0.2163804395388169  0.6739265646276847  1.0000
  C   C36       1.0  0.5209071036174393  0.7163983647615667  0.8260866142440905  1.0000
  C   C37       1.0  0.4915969013034741  0.2567166744309901  0.2669901616427239  1.0000
  C   C38       1.0  0.5084051634963345  0.756720923682913  0.2329937304807501  1.0000
  C   C39       1.0  0.5084031104510842  0.7432863099199382  0.7330039701267026  1.0000
  C   C40       1.0  0.4915892852914395  0.2432806258746396  0.7670108393985372  1.0000
  N   N1        1.0  0.5147979311624695  0.6190763734408409  0.3750343316352343  1.0000
  N   N2        1.0  0.4851976297766001  0.11906325963473559  0.1249376285255082  1.0000
  N   N3        1.0  0.48520353390161836  0.3809280462910322  0.6249735695514147  1.0000
  N   N4        1.0  0.5147986829080083  0.8809440296510187  0.875045952316384  1.0000
  O   O1        1.0  0.33477483862463936  0.4313802758557442  0.42014585674938587  1.0000
  O   O2        1.0  0.6652393009729495  0.9313798909721103  0.0798486251128594  1.0000
  O   O3        1.0  0.6652346554632871  0.5686176860094819  0.5798586401720556  1.0000
  O   O4        1.0  0.33475853847723164  0.0686166357814244  0.9201521423463747  1.0000
  O   O5        1.0  0.66022087890115  0.42060070471216454  0.4557979184834906  1.0000
  O   O6        1.0  0.3397840727665836  0.9206005838156699  0.04419735805258539  1.0000
  O   O7        1.0  0.3397815401509945  0.5794015622046302  0.5442005133154453  1.0000
  O   O8        1.0  0.6602196086826596  0.0793995306261763  0.9558059576909343  1.0000
