data_image0
_chemical_formula_structural       Zn4H32C48S4N16Cl8
_chemical_formula_sum              "Zn4 H32 C48 S4 N16 Cl8"
_cell_length_a       5.369360614014459
_cell_length_b       12.810266193707639
_cell_length_c       20.03866195180204
_cell_angle_alpha    100.75420384990784
_cell_angle_beta     90.00025937089178
_cell_angle_gamma    90.00000220070359

_space_group_name_H-M_alt    "P 1"
_space_group_IT_number       1

loop_
  _space_group_symop_operation_xyz
  'x, y, z'

loop_
  _atom_site_type_symbol
  _atom_site_label
  _atom_site_symmetry_multiplicity
  _atom_site_fract_x
  _atom_site_fract_y
  _atom_site_fract_z
  _atom_site_occupancy
  Zn  Zn1       1.0  0.7981871194632008  0.5433303299632042  0.3197239701521185  1.0000
  Zn  Zn2       1.0  0.2981822859526774  0.9566683084217543  0.18027236873161462  1.0000
  Zn  Zn3       1.0  0.20181187854586816  0.45666746716219103  0.6802749124958681  1.0000
  Zn  Zn4       1.0  0.7018148496615524  0.0433286616076742  0.8197294059902877  1.0000
  H   H1        1.0  0.9394351997396059  0.7701314530934908  0.36090738277844286  1.0000
  H   H2        1.0  0.4394389784355255  0.729867214111813  0.13909162678802292  1.0000
  H   H3        1.0  0.0605582110128751  0.22986713859162222  0.6390915980521257  1.0000
  H   H4        1.0  0.5605674692576627  0.2701297776093057  0.860908154432295  1.0000
  H   H5        1.0  0.2503482105936854  0.8792451473303301  0.43735470283958494  1.0000
  H   H6        1.0  0.7503524482506947  0.6207518396119767  0.0626453661377226  1.0000
  H   H7        1.0  0.7496600994826111  0.12074950408835858  0.5626407968086157  1.0000
  H   H8        1.0  0.24965027459415268  0.379247552058267  0.9373532145079937  1.0000
  H   H9        1.0  0.48864152882089235  0.5885017111104531  0.49899253528548854  1.0000
  H   H10       1.0  0.9886503266421939  0.9114953485015178  0.0010098288357625242  1.0000
  H   H11       1.0  0.511351881924881  0.411494502314639  0.5010056526098553  1.0000
  H   H12       1.0  0.011344946534450197  0.08850403232233359  0.9989897485589696  1.0000
  H   H13       1.0  0.1532359770757949  0.4941519890297953  0.4247672569404913  1.0000
  H   H14       1.0  0.6532441475267916  0.005846564798389399  0.0752330768285603  1.0000
  H   H15       1.0  0.8467481215985585  0.5058473755244605  0.5752338155777751  1.0000
  H   H16       1.0  0.3467474008132426  0.9941504269197805  0.9247667043823287  1.0000
  H   H17       1.0  0.2607883508475838  0.0331400427273749  0.5913293870973038  1.0000
  H   H18       1.0  0.7607872441744661  0.4668608984498021  0.9086736016484027  1.0000
  H   H19       1.0  0.7392125096024245  0.9668585218469091  0.4086720856223211  1.0000
  H   H20       1.0  0.23921361624620371  0.5331416823083115  0.0913243749868684  1.0000
  H   H21       1.0  0.567885293797346  0.09491140953306848  0.6849077009953675  1.0000
  H   H22       1.0  0.0678864506590031  0.40509103353618064  0.8150962366995035  1.0000
  H   H23       1.0  0.4321099794103134  0.9050895224552135  0.3150955614096773  1.0000
  H   H24       1.0  0.9321050976659464  0.5949115472200928  0.18490173992987746  1.0000
  H   H25       1.0  0.32928797929932335  0.8688523318335512  0.7936545792176377  1.0000
  H   H26       1.0  0.82929090901564  0.6311486202510678  0.7063483048955348  1.0000
  H   H27       1.0  0.670707293881513  0.13114306534123438  0.2063455040002395  1.0000
  H   H28       1.0  0.1707080889909136  0.3688547496450455  0.2936502683015406  1.0000
  H   H29       1.0  0.0020211097425218  0.8022997032950128  0.7087347550022687  1.0000
  H   H30       1.0  0.5020217448395456  0.697701902915007  0.7912688097922855  1.0000
  H   H31       1.0  0.9979778882740932  0.19769728842462797  0.2912650262133384  1.0000
  H   H32       1.0  0.4979865652828508  0.30230462353642196  0.2087321496626374  1.0000
  C   C1        1.0  0.06304807132496389  0.7342649253398361  0.39353843869972854  1.0000
  C   C2        1.0  0.5630549129389664  0.7657319820140387  0.10646189157007772  1.0000
  C   C3        1.0  0.9369490642599274  0.2657320826468208  0.6064598473840946  1.0000
  C   C4        1.0  0.436949672348483  0.2342657880001511  0.8935394829657856  1.0000
  C   C5        1.0  0.23938412585179233  0.7936382689170287  0.43475577373416036  1.0000
  C   C6        1.0  0.7393884099861623  0.7063611027887189  0.06524407754623239  1.0000
  C   C7        1.0  0.760626046659567  0.20635954447796215  0.5652416137902989  1.0000
  C   C8        1.0  0.2606199001278497  0.2936374780544213  0.934755900047499  1.0000
  C   C9        1.0  0.39939419105759555  0.7417274741900141  0.47343997973291624  1.0000
  C   C10       1.0  0.8993959639277662  0.7582687717872502  0.026560678097169395  1.0000
  C   C11       1.0  0.6006085317780291  0.2582671555377232  0.5265575134192133  1.0000
  C   C12       1.0  0.1006030341005797  0.24173138733078045  0.9734404926166466  1.0000
  C   C13       1.0  0.3695954537043562  0.6322135794855511  0.4699588247466267  1.0000
  C   C14       1.0  0.8696047383473485  0.8677850329536199  0.030042588303963707  1.0000
  C   C15       1.0  0.6304072691438378  0.3677850122014092  0.5300401560898395  1.0000
  C   C16       1.0  0.13039612209259838  0.13221593157053488  0.9699576838434115  1.0000
  C   C17       1.0  0.18466992131099147  0.5791698013284544  0.42863733934332526  1.0000
  C   C18       1.0  0.6846817649806951  0.9208271379184509  0.07136464001015953  1.0000
  C   C19       1.0  0.8153160397716094  0.42082719038860716  0.5713624418640252  1.0000
  C   C20       1.0  0.31531350821690296  0.0791722157931005  0.9286374292689107  1.0000
  C   C21       1.0  0.5925646545709284  0.8024090156018102  0.5149332644476489  1.0000
  C   C22       1.0  0.0925649382133429  0.6975878970535305  0.9850663372026321  1.0000
  C   C23       1.0  0.4074343434272407  0.1975864086860213  0.4850643268882422  1.0000
  C   C24       1.0  0.907437784645751  0.3024130674709936  0.014933934945915397  1.0000
  C   C25       1.0  0.9133316083735892  0.8797423482789597  0.591157437518824  1.0000
  C   C26       1.0  0.413339919798254  0.6202570588093081  0.9088443598548822  1.0000
  C   C27       1.0  0.0866655272372938  0.1202593999603607  0.40884392956604654  1.0000
  C   C28       1.0  0.586672115160752  0.37974787852120057  0.09115640323015839  1.0000
  C   C29       1.0  0.10404946413184037  0.9126608479177063  0.6426831423847903  1.0000
  C   C30       1.0  0.6040605185105719  0.5873431823777082  0.8573208461230168  1.0000
  C   C31       1.0  0.8959420842241173  0.0873393057763892  0.35731852670117803  1.0000
  C   C32       1.0  0.39595337887847387  0.4126641277907339  0.1426812082752917  1.0000
  C   C33       1.0  0.267506487190758  0.995756025608088  0.6359155815816281  1.0000
  C   C34       1.0  0.7675120654245262  0.5042488693947007  0.8640882136371745  1.0000
  C   C35       1.0  0.7324887859984628  0.004243338948377599  0.3640854909437082  1.0000
  C   C36       1.0  0.2324943822728613  0.4957600515837654  0.13591204362118964  1.0000
  C   C37       1.0  0.4411681715287018  0.028897775341462796  0.6866866568452182  1.0000
  C   C38       1.0  0.9411747735150799  0.4711056209459414  0.8133168547899389  1.0000
  C   C39       1.0  0.5588252392447259  0.9711007892313505  0.31331481586968835  1.0000
  C   C40       1.0  0.0588335365888781  0.5288993380736784  0.18668191478526813  1.0000
  C   C41       1.0  0.3072942878767577  0.9025368827850995  0.7479502945077814  1.0000
  C   C42       1.0  0.80730357235862  0.5974680225510126  0.7520540494539462  1.0000
  C   C43       1.0  0.692700985310779  0.09746089264971397  0.25205058164532096  1.0000
  C   C44       1.0  0.19270660017453883  0.40253851474570723  0.24794591324841522  1.0000
  C   C45       1.0  0.1260432538616243  0.8655522527467525  0.7001050342551096  1.0000
  C   C46       1.0  0.6260533441320605  0.6344533753791592  0.7998991784642372  1.0000
  C   C47       1.0  0.8739501569059345  0.13444870635346007  0.2998957362644178  1.0000
  C   C48       1.0  0.3739568284086445  0.3655563347384143  0.20010167535946266  1.0000
  S   S1        1.0  0.7555659838767569  0.759744339697086  0.579640026231978  1.0000
  S   S2        1.0  0.2555651807705246  0.740254215779501  0.920360974871983  1.0000
  S   S3        1.0  0.24443860138806883  0.2402518683077589  0.4203586600473131  1.0000
  S   S4        1.0  0.7444375420986235  0.2597483270217538  0.07964049040254653  1.0000
  N   N1        1.0  0.03490130573351989  0.6289554405223398  0.39076048475669023  1.0000
  N   N2        1.0  0.5349081974645316  0.8710430610751201  0.10923851112637101  1.0000
  N   N3        1.0  0.9650883801789903  0.37104156204038213  0.6092382996992785  1.0000
  N   N4        1.0  0.46509638781873264  0.12895471436153366  0.8907623650326217  1.0000
  N   N5        1.0  0.6621035846373999  0.8978948886782732  0.5057173993364756  1.0000
  N   N6        1.0  0.16210588257919772  0.6021012623748945  0.9942816937750368  1.0000
  N   N7        1.0  0.3378879636976038  0.1021013139015281  0.49428178531142936  1.0000
  N   N8        1.0  0.837902427532299  0.397898913012362  0.005717981814072487  1.0000
  N   N9        1.0  0.8398662689915568  0.9418468166653042  0.5489580640357092  1.0000
  N   N10       1.0  0.3398715632115099  0.5581525613318021  0.9510436403430734  1.0000
  N   N11       1.0  0.16012527937194682  0.0581525316230369  0.45104450361787946  1.0000
  N   N12       1.0  0.6601386093266726  0.44185078687667806  0.04895692636855391  1.0000
  N   N13       1.0  0.46210782642783244  0.9825429977517642  0.7415146413885624  1.0000
  N   N14       1.0  0.9621134916931384  0.5174619851535667  0.7584884034044921  1.0000
  N   N15       1.0  0.5378948964320998  0.017454783106984496  0.2584857363923874  1.0000
  N   N16       1.0  0.0378910935800789  0.4825461466861682  0.24151125728970166  1.0000
  Cl  Cl1       1.0  0.5493415380688448  0.6570168741314645  0.28265400921156214  1.0000
  Cl  Cl2       1.0  0.04932801217304219  0.8429864276572304  0.21734310216951513  1.0000
  Cl  Cl3       1.0  0.45066490960675054  0.3429833229452726  0.7173436728688929  1.0000
  Cl  Cl4       1.0  0.9506598113320592  0.15701374230351206  0.78265707178349  1.0000
  Cl  Cl5       1.0  0.6968290496885672  0.3991900090899492  0.36368660834040173  1.0000
  Cl  Cl6       1.0  0.19682532773409633  0.1008054650913337  0.13630591220409374  1.0000
  Cl  Cl7       1.0  0.3031643610370907  0.600807026008283  0.6363091858567245  1.0000
  Cl  Cl8       1.0  0.80317180788181  0.8991930940597542  0.8636960588900424  1.0000
