data_image0
_chemical_formula_structural       Zn8H80C160N16O48
_chemical_formula_sum              "Zn8 H80 C160 N16 O48"
_cell_length_a       15.185326762520086
_cell_length_b       15.681580755723548
_cell_length_c       24.740540449089867
_cell_angle_alpha    107.68191571098346
_cell_angle_beta     107.85709271154695
_cell_angle_gamma    89.98524493912117

_space_group_name_H-M_alt    "P 1"
_space_group_IT_number       1

loop_
  _space_group_symop_operation_xyz
  'x, y, z'

loop_
  _atom_site_type_symbol
  _atom_site_label
  _atom_site_symmetry_multiplicity
  _atom_site_fract_x
  _atom_site_fract_y
  _atom_site_fract_z
  _atom_site_occupancy
  Zn  Zn1       1.0  0.8464981911845229  0.0710341569995663  0.1997791253208874  1.0000
  Zn  Zn2       1.0  0.4080161146018853  0.6334775069160302  0.32907934570055636  1.0000
  Zn  Zn3       1.0  0.35300758076451905  0.5710173519509425  0.19977167506937127  1.0000
  Zn  Zn4       1.0  0.9207198993095388  0.13342182193898822  0.32904946876325886  1.0000
  Zn  Zn5       1.0  0.6469953629055284  0.4289811133084029  0.8002292529962887  1.0000
  Zn  Zn6       1.0  0.07928128524925887  0.8665792982862683  0.670949985870152  1.0000
  Zn  Zn7       1.0  0.15350288127950767  0.9289609419696705  0.8002209719568826  1.0000
  Zn  Zn8       1.0  0.591982096546026  0.36652096129981976  0.6709216990088934  1.0000
  H   H1        1.0  0.5149768524088714  0.34609205978458146  0.17699965645469015  1.0000
  H   H2        1.0  0.6308590047437193  0.23151441555403807  0.1801358534842308  1.0000
  H   H3        1.0  0.7272400263304494  0.3342659739928493  0.37209822560308237  1.0000
  H   H4        1.0  0.6119610899882062  0.44996049609211036  0.3689747739618738  1.0000
  H   H5        1.0  0.09302513829351977  0.352449616002069  0.348485661033152  1.0000
  H   H6        1.0  0.20628751110007212  0.4718385852640311  0.3516120787546555  1.0000
  H   H7        1.0  0.10078985810251603  0.3989563683836295  0.15984589335640462  1.0000
  H   H8        1.0  0.9864212451701275  0.28030570271209143  0.15688319908158388  1.0000
  H   H9        1.0  0.8429551503428313  0.12265546639542892  0.09282958702386424  1.0000
  H   H10       1.0  0.7695212966127868  0.06020174418640779  0.9804363062162694  1.0000
  H   H11       1.0  0.6426763835160614  0.836037457299348  0.00628461946232049  1.0000
  H   H12       1.0  0.7211892466539568  0.9080862238185077  0.11748829510298722  1.0000
  H   H13       1.0  0.4573564403134825  0.0167468285335346  0.8204506096465709  1.0000
  H   H14       1.0  0.39645793738395724  0.9588603454839487  0.7076472406234162  1.0000
  H   H15       1.0  0.6783792087936861  0.6275461193768095  0.707374790388741  1.0000
  H   H16       1.0  0.7353701808968367  0.6810504002146871  0.8203281225464424  1.0000
  H   H17       1.0  0.38982664147913226  0.5427207107243602  0.41478216325386097  1.0000
  H   H18       1.0  0.4196372618342893  0.5825490614245014  0.5254990110506271  1.0000
  H   H19       1.0  0.5066648458945268  0.8544003311468559  0.5426249799177754  1.0000
  H   H20       1.0  0.47306661005637113  0.8033751368601331  0.43095494939137086  1.0000
  H   H21       1.0  0.6619367862817356  0.8458063713458515  0.17695743695717442  1.0000
  H   H22       1.0  0.549064942060795  0.7314352475954989  0.1801287577493298  1.0000
  H   H23       1.0  0.6441035944406154  0.8345719495926787  0.37206171131710164  1.0000
  H   H24       1.0  0.7564599099343994  0.9500012941199074  0.3689474504157745  1.0000
  H   H25       1.0  0.25536330628449383  0.8525354811476119  0.34834710902610067  1.0000
  H   H26       1.0  0.14523903194952947  0.9720440015657204  0.35153430902043686  1.0000
  H   H27       1.0  0.05875707001424497  0.8988959169298738  0.15974793366908807  1.0000
  H   H28       1.0  0.1701679126806468  0.780141315328521  0.156748226957184  1.0000
  H   H29       1.0  0.24996188759718047  0.6225092684490504  0.09272470310028069  1.0000
  H   H30       1.0  0.21133917906009742  0.5599141510740396  0.9803450847880983  1.0000
  H   H31       1.0  0.36401150895608936  0.33577047546624067  0.006412522597479212  1.0000
  H   H32       1.0  0.3961366968500357  0.40782223350480246  0.1175814779595825  1.0000
  H   H33       1.0  0.36323089354323207  0.5168399231057208  0.8203948935185182  1.0000
  H   H34       1.0  0.31130532709427444  0.4589060013275059  0.7075943423884753  1.0000
  H   H35       1.0  0.029416800161748104  0.12767881443100754  0.7075497277293864  1.0000
  H   H36       1.0  0.08566678811887156  0.18106205244251328  0.8205115012405033  1.0000
  H   H37       1.0  0.024471239016250555  0.0425639801670101  0.41481007197364056  1.0000
  H   H38       1.0  0.10584188929731646  0.08252846460865729  0.5254478958822801  1.0000
  H   H39       1.0  0.035542704890950585  0.35435196793036283  0.5425933337547449  1.0000
  H   H40       1.0  0.9571047035948723  0.3031675314902386  0.43098810102623025  1.0000
  H   H41       1.0  0.3380634099300084  0.15419206989706422  0.8230421353075813  1.0000
  H   H42       1.0  0.450939289016965  0.2685618475741692  0.8198705541061814  1.0000
  H   H43       1.0  0.3558999090282597  0.16542651317254806  0.6279390843245168  1.0000
  H   H44       1.0  0.24354059855136254  0.05000115721389161  0.6310514700826318  1.0000
  H   H45       1.0  0.7446251275451417  0.147458982890349  0.651654820737278  1.0000
  H   H46       1.0  0.8547531244829543  0.027954421111381602  0.6484641565112456  1.0000
  H   H47       1.0  0.9412418621358752  0.101097154108956  0.840251203848034  1.0000
  H   H48       1.0  0.8298258218396625  0.21984775832121536  0.8432522165563585  1.0000
  H   H49       1.0  0.7500393575096994  0.3774885947159774  0.9072799823986772  1.0000
  H   H50       1.0  0.7886624622258367  0.44008703963114465  0.019658273263480918  1.0000
  H   H51       1.0  0.6359854273440957  0.6642259428345055  0.9935863547547116  1.0000
  H   H52       1.0  0.6038630857898682  0.5921721709054919  0.8824172657367059  1.0000
  H   H53       1.0  0.6367655285406639  0.4831639107883561  0.17960630531023725  1.0000
  H   H54       1.0  0.6886890991396725  0.5411011798284804  0.2924065962753489  1.0000
  H   H55       1.0  0.9705898876833672  0.8723169688894998  0.29245120132382857  1.0000
  H   H56       1.0  0.9143424919344695  0.8189316999910972  0.17948835140827415  1.0000
  H   H57       1.0  0.9755282811224505  0.9574357921844481  0.5851889661561175  1.0000
  H   H58       1.0  0.8941549630978399  0.917468636242816  0.47455165715093983  1.0000
  H   H59       1.0  0.9644573426773989  0.6456484479906736  0.45740422971089617  1.0000
  H   H60       1.0  0.04289713964418254  0.6968315483340177  0.5690097317263325  1.0000
  H   H61       1.0  0.485027225835225  0.6539050451303723  0.8230001929871167  1.0000
  H   H62       1.0  0.3691506115831088  0.7684880858443532  0.8198659268202774  1.0000
  H   H63       1.0  0.2727559456221443  0.6657325041994682  0.6279033488025335  1.0000
  H   H64       1.0  0.38803798662587496  0.5500379501390498  0.6310250631509647  1.0000
  H   H65       1.0  0.9069740288322663  0.6475521772598184  0.6515139238048776  1.0000
  H   H66       1.0  0.7937121510861828  0.5281644976311313  0.6483846891791886  1.0000
  H   H67       1.0  0.8992154535970441  0.6010373382800509  0.8401513880047349  1.0000
  H   H68       1.0  0.013582725169463933  0.7196873458796703  0.8431147466191792  1.0000
  H   H69       1.0  0.15704108895461397  0.8773510879562423  0.9071737769427274  1.0000
  H   H70       1.0  0.2304827199627084  0.9398101966722339  0.019568458916865067  1.0000
  H   H71       1.0  0.35733171285463083  0.16396907141756858  0.9937174439342444  1.0000
  H   H72       1.0  0.278816534986092  0.09191561248799472  0.8825137364887682  1.0000
  H   H73       1.0  0.5426517291761214  0.9832623379216516  0.17954904545933917  1.0000
  H   H74       1.0  0.603540833562782  0.041138120237782495  0.29235367166199216  1.0000
  H   H75       1.0  0.3216229317429864  0.37245832589448474  0.29262320437324973  1.0000
  H   H76       1.0  0.2646300045287901  0.3189513613172181  0.17966971710868762  1.0000
  H   H77       1.0  0.6101694509379528  0.45727840378637563  0.585217531325391  1.0000
  H   H78       1.0  0.5803592375479525  0.41745006033740145  0.4745010886908717  1.0000
  H   H79       1.0  0.4933260920588723  0.145600134425365  0.4573752399187968  1.0000
  H   H80       1.0  0.526923852003236  0.19662464865548662  0.5690447271882136  1.0000
  C   C1        1.0  0.48745955450313266  0.4725333988144272  0.2707998398480172  1.0000
  C   C2        1.0  0.5562691505917597  0.4039413645752319  0.27281401663660193  1.0000
  C   C3        1.0  0.5615522118059674  0.3427483599535678  0.219504317960947  1.0000
  C   C4        1.0  0.6253957718055572  0.27926668293362417  0.22112593563598187  1.0000
  C   C5        1.0  0.6849447623859889  0.2761172155730378  0.27620972202846167  1.0000
  C   C6        1.0  0.6799806498987806  0.33737882501453237  0.3296837442979453  1.0000
  C   C7        1.0  0.6161464238337899  0.400984272534643  0.3280119178976477  1.0000
  C   C8        1.0  0.7552135643966195  0.2088401718230344  0.27733843364262617  1.0000
  C   C9        1.0  0.9719714035831757  0.2338789889877261  0.25176639020692454  1.0000
  C   C10       1.0  0.03365791551269128  0.3092726112554728  0.2525831249692203  1.0000
  C   C11       1.0  0.09446659227593567  0.3642641455633396  0.30760521003507085  1.0000
  C   C12       1.0  0.15706160554923804  0.43026692612099277  0.3092776582219586  1.0000
  C   C13       1.0  0.16031150193717283  0.4418719951825381  0.255863828193121  1.0000
  C   C14       1.0  0.09749482398297721  0.38895956575671425  0.20092023553236524  1.0000
  C   C15       1.0  0.03437166839349  0.3231239649055908  0.19933163336335014  1.0000
  C   C16       1.0  0.23657739027344601  0.5046600232323115  0.25790030903024797  1.0000
  C   C17       1.0  0.7974571243440848  0.059770153739329104  0.07132869198826347  1.0000
  C   C18       1.0  0.7569627268412092  0.024925189403340705  0.009502764775739162  1.0000
  C   C19       1.0  0.7000682767979073  0.9437581149923491  0.9855488350382802  1.0000
  C   C20       1.0  0.6860423907777073  0.8997477429661487  0.02378598806942023  1.0000
  C   C21       1.0  0.7290839613260615  0.9390116266210312  0.08508980303248853  1.0000
  C   C22       1.0  0.5896458247096135  0.9536121287570296  0.8931382615941745  1.0000
  C   C23       1.0  0.5518573079908221  0.9161905952612486  0.8270828729008955  1.0000
  C   C24       1.0  0.4835357691869505  0.9582281765279602  0.7955378219726583  1.0000
  C   C25       1.0  0.4496920623985759  0.9261656570000057  0.732736233385154  1.0000
  C   C26       1.0  0.48451364811737135  0.8522099520933253  0.7013130056846111  1.0000
  C   C27       1.0  0.4502646257812161  0.8215745164797923  0.6350942042375182  1.0000
  C   C28       1.0  0.5564084643708326  0.6973963096244304  0.6352294137377471  1.0000
  C   C29       1.0  0.588167051605865  0.7309218008384876  0.7013659516175823  1.0000
  C   C30       1.0  0.6535559548025843  0.6865638635920915  0.73271295199757  1.0000
  C   C31       1.0  0.6853501656223102  0.7166510040714797  0.7955716145518893  1.0000
  C   C32       1.0  0.652963625939897  0.7923995608078159  0.8270417828480066  1.0000
  C   C33       1.0  0.6886007882568422  0.8238982599448761  0.8931940661870641  1.0000
  C   C34       1.0  0.5864504068980382  0.8391423938921676  0.7961226484073621  1.0000
  C   C35       1.0  0.5528149681169979  0.8072776143685733  0.7323216531694784  1.0000
  C   C36       1.0  0.41519320513881297  0.6110268597170787  0.4448318370097298  1.0000
  C   C37       1.0  0.4318434150601648  0.6334043920622178  0.5062292063981958  1.0000
  C   C38       1.0  0.4662052232972871  0.7216007244448477  0.5421751791293802  1.0000
  C   C39       1.0  0.4806573618662355  0.7850042151164092  0.515719545212555  1.0000
  C   C40       1.0  0.4618694694785291  0.7572262984149986  0.45406330295433156  1.0000
  C   C41       1.0  0.7831128798189368  0.9723171126581818  0.27069386322089173  1.0000
  C   C42       1.0  0.7162495349868294  0.9038401849233964  0.27276195082723836  1.0000
  C   C43       1.0  0.6577325407753564  0.8426079390279213  0.21946729502288062  1.0000
  C   C44       1.0  0.5954691761774101  0.7792135425852321  0.2211074334793892  1.0000
  C   C45       1.0  0.5908540575955639  0.776208978558003  0.27619193382524543  1.0000
  C   C46       1.0  0.649161813653464  0.8375220324863122  0.32965328033421326  1.0000
  C   C47       1.0  0.7113976361440706  0.9010223075241157  0.32797400623442036  1.0000
  C   C48       1.0  0.5216835208516102  0.7090088578170677  0.2773385983620003  1.0000
  C   C49       1.0  0.2793546119771406  0.7336971887995958  0.25163403127452716  1.0000
  C   C50       1.0  0.21865539619440005  0.8092292714919154  0.25245592081053303  1.0000
  C   C51       1.0  0.21297459301145244  0.8643535724932931  0.3074888335523839  1.0000
  C   C52       1.0  0.15208808814685437  0.9304225000938757  0.30918626557528484  1.0000
  C   C53       1.0  0.09539494394265091  0.9419772537733593  0.25576932185853  1.0000
  C   C54       1.0  0.103208176493645  0.8889693995459709  0.200808009909025  1.0000
  C   C55       1.0  0.16470573147873319  0.8230709089399608  0.19920049755844363  1.0000
  C   C56       1.0  0.02114847947256494  0.0048131925994284  0.2578314270270213  1.0000
  C   C57       1.0  0.2740142898847608  0.5595735849099625  0.07127742893200663  1.0000
  C   C58       1.0  0.25290288459228794  0.5246825566111754  0.009468623761641514  1.0000
  C   C59       1.0  0.2859891795043626  0.4435398178879312  0.9855815703590951  1.0000
  C   C60       1.0  0.3381026255156386  0.39952313230655523  0.023865443612024282  1.0000
  C   C61       1.0  0.35606910578843537  0.4387912318983282  0.08515394430262553  1.0000
  C   C62       1.0  0.30386889412037016  0.4535467751634314  0.8931509278403027  1.0000
  C   C63       1.0  0.275636358902638  0.4161188164132738  0.8270943866755831  1.0000
  C   C64       1.0  0.3122564521930755  0.4582347598839576  0.7955104987454505  1.0000
  C   C65       1.0  0.28326570040025  0.42617187683472935  0.7326998197978726  1.0000
  C   C66       1.0  0.21711503528679538  0.3521652097066195  0.7013130883251152  1.0000
  C   C67       1.0  0.18493825025058197  0.32161602274039325  0.6350654183443397  1.0000
  C   C68       1.0  0.07911453212717134  0.19746317167060573  0.6353181289514894  1.0000
  C   C69       1.0  0.11365877639838139  0.23093201058571816  0.7014631758789777  1.0000
  C   C70       1.0  0.07965409987773611  0.186605825082971  0.7328398659546808  1.0000
  C   C71       1.0  0.11084614495168672  0.21663005538905367  0.7956980943754388  1.0000
  C   C72       1.0  0.1747302048043977  0.29230786312078283  0.8271381388500033  1.0000
  C   C73       1.0  0.205255421872593  0.3237354879346483  0.8932757156925819  1.0000
  C   C74       1.0  0.2102259387701154  0.3390404634849845  0.7961819583065975  1.0000
  C   C75       1.0  0.1799845483988068  0.3072221104991684  0.7323871674707051  1.0000
  C   C76       1.0  0.029191982691045875  0.1109064111066047  0.4448451983358482  1.0000
  C   C77       1.0  0.07420317071257909  0.1333823458328993  0.5062195587146335  1.0000
  C   C78       1.0  0.07586334899247056  0.22161516621575572  0.5421912158673693  1.0000
  C   C79       1.0  0.034655630322603936  0.28492317910024667  0.5157239624333984  1.0000
  C   C80       1.0  0.9915497598117398  0.2570659645475786  0.4540860909365208  1.0000
  C   C81       1.0  0.21688918340854002  0.0276827299420077  0.7293090862171568  1.0000
  C   C82       1.0  0.2837498323182076  0.09615959717334731  0.727237624888801  1.0000
  C   C83       1.0  0.34226809896100013  0.15739182833529236  0.7805314782587943  1.0000
  C   C84       1.0  0.4045327683594594  0.220785563980769  0.7788918796079899  1.0000
  C   C85       1.0  0.40914606968753753  0.2237887898794781  0.7238075003447693  1.0000
  C   C86       1.0  0.350837499699317  0.1624757214488355  0.6703453435113077  1.0000
  C   C87       1.0  0.28860147702946637  0.0989774575761757  0.6720246267330908  1.0000
  C   C88       1.0  0.4783174029690187  0.2909882158302821  0.7226594901166479  1.0000
  C   C89       1.0  0.7206436813019222  0.2663006965813111  0.7483718539309195  1.0000
  C   C90       1.0  0.7813411463431308  0.1907658839172939  0.7475472537806668  1.0000
  C   C91       1.0  0.7870195616873658  0.1356435675705114  0.6925128619358603  1.0000
  C   C92       1.0  0.8479070698754186  0.0695759635961153  0.6908144985058301  1.0000
  C   C93       1.0  0.9046049981376002  0.05802117047310419  0.7442293076576973  1.0000
  C   C94       1.0  0.8967889599857772  0.11102500758963169  0.7991908583211755  1.0000
  C   C95       1.0  0.8352912695598107  0.17692421723339183  0.8008010642738911  1.0000
  C   C96       1.0  0.9788503771530871  0.9951844908557916  0.7421632934003314  1.0000
  C   C97       1.0  0.7259856180524339  0.4404255851159817  0.9287253745211715  1.0000
  C   C98       1.0  0.7470975357981687  0.4753186123405088  0.9905335188031972  1.0000
  C   C99       1.0  0.7140062841852525  0.5564586263114818  0.014418118549450324  1.0000
  C   C100      1.0  0.6618923257207215  0.6004733129671251  0.9761349061848535  1.0000
  C   C101      1.0  0.6439267582596601  0.5612031899708043  0.9148457263619393  1.0000
  C   C102      1.0  0.6961275753090915  0.5464550573107871  0.10685079945275086  1.0000
  C   C103      1.0  0.7243618912211288  0.5838830353203264  0.17290842368016973  1.0000
  C   C104      1.0  0.6877383054707096  0.5417677261363142  0.20449028357965204  1.0000
  C   C105      1.0  0.7167290722399289  0.5738292538293877  0.26730014875144553  1.0000
  C   C106      1.0  0.7828822780257668  0.6478339265576166  0.29868782174087743  1.0000
  C   C107      1.0  0.8150582707147294  0.6783857732468023  0.3649342910276091  1.0000
  C   C108      1.0  0.9208888874366679  0.802535973645341  0.36468334237115846  1.0000
  C   C109      1.0  0.886345678858092  0.769067812292711  0.2985387062766236  1.0000
  C   C110      1.0  0.920350232497853  0.813391296828435  0.267160926235654  1.0000
  C   C111      1.0  0.889158456531774  0.783365728162643  0.20430282678764666  1.0000
  C   C112      1.0  0.8252708742663017  0.7076912654299079  0.17286238183399402  1.0000
  C   C113      1.0  0.7947452202801697  0.6762663440771917  0.10672602738071657  1.0000
  C   C114      1.0  0.7897754309915398  0.6609600009312899  0.20381830098060055  1.0000
  C   C115      1.0  0.8200178570554755  0.6927790314795884  0.2676135026494464  1.0000
  C   C116      1.0  0.9708063489213502  0.8890926934276564  0.5551539665472448  1.0000
  C   C117      1.0  0.9257929217045061  0.8666167686778294  0.49378013586461844  1.0000
  C   C118      1.0  0.9241341860823981  0.7783846331086296  0.457809294707076  1.0000
  C   C119      1.0  0.9653438208874618  0.7150759204457771  0.4842749376016118  1.0000
  C   C120      1.0  0.008451555997666681  0.7429324717071  0.5459132164801518  1.0000
  C   C121      1.0  0.512538856824023  0.5274630582362788  0.7292011957394424  1.0000
  C   C122      1.0  0.4437284617814614  0.5960537226169792  0.7271853948505936  1.0000
  C   C123      1.0  0.4384480533344189  0.6572507540947825  0.7804953923985495  1.0000
  C   C124      1.0  0.3746086361053429  0.7207351413646708  0.7788754180553213  1.0000
  C   C125      1.0  0.31505679257850977  0.7238825930342543  0.7237913419125236  1.0000
  C   C126      1.0  0.320018153417145  0.6626189946434948  0.6703185102275385  1.0000
  C   C127      1.0  0.3838514276945377  0.5990121870101743  0.6719892501138532  1.0000
  C   C128      1.0  0.2447866533981939  0.7911609436451742  0.7226607482525794  1.0000
  C   C129      1.0  0.0280310318238862  0.766119442278715  0.748232652361665  1.0000
  C   C130      1.0  0.9663459235762984  0.690723121306867  0.7474149679482737  1.0000
  C   C131      1.0  0.9055352659395055  0.6357335789047622  0.6923918089417143  1.0000
  C   C132      1.0  0.8429409976678885  0.5697301400440083  0.6907200329845724  1.0000
  C   C133      1.0  0.8396907716131424  0.5581203515991218  0.7441323587639134  1.0000
  C   C134      1.0  0.9025109785867754  0.6110334656074059  0.7990767753099847  1.0000
  C   C135      1.0  0.9656347113678835  0.6768697732568755  0.8006674010708111  1.0000
  C   C136      1.0  0.7634237702858827  0.4953363581190403  0.7420965661810899  1.0000
  C   C137      1.0  0.20254264816306752  0.9402390501276373  0.9286729494782479  1.0000
  C   C138      1.0  0.24303864115740512  0.9750846895319967  0.9904991550996842  1.0000
  C   C139      1.0  0.2999358470287206  0.056246403021802414  0.014453203456042714  1.0000
  C   C140      1.0  0.3139631343144488  0.1002520116952823  0.9762121309821766  1.0000
  C   C141      1.0  0.27092087271667253  0.06099081450509661  0.9149085956598811  1.0000
  C   C142      1.0  0.4103610333728014  0.0463936689139288  0.106860430299804  1.0000
  C   C143      1.0  0.44815069127232476  0.08381787164676521  0.17291516377544983  1.0000
  C   C144      1.0  0.5164694784276166  0.0417783014307886  0.2044614052881855  1.0000
  C   C145      1.0  0.5503091761124708  0.0738374913868469  0.2672641731187825  1.0000
  C   C146      1.0  0.5154845048988577  0.1477938378313652  0.29868577795091517  1.0000
  C   C147      1.0  0.5497292963691862  0.1784252808128528  0.36490615813264077  1.0000
  C   C148      1.0  0.44359034974204553  0.3026075045478862  0.36477071780856113  1.0000
  C   C149      1.0  0.4118363098262919  0.2690826661863071  0.29863325863114915  1.0000
  C   C150      1.0  0.3464486790609059  0.3134405886991872  0.26728545581679  1.0000
  C   C151      1.0  0.3146526875468679  0.2833534289604102  0.20442571019977862  1.0000
  C   C152      1.0  0.3470434712976243  0.20760760921574933  0.17295866557028464  1.0000
  C   C153      1.0  0.3113997028361197  0.1761034820964653  0.10680269829548915  1.0000
  C   C154      1.0  0.41355689712539595  0.160866794547708  0.20387821429515907  1.0000
  C   C155      1.0  0.4471876009679079  0.19272951237918795  0.26767635638520204  1.0000
  C   C156      1.0  0.5848023125030509  0.3889736126439303  0.5551688037693411  1.0000
  C   C157      1.0  0.568152371689578  0.3665947419390889  0.49377156335362576  1.0000
  C   C158      1.0  0.5337902229995352  0.27839701046210763  0.4578223537633123  1.0000
  C   C159      1.0  0.5193372729166654  0.21499556993683203  0.48428014714727413  1.0000
  C   C160      1.0  0.5381255572931423  0.24277484924557058  0.5459376083435218  1.0000
  N   N1        1.0  0.7833798290326257  0.0176587724989545  0.10843149726947844  1.0000
  N   N2        1.0  0.43042069242196856  0.6717985596184023  0.41937907771404076  1.0000
  N   N3        1.0  0.657981705610503  0.9058957517054084  0.9218003602034985  1.0000
  N   N4        1.0  0.4905637066789339  0.7468195757580603  0.6060125658684045  1.0000
  N   N5        1.0  0.3250355534277602  0.5174567949958586  0.10842961428303252  1.0000
  N   N6        1.0  0.9883223002808278  0.17162520315362434  0.41940616675636744  1.0000
  N   N7        1.0  0.264456492502916  0.4056835895219066  0.9218570551137476  1.0000
  N   N8        1.0  0.11558604039302617  0.2468735688904928  0.6060326938058296  1.0000
  N   N9        1.0  0.6749632648645518  0.4825396693060143  0.8915718264666739  1.0000
  N   N10       1.0  0.011677895930915979  0.8283732380892915  0.5805934055083883  1.0000
  N   N11       1.0  0.7355422377049334  0.59432090720113  0.07814375211358993  1.0000
  N   N12       1.0  0.8844128576248805  0.7531295627310968  0.39396676205944914  1.0000
  N   N13       1.0  0.21662394178109426  0.9823477664256259  0.891571087933123  1.0000
  N   N14       1.0  0.5695743343497028  0.3282025880421671  0.5806218335838125  1.0000
  N   N15       1.0  0.3420236756710651  0.0941101069313817  0.07820168963223752  1.0000
  N   N16       1.0  0.5094351697559034  0.2531808816382366  0.3939872803664245  1.0000
  O   O1        1.0  0.4331886600104725  0.4695892457829559  0.21926908784948307  1.0000
  O   O2        1.0  0.48876764541545725  0.5280871193479443  0.32065932409171444  1.0000
  O   O3        1.0  0.7505277618314706  0.15159357307893376  0.2270942259866119  1.0000
  O   O4        1.0  0.8139283427345775  0.21471598246465362  0.3280051031997148  1.0000
  O   O5        1.0  0.9168260981294907  0.18505681473169497  0.2012348188374845  1.0000
  O   O6        1.0  0.9810621580181048  0.2238355393868332  0.30228622706989944  1.0000
  O   O7        1.0  0.24074387014543663  0.509376715923935  0.20823234151621517  1.0000
  O   O8        1.0  0.2941012592203762  0.545344061883256  0.30950686507434716  1.0000
  O   O9        1.0  0.5652843654462956  0.021910281948905205  0.9227513883506192  1.0000
  O   O10       1.0  0.7427045886043759  0.7843619737267601  0.9229475386571411  1.0000
  O   O11       1.0  0.3912944379584361  0.8577441039496705  0.6056442631589293  1.0000
  O   O12       1.0  0.5857126074271476  0.6321750296609565  0.6062064278940512  1.0000
  O   O13       1.0  0.7858843714529729  0.9692986720866444  0.21914172688155995  1.0000
  O   O14       1.0  0.8316691400587216  0.027852342829788802  0.32053452919011255  1.0000
  O   O15       1.0  0.47611376044795145  0.6518272950317935  0.22709787714610744  1.0000
  O   O16       1.0  0.513618488582047  0.7149034928276732  0.32801389965800354  1.0000
  O   O17       1.0  0.2838040247082957  0.6847264712224829  0.20107758424656916  1.0000
  O   O18       1.0  0.3207792815791848  0.7236801383867899  0.3021548148152108  1.0000
  O   O19       1.0  0.9674010894908561  0.009659073312839401  0.20818345254203766  1.0000
  O   O20       1.0  0.015161765435323049  0.04540218251337789  0.3094464475802923  1.0000
  O   O21       1.0  0.35759414151809227  0.5219868586423289  0.9227328706474653  1.0000
  O   O22       1.0  0.18090771734020453  0.2842120604195131  0.9230370975711609  1.0000
  O   O23       1.0  0.21428181458636442  0.3578935601232942  0.6056024140157136  1.0000
  O   O24       1.0  0.020792680375272772  0.13226814451942911  0.6063597628442637  1.0000
  O   O25       1.0  0.2141213736276202  0.030701845350726807  0.7808615088555231  1.0000
  O   O26       1.0  0.16833221053625633  0.9721475120098119  0.6794690902582659  1.0000
  O   O27       1.0  0.5238887588641392  0.34817045368392746  0.77290048974146  1.0000
  O   O28       1.0  0.4863792442556659  0.285092230682949  0.671983632002828  1.0000
  O   O29       1.0  0.7162007194652488  0.31527478723732116  0.798929552689259  1.0000
  O   O30       1.0  0.6792117708745523  0.2763190982867982  0.6978515877574339  1.0000
  O   O31       1.0  0.03260083523682078  0.9903372593120778  0.7918107347378652  1.0000
  O   O32       1.0  0.9848356875083937  0.9545981996459432  0.6905492224981559  1.0000
  O   O33       1.0  0.6424021966607683  0.478017657802468  0.07726900386231962  1.0000
  O   O34       1.0  0.8190929008130895  0.7157850327184151  0.07696206608006415  1.0000
  O   O35       1.0  0.7857106025842808  0.6421089091317143  0.39439741767073144  1.0000
  O   O36       1.0  0.9792110556420254  0.8677276610169573  0.39364236591544005  1.0000
  O   O37       1.0  0.5668102272104819  0.5304078913243515  0.7807324909949714  1.0000
  O   O38       1.0  0.5112287958242592  0.4719080093195274  0.6793423701646619  1.0000
  O   O39       1.0  0.24947534127892385  0.8484089120165806  0.7729065878989873  1.0000
  O   O40       1.0  0.18607360180229196  0.7852831241013475  0.6719942098876645  1.0000
  O   O41       1.0  0.08317379241491112  0.8149416460017918  0.7987658285998408  1.0000
  O   O42       1.0  0.018938703480564836  0.7761648910365365  0.6977121467202352  1.0000
  O   O43       1.0  0.7592560545420214  0.49062099903007095  0.7917641319841595  1.0000
  O   O44       1.0  0.705899733528895  0.4546536845695357  0.6904913614990492  1.0000
  O   O45       1.0  0.43472360386406456  0.9781008956714247  0.07724827587728107  1.0000
  O   O46       1.0  0.2572911483833948  0.21563709704577858  0.07704973283875921  1.0000
  O   O47       1.0  0.608694469348599  0.1422489754962797  0.3943552400698139  1.0000
  O   O48       1.0  0.41428333634653575  0.3678260595278999  0.39379125788608615  1.0000
