data_image0
_chemical_formula_structural       Zn2H48C44N12O4
_chemical_formula_sum              "Zn2 H48 C44 N12 O4"
_cell_length_a       8.101895883
_cell_length_b       10.591180284402308
_cell_length_c       12.2466
_cell_angle_alpha    90.0
_cell_angle_beta     90.0
_cell_angle_gamma    97.89181790879016

_space_group_name_H-M_alt    "P 1"
_space_group_IT_number       1

loop_
  _space_group_symop_operation_xyz
  'x, y, z'

loop_
  _atom_site_type_symbol
  _atom_site_label
  _atom_site_symmetry_multiplicity
  _atom_site_fract_x
  _atom_site_fract_y
  _atom_site_fract_z
  _atom_site_occupancy
  Zn  Zn1       1.0  1.9141048573957846e-07  0.9999998024949691  0.4999991834468318  1.0000
  Zn  Zn2       1.0  0.4999990299572092  0.499999424642681  0.9999991834468318  1.0000
  H   H1        1.0  0.8743824714556255  0.2252615401065938  0.466476409779041  1.0000
  H   H2        1.0  0.6256158323752458  0.2747378845360871  0.9664764097790411  1.0000
  H   H3        1.0  0.1256169938285154  0.7747382623883753  0.5335244067741272  1.0000
  H   H4        1.0  0.3743806510787451  0.7252590583300744  0.0335244067741272  1.0000
  H   H5        1.0  0.019496873841788404  0.0715936668415438  0.8068459817418727  1.0000
  H   H6        1.0  0.4804996875574119  0.42840575780114426  0.3068459817418727  1.0000
  H   H7        1.0  0.9804992307867693  0.9284080420726326  0.1931540182581273  1.0000
  H   H8        1.0  0.5195010120057404  0.5715940446938248  0.6931515685986298  1.0000
  H   H9        1.0  0.8209123081577091  0.7998724931930496  0.0522038769944331  1.0000
  H   H10       1.0  0.6790886556416638  0.7001267339446002  0.5522022438880967  1.0000
  H   H11       1.0  0.17908609393814603  0.2001282625115195  0.9477961230055669  1.0000
  H   H12       1.0  0.32091221501220707  0.2998740217599689  0.4477961230055669  1.0000
  H   H13       1.0  0.6144766322047917  0.0162465044688602  0.4279506148645353  1.0000
  H   H14       1.0  0.8855232480865212  0.48375482659302804  0.9279522479708646  1.0000
  H   H15       1.0  0.38552406735836103  0.9837532980261089  0.5720485685823036  1.0000
  H   H16       1.0  0.11447498291862251  0.516244975901941  0.0720485685823036  1.0000
  H   H17       1.0  0.5994343670676017  0.1828046311915799  0.4434071497395209  1.0000
  H   H18       1.0  0.9005653421329924  0.3171957466607083  0.943407149739521  1.0000
  H   H19       1.0  0.4005661614048393  0.817194218093789  0.5565936668136473  1.0000
  H   H20       1.0  0.0994341231511555  0.6828040558342607  0.0565928502604791  1.0000
  H   H21       1.0  0.638905979900578  0.0884607107617796  0.5594475201280389  1.0000
  H   H22       1.0  0.8610935582093049  0.4115387138809083  0.0594467035748707  1.0000
  H   H23       1.0  0.3610959539415788  0.9115390917331894  0.4405532964251293  1.0000
  H   H24       1.0  0.1389029252446861  0.5884582289852531  0.9405532964251293  1.0000
  H   H25       1.0  0.9283407304470046  0.2867483255304323  0.2925865138079118  1.0000
  H   H26       1.0  0.5716565101955808  0.21325205232184893  0.7925865138079119  1.0000
  H   H27       1.0  0.07165537418155314  0.7132533833837443  0.7074151192984175  1.0000
  H   H28       1.0  0.4283427839978558  0.7867467969635129  0.2074143027452493  1.0000
  H   H29       1.0  0.0945939875153528  0.4017397191648869  0.245095781686345  1.0000
  H   H30       1.0  0.4054066189022976  0.0982616118970085  0.7450974147926743  1.0000
  H   H31       1.0  0.9054056488595067  0.5982610365396895  0.7549034017604868  1.0000
  H   H32       1.0  0.5945928463818504  0.9017381905979676  0.2549034017604868  1.0000
  H   H33       1.0  0.8873864777467306  0.43549859045502615  0.23808893897081873  1.0000
  H   H34       1.0  0.6126118260841409  0.0645008341876547  0.7380897555239798  1.0000
  H   H35       1.0  0.1126106900701203  0.5645021652495501  0.7619126941355177  1.0000
  H   H36       1.0  0.38739010775801574  0.9354989683073144  0.2619126941355177  1.0000
  H   H37       1.0  0.8159523319230361  0.2502546958900709  0.6514412163375951  1.0000
  H   H38       1.0  0.6840472061868468  0.24974472875261  0.1514420328907633  1.0000
  H   H39       1.0  0.18404853873083482  0.7497460598145054  0.3485596002155731  1.0000
  H   H40       1.0  0.3159524301880126  0.7502560269519591  0.8485587836624049  1.0000
  H   H41       1.0  0.7489959610058108  0.3889400206194793  0.7101497558506011  1.0000
  H   H42       1.0  0.7510048113830763  0.11105940402320161  0.2101497558506011  1.0000
  H   H43       1.0  0.2510049096480529  0.611060735085097  0.2898510607025599  1.0000
  H   H44       1.0  0.2489946539010717  0.8889403984717674  0.7898510607025601  1.0000
  H   H45       1.0  0.9453221366899315  0.3465279125557927  0.7453848415070325  1.0000
  H   H46       1.0  0.554677572510663  0.1534724652964954  0.2453848415070325  1.0000
  H   H47       1.0  0.05467873396393233  0.6534728431487836  0.2546167915993038  1.0000
  H   H48       1.0  0.4453218927734853  0.8465273371984736  0.7546167915993038  1.0000
  C   C1        1.0  0.824211095722319  0.8870587627159879  0.7251130926134621  1.0000
  C   C2        1.0  0.6757912734467696  0.6129414176312693  0.2251122760602939  1.0000
  C   C3        1.0  0.17578854065254035  0.1129419929885884  0.2748860908333768  1.0000
  C   C4        1.0  0.32421330004411436  0.3870593380732998  0.7748877239397061  1.0000
  C   C5        1.0  0.7146751629891881  0.7350037200987458  0.8631122107360412  1.0000
  C   C6        1.0  0.7853222690638831  0.7649964602485114  0.3631097610765437  1.0000
  C   C7        1.0  0.2853220048276626  0.2649970356058304  0.1368877892639588  1.0000
  C   C8        1.0  0.2146810701479964  0.2350042954560578  0.636888605817127  1.0000
  C   C9        1.0  0.9071584992498103  0.9256237168230683  0.9182483301487778  1.0000
  C   C10       1.0  0.5928401670822652  0.5743764635241817  0.4182483301487778  1.0000
  C   C11       1.0  0.09284220031334202  0.0743760856719007  0.0817500367448929  1.0000
  C   C12       1.0  0.40716193785061  0.42562429218038744  0.5817500367448929  1.0000
  C   C13       1.0  0.009572904843459202  0.039745980804866604  0.8916442114546044  1.0000
  C   C14       1.0  0.4904273593927613  0.4602534438378214  0.3916442114546044  1.0000
  C   C15       1.0  0.9904267315314073  0.9602547748997097  0.1083549719922274  1.0000
  C   C16       1.0  0.5095736823518209  0.539748265076355  0.6083533388858982  1.0000
  C   C17       1.0  0.8120532823800559  0.847950479135342  0.8333831430764463  1.0000
  C   C18       1.0  0.6879484024261799  0.6520458883735003  0.3333839596296144  1.0000
  C   C19       1.0  0.18794618290409207  0.152049323359627  0.1666160403703856  1.0000
  C   C20       1.0  0.3120593606295828  0.3479520077022613  0.6666152238172246  1.0000
  C   C21       1.0  0.8995982314471223  0.8876011389799388  0.0285009716982643  1.0000
  C   C22       1.0  0.6003972453200745  0.612401900996126  0.528499338591935  1.0000
  C   C23       1.0  0.10040123383702593  0.11239866351503741  0.9714982117485675  1.0000
  C   C24       1.0  0.3996027332362146  0.3876007611276506  0.4714990283017357  1.0000
  C   C25       1.0  0.6631984396608958  0.1035995856722707  0.4717023500400117  1.0000
  C   C26       1.0  0.8368012695396985  0.39640079218001745  0.9717023500400117  1.0000
  C   C27       1.0  0.3368033230905425  0.8963992636130982  0.5282976499599883  1.0000
  C   C28       1.0  0.1631969614654452  0.6035990103149516  0.0282976499599883  1.0000
  C   C29       1.0  0.9744466382148573  0.3886016312105127  0.2879166462528389  1.0000
  C   C30       1.0  0.5255544763554597  0.1113996998513755  0.787917462806  1.0000
  C   C31       1.0  0.02555299816000199  0.6113991244940635  0.7120841703003293  1.0000
  C   C32       1.0  0.47444622320769264  0.8886001026435935  0.2120841703003293  1.0000
  C   C33       1.0  0.9897853737082799  0.4467798261032883  0.399001355478255  1.0000
  C   C34       1.0  0.5102155697713187  0.05322055174899991  0.8990021720314232  1.0000
  C   C35       1.0  0.010216731224595307  0.553220929601288  0.600998644521745  1.0000
  C   C36       1.0  0.4897837244221108  0.946778297536369  0.1009994610749132  1.0000
  C   C37       1.0  0.9332790636826689  0.42734769514211735  0.5849443927294118  1.0000
  C   C38       1.0  0.5667204744272072  0.0726517295005706  0.0849452092825729  1.0000
  C   C39       1.0  0.0667230412501993  0.5726530605624589  0.41505642382375646  1.0000
  C   C40       1.0  0.43327775657792955  0.9273480729944055  0.9150572403769175  1.0000
  C   C41       1.0  0.8568382924388729  0.3482560815655305  0.6776223604918883  1.0000
  C   C42       1.0  0.6431626510407256  0.1517442962867506  0.17762236049188831  1.0000
  C   C43       1.0  0.1431625782149908  0.6517446741390388  0.3223776395081117  1.0000
  C   C44       1.0  0.3568369853341338  0.8482564594178186  0.8223776395081118  1.0000
  N   N1        1.0  0.635947649290948  0.6412669941858766  0.8965859912138896  1.0000
  N   N2        1.0  0.8640506748596977  0.8587312797421731  0.3965859912138896  1.0000
  N   N3        1.0  0.364052879181493  0.3587318550994922  0.1034131922329493  1.0000
  N   N4        1.0  0.13595444854733782  0.1412656631239884  0.6034131922329493  1.0000
  N   N5        1.0  0.8411096495003677  0.9296252907353164  0.636158607286923  1.0000
  N   N6        1.0  0.6588914853897239  0.5703748896119407  0.1361577907337548  1.0000
  N   N7        1.0  0.15888858150477603  0.0703745117596526  0.3638405761599159  1.0000
  N   N8        1.0  0.3411079798944243  0.4296249128830283  0.8638389430535797  1.0000
  N   N9        1.0  0.9258049179965724  0.3769181411098971  0.4842935998562865  1.0000
  N   N10       1.0  0.5741946201133104  0.1230812835327839  0.9842952329626158  1.0000
  N   N11       1.0  0.0741945472875756  0.623081661385072  0.5157064001437135  1.0000
  N   N12       1.0  0.42580467408011907  0.876917565752585  0.0157072166968817  1.0000
  O   O1        1.0  0.8377180341028989  0.1302255895052156  0.4500155145101488  1.0000
  O   O2        1.0  0.6622815040069838  0.3697738351374653  0.9500146979569806  1.0000
  O   O3        1.0  0.1622826654602534  0.8697742129897534  0.5499844854898512  1.0000
  O   O4        1.0  0.3377165559074414  0.6302250141478966  0.0499844854898512  1.0000
