data_image0
_chemical_formula_structural       Ho2H12C18O14
_chemical_formula_sum              "Ho2 H12 C18 O14"
_cell_length_a       7.030862533615777
_cell_length_b       7.5656648836806255
_cell_length_c       10.19123934323857
_cell_angle_alpha    75.69346055280512
_cell_angle_beta     71.7062370157163
_cell_angle_gamma    88.2839501931961

_space_group_name_H-M_alt    "P 1"
_space_group_IT_number       1

loop_
  _space_group_symop_operation_xyz
  'x, y, z'

loop_
  _atom_site_type_symbol
  _atom_site_label
  _atom_site_symmetry_multiplicity
  _atom_site_fract_x
  _atom_site_fract_y
  _atom_site_fract_z
  _atom_site_occupancy
  Ho  Ho1       1.0  0.8119130927122812  0.21553086961226603  0.016510177673374912  1.0000
  Ho  Ho2       1.0  0.18808873966145254  0.7844692375511856  0.9834887282154626  1.0000
  H   H1        1.0  0.7218821040366237  0.8401437687603348  0.16836582285827006  1.0000
  H   H2        1.0  0.2781181013366236  0.1598536199495513  0.8316368896272976  1.0000
  H   H3        1.0  0.5027535531662294  0.913013618099612  0.16834759243240427  1.0000
  H   H4        1.0  0.49724813879562646  0.08698376311184573  0.8316528334609855  1.0000
  H   H5        1.0  0.44176903370068027  0.3052098846854322  0.3499289126652769  1.0000
  H   H6        1.0  0.5582268174038061  0.6947902176690095  0.6500732662205593  1.0000
  H   H7        1.0  0.8077860780358321  0.7039372072198875  0.4128900027233583  1.0000
  H   H8        1.0  0.1922096941340072  0.2960615234578798  0.5871114678218277  1.0000
  H   H9        1.0  0.3316988963692181  0.8773439831514055  0.4001665517158841  1.0000
  H   H10       1.0  0.6682998664352481  0.12265474993085952  0.5998332823308061  1.0000
  H   H11       1.0  0.7816018504832273  0.10218185992731323  0.34875068393091607  1.0000
  H   H12       1.0  0.2183969123212393  0.8978168731549588  0.6512491501157668  1.0000
  C   C1        1.0  0.46748854699840336  0.38909521182411316  0.41634135401580613  1.0000
  C   C2        1.0  0.5325072982869442  0.6109048847298766  0.5836598459747435  1.0000
  C   C3        1.0  0.78798336817222  0.5160661188996657  0.22250436427123083  1.0000
  C   C4        1.0  0.21201982201652206  0.48393126641427403  0.7774957328205545  1.0000
  C   C5        1.0  0.418648224575648  0.4324979539556041  0.05964978031157386  1.0000
  C   C6        1.0  0.5813655877939964  0.5675021802272229  0.9403455162691048  1.0000
  C   C7        1.0  0.64037277985949  0.5056525273778121  0.3667439400283569  1.0000
  C   C8        1.0  0.35962463676824535  0.4943489391548753  0.6332566606059515  1.0000
  C   C9        1.0  0.6720201569171633  0.6157781123593226  0.4511149241955721  1.0000
  C   C10       1.0  0.3279771865950635  0.38422198829714205  0.5488859469933729  1.0000
  C   C11       1.0  0.0645202085629109  0.9900999771428687  0.35724939022320257  1.0000
  C   C12       1.0  0.9354802834532308  0.009902869271456904  0.6427512611485325  1.0000
  C   C13       1.0  0.1269996447708053  0.9670492714241733  0.2091262678459955  1.0000
  C   C14       1.0  0.8730006278988184  0.032949477361484014  0.7908751951896492  1.0000
  C   C15       1.0  0.1866135496960766  0.9312720629753531  0.4436814055089329  1.0000
  C   C16       1.0  0.8133868633854248  0.06872941176229122  0.5563185375221593  1.0000
  C   C17       1.0  0.8772307308767322  0.05814521536104421  0.41500616195617823  1.0000
  C   C18       1.0  0.12276967638563009  0.9418562535761552  0.5849928021796273  1.0000
  O   O1        1.0  0.6394418044826222  0.9495640329128823  0.16486169705595438  1.0000
  O   O2        1.0  0.360559820182864  0.050431988222804626  0.8351399782873586  1.0000
  O   O3        1.0  0.47086551456953163  0.2710927874878736  0.09898215263037709  1.0000
  O   O4        1.0  0.5291383220204935  0.7289168791111608  0.9010135516791068  1.0000
  O   O5        1.0  0.808526380182208  0.3764343829407296  0.17363346880310357  1.0000
  O   O6        1.0  0.1914710422646664  0.6235670893924167  0.8263681107264914  1.0000
  O   O7        1.0  0.8830640439805462  0.6704991381040063  0.15393269157913633  1.0000
  O   O8        1.0  0.11694087541986418  0.3295023605419872  0.846068222837701  1.0000
  O   O9        1.0  0.24917082644754626  0.4944852402735125  0.10727320102601816  1.0000
  O   O10       1.0  0.7508263799386867  0.5055134307017399  0.8927171728694246  1.0000
  O   O11       1.0  0.03224831782217309  0.037823697890417  0.12194563373418531  1.0000
  O   O12       1.0  0.9677533010241813  0.962172317444818  0.878055062713841  1.0000
  O   O13       1.0  0.2691511068830863  0.861081779477239  0.1716991635331624  1.0000
  O   O14       1.0  0.7308505177824073  0.1389142416584548  0.8283025118101507  1.0000
