data_image0
_chemical_formula_structural       Zn6H60C48N24
_chemical_formula_sum              "Zn6 H60 C48 N24"
_cell_length_a       14.774364582216792
_cell_length_b       14.774257888011963
_cell_length_c       14.774255435748648
_cell_angle_alpha    109.47109700280524
_cell_angle_beta     109.47139361952674
_cell_angle_gamma    109.47137238791326

_space_group_name_H-M_alt    "P 1"
_space_group_IT_number       1

loop_
  _space_group_symop_operation_xyz
  'x, y, z'

loop_
  _atom_site_type_symbol
  _atom_site_label
  _atom_site_symmetry_multiplicity
  _atom_site_fract_x
  _atom_site_fract_y
  _atom_site_fract_z
  _atom_site_occupancy
  Zn  Zn1       1.0  0.4999990881960701  0.2500003861179821  0.7499980980805036  1.0000
  Zn  Zn2       1.0  0.49999922479231873  0.7499987197763929  0.2499998905361025  1.0000
  Zn  Zn3       1.0  0.24999895386783072  0.4999982448546873  0.7499989374129968  1.0000
  Zn  Zn4       1.0  0.7499992480768541  0.499999985944065  0.25000059809347164  1.0000
  Zn  Zn5       1.0  0.24999892597003284  0.74999862520594  0.4999984939959816  1.0000
  Zn  Zn6       1.0  0.7499996904522845  0.25000028244544137  0.5000006270207465  1.0000
  H   H1        1.0  0.4766368889011617  0.35415784450554366  0.5919206396039343  1.0000
  H   H2        1.0  0.7622350476787147  0.8847140412575168  0.40807797211093083  1.0000
  H   H3        1.0  0.5233651153178868  0.11528608057966482  0.8775227766368872  1.0000
  H   H4        1.0  0.2377632746830045  0.6458414830315816  0.12247663154299462  1.0000
  H   H5        1.0  0.2377631496486003  0.12247719105560857  0.6458417461534722  1.0000
  H   H6        1.0  0.5233653895682197  0.8775231688230033  0.11528626517700513  1.0000
  H   H7        1.0  0.7622356987811187  0.4080781655338654  0.8847142166789439  1.0000
  H   H8        1.0  0.4766366954506864  0.5919205274758496  0.3541580566855701  1.0000
  H   H9        1.0  0.12247889292454069  0.23776261643567406  0.6458424400481562  1.0000
  H   H10       1.0  0.8775211606332932  0.5233638893851164  0.11528587212248444  1.0000
  H   H11       1.0  0.5919216700863145  0.47663558070541967  0.35415808070127497  1.0000
  H   H12       1.0  0.4080787953268371  0.7622362895094951  0.8847143063128159  1.0000
  H   H13       1.0  0.40807869086152226  0.8847144543262356  0.7622369523150851  1.0000
  H   H14       1.0  0.1224783890325298  0.6458419116484463  0.23776183644791618  1.0000
  H   H15       1.0  0.5919206421608083  0.3541576141318998  0.4766351312787195  1.0000
  H   H16       1.0  0.8775210576558266  0.11528634436379553  0.5233642109228356  1.0000
  H   H17       1.0  0.8847164260977822  0.40807984759369026  0.7622372784609297  1.0000
  H   H18       1.0  0.35415668604316863  0.5919213545838742  0.47663571281452743  1.0000
  H   H19       1.0  0.11528583093065953  0.8775223593340655  0.5233641963593954  1.0000
  H   H20       1.0  0.645841990374592  0.12247752193491121  0.2377630970606931  1.0000
  H   H21       1.0  0.8847161828954313  0.7622366834048719  0.4080795202905848  1.0000
  H   H22       1.0  0.35415707846306066  0.4766359613345868  0.5919220741351053  1.0000
  H   H23       1.0  0.6458419013878184  0.23776339379395486  0.12247786814042876  1.0000
  H   H24       1.0  0.11528679204538132  0.5233653252797764  0.8775226724399445  1.0000
  H   H25       1.0  0.6205751958105593  0.13272564306988952  0.6944322632553224  1.0000
  H   H26       1.0  0.4382945032453378  0.9261422859048875  0.3055679320172047  1.0000
  H   H27       1.0  0.37942417827717645  0.07385718527148555  0.5121500734433868  1.0000
  H   H28       1.0  0.5617052058123518  0.8672743351283854  0.48784899464858705  1.0000
  H   H29       1.0  0.5617055794392983  0.4878490532041368  0.86727459793714  1.0000
  H   H30       1.0  0.3794245449809353  0.512150295476104  0.07385701418527195  1.0000
  H   H31       1.0  0.43829435225165275  0.3055682752252409  0.9261425555072053  1.0000
  H   H32       1.0  0.6205746064735392  0.6944318254691734  0.13272509573488386  1.0000
  H   H33       1.0  0.48784926598844425  0.5617065213432821  0.8672745970681676  1.0000
  H   H34       1.0  0.5121524960175988  0.3794253451392179  0.07385764280558502  1.0000
  H   H35       1.0  0.6944309199243933  0.6205743573300211  0.13272509660385637  1.0000
  H   H36       1.0  0.3055671191273603  0.43829302731901965  0.9261426447970962  1.0000
  H   H37       1.0  0.305567343183867  0.9261431158689034  0.4382930224282475  1.0000
  H   H38       1.0  0.48784970575664494  0.8672743557126593  0.561706538930828  1.0000
  H   H39       1.0  0.6944306958662736  0.13272562248562284  0.6205747189730746  1.0000
  H   H40       1.0  0.5121513383378371  0.07385703216021264  0.37942498303253563  1.0000
  H   H41       1.0  0.9261431894334038  0.30556770877620215  0.43829313786946494  1.0000
  H   H42       1.0  0.13272618377185808  0.6944310382126131  0.6205740988823436  1.0000
  H   H43       1.0  0.07385636415632048  0.5121508932457174  0.37942503769532726  1.0000
  H   H44       1.0  0.8672744781746716  0.48784961089689466  0.5617072923376584  1.0000
  H   H45       1.0  0.926142398457394  0.43829250600181535  0.30556741883829386  1.0000
  H   H46       1.0  0.13272658268774518  0.6205742675105911  0.6944320585236597  1.0000
  H   H47       1.0  0.8672747971703528  0.5617068602085523  0.4878500506067312  1.0000
  H   H48       1.0  0.0738560227431222  0.37942494055784687  0.5121504533058429  1.0000
  H   H49       1.0  0.7569686158657164  0.24314430460023576  0.7569694769537066  1.0000
  H   H50       1.0  0.48617629717977456  8.504893858395066e-08  0.24303145976331564  1.0000
  H   H51       1.0  0.24303141114675958  3.030528788474133e-07  0.4861749752903749  1.0000
  H   H52       1.0  0.5138230623863009  0.7568552352823514  0.5138244837574178  1.0000
  H   H53       1.0  0.5138236857077273  0.5138241940601701  0.7568547469351188  1.0000
  H   H54       1.0  0.2430309810158493  0.4861743885619347  0.9999992143342668  1.0000
  H   H55       1.0  0.48617564337383373  0.2430311909326904  0.9999993194108613  1.0000
  H   H56       1.0  0.7569680246527356  0.7569685850190594  0.24314338759892715  1.0000
  H   H57       1.0  0.9999997338059856  0.24303109585392238  0.48617536540249534  1.0000
  H   H58       1.0  0.24314465213296907  0.7569684818547202  0.7569680595174973  1.0000
  H   H59       1.0  0.999998875405538  0.48617410959766266  0.24303046982556256  1.0000
  H   H60       1.0  0.7568564907838464  0.5138254460351064  0.5138252659140009  1.0000
  C   C1        1.0  0.5341471291142666  0.32400522507597884  0.5911202974978806  1.0000
  C   C2        1.0  0.7328834706464561  0.943026336495201  0.40887858429841367  1.0000
  C   C3        1.0  0.4658529130367198  0.05697390252826299  0.7898586125781932  1.0000
  C   C4        1.0  0.26711639930406506  0.6759946621277138  0.21014094001036202  1.0000
  C   C5        1.0  0.26711611301512045  0.21014193420498373  0.6759963724561047  1.0000
  C   C6        1.0  0.46585364731054574  0.7898589093452059  0.056974591648767725  1.0000
  C   C7        1.0  0.7328830395680654  0.40887889671865446  0.9430257545009227  1.0000
  C   C8        1.0  0.5341476080303167  0.5911204680821952  0.324005527469538  1.0000
  C   C9        1.0  0.2101427131818312  0.267115446796879  0.6759956396372075  1.0000
  C   C10       1.0  0.7898574029037918  0.4658538845357186  0.056974333185522114  1.0000
  C   C11       1.0  0.5911204009973546  0.5341459982708087  0.32400399548781433  1.0000
  C   C12       1.0  0.4088804163648307  0.7328844001376638  0.9430263163846393  1.0000
  C   C13       1.0  0.4088791774397863  0.9430260643075029  0.7328846663217947  1.0000
  C   C14       1.0  0.21014271745202254  0.6759962299552382  0.2671147629779327  1.0000
  C   C15       1.0  0.5911215288762648  0.32400548956356795  0.5341471924410682  1.0000
  C   C16       1.0  0.7898579241549586  0.05697465332559674  0.46585324846519444  1.0000
  C   C17       1.0  0.943027090891903  0.408879679250184  0.732884501709229  1.0000
  C   C18       1.0  0.32400325327255075  0.5911198837936594  0.5341456478611093  1.0000
  C   C19       1.0  0.05697444870271082  0.7898585786889711  0.4658536207762722  1.0000
  C   C20       1.0  0.6759954226682795  0.21014178625135563  0.2671157964383681  1.0000
  C   C21       1.0  0.9430267995492301  0.7328842993948682  0.40887950712873794  1.0000
  C   C22       1.0  0.32400440707935024  0.5341468656903389  0.5911216394678008  1.0000
  C   C23       1.0  0.6759952902061741  0.267115761574061  0.21014165514237262  1.0000
  C   C24       1.0  0.056974740045376344  0.46585395854428663  0.7898586153567635  1.0000
  C   C25       1.0  0.6306100315554699  0.24401216502168657  0.6306103958019093  1.0000
  C   C26       1.0  0.6134020438420009  6.906708306605358e-07  0.36939060249221706  1.0000
  C   C27       1.0  0.3693900185825783  3.961884758171656e-07  0.6134022024838757  1.0000
  C   C28       1.0  0.3865976567607917  0.7559875170808182  0.38659775205006514  1.0000
  C   C29       1.0  0.3865974886425932  0.38659813108110813  0.7559873503857305  1.0000
  C   C30       1.0  0.3693896672656365  0.6134018106297388  1.20064910989798e-07  1.0000
  C   C31       1.0  0.6134017669972425  0.36939014133222514  0.9999995414717234  1.0000
  C   C32       1.0  0.6306101602383336  0.6306107200370618  0.2440122514425056  1.0000
  C   C33       1.0  3.1111934359016014e-07  0.36938991913571323  0.6134026530767897  1.0000
  C   C34       1.0  0.24401166504731012  0.630609706318225  0.6306099604522261  1.0000
  C   C35       1.0  0.9999997427547456  0.6134018297871292  0.36938934837833415  1.0000
  C   C36       1.0  0.7559880821355945  0.3865984727432163  0.38659801936753996  1.0000
  C   C37       1.0  0.678128291762917  0.18519544854054712  0.6781292743874873  1.0000
  C   C38       1.0  0.507067640611652  2.1738103585648014e-07  0.32187170632028744  1.0000
  C   C39       1.0  0.32187128973723844  2.2099123251175025e-07  0.5070665185892694  1.0000
  C   C40       1.0  0.4929328823783052  0.8148045196812246  0.4929336143781526  1.0000
  C   C41       1.0  0.49293322125878813  0.4929341742409362  0.8148048978400555  1.0000
  C   C42       1.0  0.32187048440307825  0.5070657310656871  0.9999996085717555  1.0000
  C   C43       1.0  0.5070677162088018  0.3218712396739463  8.368651595989016e-09  1.0000
  C   C44       1.0  0.6781283791863189  0.6781287830037213  0.18519546649443436  1.0000
  C   C45       1.0  0.9999995755390784  0.3218712150796108  0.5070669560725136  1.0000
  C   C46       1.0  0.1851959638485781  0.6781286740168608  0.6781286029957911  1.0000
  C   C47       1.0  0.9999997154082223  0.5070663491701878  0.32187027375868377  1.0000
  C   C48       1.0  0.8148048007647759  0.4929340505372438  0.49293446023305904  1.0000
  N   N1        1.0  0.5595355875873338  0.2736626410513523  0.6519850995278844  1.0000
  N   N2        1.0  0.6216762102495181  0.9075501031209325  0.3480147461268431  1.0000
  N   N3        1.0  0.4404651843950943  0.0924509611247544  0.714127819369459  1.0000
  N   N4        1.0  0.3783235367357989  0.7263373781496226  0.2858730341612842  1.0000
  N   N5        1.0  0.3783223077677392  0.28587234999378097  0.7263379512207209  1.0000
  N   N6        1.0  0.44046481940673493  0.7141275236026772  0.09245098399667744  1.0000
  N   N7        1.0  0.6216758115508726  0.34801352774825045  0.9075490345147302  1.0000
  N   N8        1.0  0.5595353154639896  0.6519853711774387  0.27366212261203077  1.0000
  N   N9        1.0  0.28587267283144513  0.37832291126210277  0.7263376119510738  1.0000
  N   N10       1.0  0.7141270468292902  0.4404649810211366  0.09245009904422126  1.0000
  N   N11       1.0  0.6519853648779232  0.5595354867617388  0.2736620473919445  1.0000
  N   N12       1.0  0.34801471651752547  0.6216772257920481  0.9075502228878422  1.0000
  N   N13       1.0  0.3480140547801226  0.9075498169023744  0.6216772970064639  1.0000
  N   N14       1.0  0.2858723797946254  0.7263379986454055  0.3783224425058194  1.0000
  N   N15       1.0  0.651985612136876  0.2736628956515261  0.5595353877632476  1.0000
  N   N16       1.0  0.7141269253860472  0.0924512473434262  0.4404656829797631  1.0000
  N   N17       1.0  0.9075506558148592  0.34801456953977816  0.6216777643349048  1.0000
  N   N18       1.0  0.27366118911157133  0.6519848079955464  0.5595341107022378  1.0000
  N   N19       1.0  0.0924508407907325  0.7141276545925236  0.4404645443021239  1.0000
  N   N20       1.0  0.7263386622082919  0.2858733744658437  0.3783234508661765  1.0000
  N   N21       1.0  0.9075499769946446  0.621677117973121  0.3480138336073111  1.0000
  N   N22       1.0  0.2736622353214673  0.5595349493463075  0.6519855975573138  1.0000
  N   N23       1.0  0.726336787041511  0.37832323311531  0.2858727929909435  1.0000
  N   N24       1.0  0.09245080169856841  0.4404653044022879  0.7141277571195063  1.0000
