data_image0
_chemical_formula_structural       Cu2H32C24N4Cl4O20
_chemical_formula_sum              "Cu2 H32 C24 N4 Cl4 O20"
_cell_length_a       6.36695229677306
_cell_length_b       10.314434048848298
_cell_length_c       13.29087505126505
_cell_angle_alpha    90.00020993992541
_cell_angle_beta     90.00047856898128
_cell_angle_gamma    100.8005018741112

_space_group_name_H-M_alt    "P 1"
_space_group_IT_number       1

loop_
  _space_group_symop_operation_xyz
  'x, y, z'

loop_
  _atom_site_type_symbol
  _atom_site_label
  _atom_site_symmetry_multiplicity
  _atom_site_fract_x
  _atom_site_fract_y
  _atom_site_fract_z
  _atom_site_occupancy
  Cu  Cu1       1.0  0.49999556849679283  0.999999813037448  0.9999992272829633  1.0000
  Cu  Cu2       1.0  0.9999978178829848  0.4999979161641195  0.5000014192389133  1.0000
  H   H1        1.0  0.22386782573367017  0.990168320237615  0.14987271099427354  1.0000
  H   H2        1.0  0.7238582511144784  0.4901634912014146  0.35012601237839663  1.0000
  H   H3        1.0  0.7761372453368763  0.009833778713066  0.8501317328160031  1.0000
  H   H4        1.0  0.2761393958680003  0.5098297282248723  0.6498731646397717  1.0000
  H   H5        1.0  0.3637599839427708  0.8801664329924748  0.17211134542532855  1.0000
  H   H6        1.0  0.8637551623532147  0.3801633854615645  0.32788977230981  1.0000
  H   H7        1.0  0.6362466573652412  0.11983566479016619  0.8278915935953325  1.0000
  H   H8        1.0  0.13626083752351553  0.6198436414800313  0.6721071475624643  1.0000
  H   H9        1.0  0.5074937822779475  0.7815087079504296  0.8614159339742289  1.0000
  H   H10       1.0  0.007461376279287908  0.28150244412503167  0.6385850785311366  1.0000
  H   H11       1.0  0.4925247551192626  0.21849634265479517  0.13857722391976077  1.0000
  H   H12       1.0  0.9925267863369528  0.7184957184478833  0.36141936525081075  1.0000
  H   H13       1.0  0.643232589323908  0.5700421884650667  0.8638423555874869  1.0000
  H   H14       1.0  0.1432027226070858  0.0700289915410792  0.6361585465343256  1.0000
  H   H15       1.0  0.356795306689456  0.4299677913150931  0.13614854513765814  1.0000
  H   H16       1.0  0.8567876761520025  0.9299662077288885  0.3638496592268583  1.0000
  H   H17       1.0  0.9104776310483443  0.679936424324602  0.15675096556833526  1.0000
  H   H18       1.0  0.4104929581648519  0.17994272804983072  0.3432641134514683  1.0000
  H   H19       1.0  0.08951059441448452  0.3200568020779358  0.8432497162284284  1.0000
  H   H20       1.0  0.58951151005558  0.8200573969357309  0.6567478543147377  1.0000
  H   H21       1.0  0.7593629314059669  0.8844987903383913  0.14466901765259627  1.0000
  H   H22       1.0  0.25938176651133193  0.384500258260573  0.35534235053172136  1.0000
  H   H23       1.0  0.240619917458055  0.11549740170956818  0.8553324165359729  1.0000
  H   H24       1.0  0.7406274124404676  0.6154998632272709  0.6446666076574632  1.0000
  H   H25       1.0  0.7949603277878551  0.4092166194330105  0.9635438682544479  1.0000
  H   H26       1.0  0.29496770871733713  0.9092175223643654  0.5364657725258157  1.0000
  H   H27       1.0  0.2050315781060021  0.590783514752964  0.03644628001280381  1.0000
  H   H28       1.0  0.7050289082114246  0.09078260842620982  0.46354544283346416  1.0000
  H   H29       1.0  0.8680769202072298  0.44227614983585545  0.09144642695444113  1.0000
  H   H30       1.0  0.36806808175261796  0.9422683876793839  0.40856161884678965  1.0000
  H   H31       1.0  0.13191722181999668  0.5577210210439745  0.9085467308961345  1.0000
  H   H32       1.0  0.6319313742165277  0.05773075378935032  0.5914495965153252  1.0000
  C   C1        1.0  0.595294351239012  0.754099966027333  0.9258015528284108  1.0000
  C   C2        1.0  0.09527723022183213  0.2540970913067683  0.5741928710123576  1.0000
  C   C3        1.0  0.40471198847320977  0.24590114471519087  0.07419160504387892  1.0000
  C   C4        1.0  0.9047109323849226  0.7459010712629494  0.42581082037369117  1.0000
  C   C5        1.0  0.6716063573221901  0.6368168824550651  0.9278781363697495  1.0000
  C   C6        1.0  0.17159305317314727  0.13680608944299172  0.5721147243467544  1.0000
  C   C7        1.0  0.3284014897239942  0.3631891632706115  0.07211276432266803  1.0000
  C   C8        1.0  0.8283957752725967  0.8631891109694368  0.42788896703677914  1.0000
  C   C9        1.0  0.7868719641608024  0.6064664057642235  0.011543563150588902  1.0000
  C   C10       1.0  0.28687724717974555  0.1064650687407607  0.4884521879970054  1.0000
  C   C11       1.0  0.2131209090729911  0.39353175327260465  0.9884488423034488  1.0000
  C   C12       1.0  0.713121304315038  0.8935311117131519  0.511554512984951  1.0000
  C   C13       1.0  0.8207066454643696  0.6980815401302467  0.09017360389979254  1.0000
  C   C14       1.0  0.32071115194881367  0.19808348282540317  0.409831484010141  1.0000
  C   C15       1.0  0.17928151703804934  0.30191662240429923  0.9098218111312666  1.0000
  C   C16       1.0  0.6792880025099138  0.8019146716319983  0.5901767217667813  1.0000
  C   C17       1.0  0.7384461547778828  0.8129769679401664  0.08376320880064723  1.0000
  C   C18       1.0  0.2384565009438973  0.3129769864673051  0.416239657998844  1.0000
  C   C19       1.0  0.2615426736014612  0.1870182324498799  0.916235215811533  1.0000
  C   C20       1.0  0.7615476657281661  0.6870221514941266  0.5837662905985329  1.0000
  C   C21       1.0  0.8806628165483658  0.4839213411195829  0.015149786001217105  1.0000
  C   C22       1.0  0.3806517310290189  0.9839211410634546  0.48485387759301823  1.0000
  C   C23       1.0  0.11934104848996444  0.5160768097889419  0.9848433718641518  1.0000
  C   C24       1.0  0.6193351628696675  0.016078009692037702  0.5151558329596571  1.0000
  N   N1        1.0  0.6266312570684959  0.840541616493084  0.003014450201320101  1.0000
  N   N2        1.0  0.1266326473134711  0.3405423294451637  0.4969813950672235  1.0000
  N   N3        1.0  0.3733604102943247  0.15945259455593694  0.9969794600382476  1.0000
  N   N4        1.0  0.8733671100427999  0.6594577989933513  0.5030230487332903  1.0000
  Cl  Cl1       1.0  0.11803116250459315  0.851911991494376  0.7978951967744268  1.0000
  Cl  Cl2       1.0  0.6180235336680227  0.351903925656231  0.7020934991524829  1.0000
  Cl  Cl3       1.0  0.8819788577524789  0.14809602706995412  0.20209645631923942  1.0000
  Cl  Cl4       1.0  0.3819740504394177  0.648094229930834  0.29790718266315264  1.0000
  O   O1        1.0  0.3084892650467666  0.9304754255053854  0.11790797269142675  1.0000
  O   O2        1.0  0.8084845413035493  0.4304738268259456  0.38209084958356965  1.0000
  O   O3        1.0  0.6915158060048087  0.06952667343890082  0.8820949663270315  1.0000
  O   O4        1.0  0.19152276576756583  0.5695253087738267  0.6179060702673242  1.0000
  O   O5        1.0  0.15970826623848208  0.8632287434721206  0.9056842586079557  1.0000
  O   O6        1.0  0.6596777448566159  0.36322569972082874  0.5943008186737091  1.0000
  O   O7        1.0  0.8403143160321489  0.13677926578628075  0.09430438491970963  1.0000
  O   O8        1.0  0.34032769047609424  0.6367724500388408  0.4056953487774992  1.0000
  O   O9        1.0  0.31072572243354557  0.9059449575252643  0.7413665208286775  1.0000
  O   O10       1.0  0.8107342540992163  0.4059393356812038  0.7586190799485596  1.0000
  O   O11       1.0  0.6892665976947825  0.09407195911138187  0.2586213702709373  1.0000
  O   O12       1.0  0.1892670106194672  0.5940657277500564  0.24138536385981282  1.0000
  O   O13       1.0  0.9483606447385782  0.9251023041984467  0.7717062987012969  1.0000
  O   O14       1.0  0.4483553232882543  0.4250957972810527  0.7282962858551943  1.0000
  O   O15       1.0  0.0516400798437928  0.07489584905254532  0.2282913735351216  1.0000
  O   O16       1.0  0.5516275255947392  0.5749003947733016  0.2717066531251931  1.0000
  O   O17       1.0  0.04737024921688968  0.7120876913689571  0.7719064279660944  1.0000
  O   O18       1.0  0.5473689537424847  0.21207786778259677  0.7280832492482933  1.0000
  O   O19       1.0  0.9526604858653158  0.2879212990989616  0.2280867299496095  1.0000
  O   O20       1.0  0.4526409538854069  0.7879143553743762  0.2719211945572938  1.0000
