data_image0
_chemical_formula_structural       Hg2H16C16S4N8
_chemical_formula_sum              "Hg2 H16 C16 S4 N8"
_cell_length_a       7.8267405228908205
_cell_length_b       7.8267725494667895
_cell_length_c       11.059707736761867
_cell_angle_alpha    101.58622015787842
_cell_angle_beta     101.58493776353463
_cell_angle_gamma    115.66865959984976

_space_group_name_H-M_alt    "P 1"
_space_group_IT_number       1

loop_
  _space_group_symop_operation_xyz
  'x, y, z'

loop_
  _atom_site_type_symbol
  _atom_site_label
  _atom_site_symmetry_multiplicity
  _atom_site_fract_x
  _atom_site_fract_y
  _atom_site_fract_z
  _atom_site_occupancy
  Hg  Hg1       1.0  0.6233760132134947  0.6230114272299758  0.9999941805526259  1.0000
  Hg  Hg2       1.0  0.8730102090166908  0.37337522419766594  0.4999781918360922  1.0000
  H   H1        1.0  0.9691931603312296  0.1312822886907696  0.17260265553564827  1.0000
  H   H2        1.0  0.96005643999073  0.7960893673223024  0.8269228574662574  1.0000
  H   H3        1.0  0.046099752869011454  0.7100777223992124  0.32693033435850777  1.0000
  H   H4        1.0  0.38128736123933027  0.7191905513420166  0.6725967574905949  1.0000
  H   H5        1.0  0.28880868505729035  0.6005763716272768  0.17485855881286472  1.0000
  H   H6        1.0  0.4268378743894629  0.11440922256135617  0.8253591377152246  1.0000
  H   H7        1.0  0.3644217005344288  0.17685619832633387  0.3253716760331072  1.0000
  H   H8        1.0  0.8505764343839033  0.03880664625425819  0.6748536168901464  1.0000
  H   H9        1.0  0.23988527825635228  0.4639894943077749  0.28698089036858215  1.0000
  H   H10       1.0  0.1781115081643704  0.9533932078699577  0.7130083564992374  1.0000
  H   H11       1.0  0.2033923737247462  0.9281253333886567  0.2130241141504071  1.0000
  H   H12       1.0  0.7139993366074932  0.9898839861638608  0.7869776769148086  1.0000
  H   H13       1.0  0.4670804140871211  0.5399258379538947  0.24824867748099408  1.0000
  H   H14       1.0  0.29277479823109326  0.219432639362104  0.752161837366806  1.0000
  H   H15       1.0  0.4694341843163699  0.0427797970801223  0.25216293858233024  1.0000
  H   H16       1.0  0.7899388391503168  0.21707967656927  0.7482510686125676  1.0000
  C   C1        1.0  0.626134866907584  0.5314007446581285  0.6420809873419555  1.0000
  C   C2        1.0  0.8880902025197839  0.9836552437829481  0.3579323306876743  1.0000
  C   C3        1.0  0.2336548363978324  0.6380828631406815  0.8579322006709728  1.0000
  C   C4        1.0  0.7814094300588791  0.37613469196873683  0.14208070877163684  1.0000
  C   C5        1.0  0.03561967780319007  0.12384477884747717  0.09538119669165467  1.0000
  C   C6        1.0  0.02948945467000626  0.9395784769359494  0.9042744664130492  1.0000
  C   C7        1.0  0.18958861125848597  0.7795080549334656  0.4042805759225344  1.0000
  C   C8        1.0  0.37384448531719977  0.7856123372196888  0.5953785357613622  1.0000
  C   C9        1.0  0.2063350961914878  0.2925639165543998  0.09815425008529384  1.0000
  C   C10       1.0  0.1953225731271999  0.10805845080904668  0.901903850178115  1.0000
  C   C11       1.0  0.3580668132919697  0.9453393306132368  0.40190997243556836  1.0000
  C   C12       1.0  0.54257995267848  0.9563498583547273  0.5981542238245011  1.0000
  C   C13       1.0  0.30545734504332245  0.4840948801912718  0.20875041803186883  1.0000
  C   C14       1.0  0.2763997969321891  0.09710824327422779  0.791390304560856  1.0000
  C   C15       1.0  0.34711514940573807  0.026415115839739694  0.29140701257834667  1.0000
  C   C16       1.0  0.7341124944191647  0.05545833368793039  0.7087511097154146  1.0000
  S   S1        1.0  0.7036596169994738  0.5748784972098233  0.5171887331207257  1.0000
  S   S2        1.0  0.056466882597568685  0.1859096920530874  0.48316755603096323  1.0000
  S   S3        1.0  0.4358737178231208  0.8064327151575909  0.9831514003838886  1.0000
  S   S4        1.0  0.8248831090641743  0.45366368276825136  0.017186917326213746  1.0000
  N   N1        1.0  0.5668974753286872  0.5098464794558238  0.7309078174778988  1.0000
  N   N2        1.0  0.7778524637929889  0.8357449874390779  0.2688949644991607  1.0000
  N   N3        1.0  0.08570504032135766  0.5278242475410977  0.7688713538772658  1.0000
  N   N4        1.0  0.7598497002426327  0.3168980848615917  0.23089938123783318  1.0000
  N   N5        1.0  0.9495045229161148  0.9485800905468195  0.9997472386431733  1.0000
  N   N6        1.0  0.19858803271632278  0.6995124999602066  0.49974953417505913  1.0000
  N   N7        1.0  0.2831304753042971  0.2827338295053821  9.083630293818662e-05  1.0000
  N   N8        1.0  0.532744642783328  0.033139991706463  0.5000994013242631  1.0000
