data_image0
_chemical_formula_structural       H32Pb2C44Br4N4
_chemical_formula_sum              "H32 Pb2 C44 Br4 N4"
_cell_length_a       4.278432702746593
_cell_length_b       16.117693821908198
_cell_length_c       16.227079337402778
_cell_angle_alpha    117.53139953083029
_cell_angle_beta     97.61932684982715
_cell_angle_gamma    89.97938754846948

_space_group_name_H-M_alt    "P 1"
_space_group_IT_number       1

loop_
  _space_group_symop_operation_xyz
  'x, y, z'

loop_
  _atom_site_type_symbol
  _atom_site_label
  _atom_site_symmetry_multiplicity
  _atom_site_fract_x
  _atom_site_fract_y
  _atom_site_fract_z
  _atom_site_occupancy
  H   H1        1.0  0.7886714238991814  0.9053932410552792  0.934922716278486  1.0000
  H   H2        1.0  0.854267559796135  0.5951310489621734  0.06514003794895018  1.0000
  H   H3        1.0  0.2112657386615382  0.09460443974187883  0.06505039343437603  1.0000
  H   H4        1.0  0.1455536713990782  0.4049375437311369  0.934902361798706  1.0000
  H   H5        1.0  0.742567639839521  0.9681833015407902  0.8226536433924353  1.0000
  H   H6        1.0  0.9204426011083485  0.531982461388445  0.17710924988315924  1.0000
  H   H7        1.0  0.2579718141529384  0.0318811527210343  0.17739029819377813  1.0000
  H   H8        1.0  0.07959829626472728  0.4680253838901364  0.8228849080750466  1.0000
  H   H9        1.0  0.283436713408193  0.7401668634655892  0.6507788001572836  1.0000
  H   H10       1.0  0.6335727250279889  0.7598467999355594  0.34957040459872973  1.0000
  H   H11       1.0  0.716666395621651  0.2598028430041809  0.349218502813045  1.0000
  H   H12       1.0  0.36654475648688134  0.24013456279743656  0.6504196161785389  1.0000
  H   H13       1.0  0.30005571147638227  0.6863940172561486  0.7713936455136408  1.0000
  H   H14       1.0  0.5298454699974541  0.8138908609989741  0.229152753952988  1.0000
  H   H15       1.0  0.6997963740804493  0.3135606266194273  0.22858087123309193  1.0000
  H   H16       1.0  0.4703681136491724  0.18607766546501384  0.7708213602426002  1.0000
  H   H17       1.0  0.7981232274838704  0.029226070440117307  0.7459438696031813  1.0000
  H   H18       1.0  0.05021246712797017  0.4710477465784422  0.254190073769422  1.0000
  H   H19       1.0  0.2020182039248724  0.9707778105591204  0.25406003741148453  1.0000
  H   H20       1.0  0.9495139683874496  0.5289767757402899  0.745837528752965  1.0000
  H   H21       1.0  0.7954366771653055  0.09537498452068863  0.639911218272019  1.0000
  H   H22       1.0  0.1538715624449978  0.40489855147690423  0.36026220324865227  1.0000
  H   H23       1.0  0.2043727566550473  0.9046204752063574  0.3600885219249506  1.0000
  H   H24       1.0  0.8459014499403923  0.5951442728801981  0.6397769715120776  1.0000
  H   H25       1.0  0.2004395145533167  0.8489888433466534  0.4437977056983939  1.0000
  H   H26       1.0  0.7573997314067855  0.6508782088903616  0.5561919138602464  1.0000
  H   H27       1.0  0.7993184826714029  0.1510092127965947  0.5561601015958433  1.0000
  H   H28       1.0  0.24271969237144472  0.34910179063087543  0.44376613629315653  1.0000
  H   H29       1.0  0.20365964925571223  0.7825352785616884  0.5499771576417416  1.0000
  H   H30       1.0  0.654217664027577  0.7173693146395479  0.4500276699389119  1.0000
  H   H31       1.0  0.7965514053831838  0.2174849466028803  0.4500111351973717  1.0000
  H   H32       1.0  0.34581735751098824  0.2826128047600491  0.5499320855135041  1.0000
  Pb  Pb1       1.0  0.07939804475598311  0.7498611343449537  0.999943763212329  1.0000
  Pb  Pb2       1.0  0.9203622403422783  0.250103806089598  9.12954386861513e-05  1.0000
  C   C1        1.0  0.8950325753131309  0.870461592616387  0.8706184578857974  1.0000
  C   C2        1.0  0.025113438747730803  0.6299065558611263  0.12947647563306935  1.0000
  C   C3        1.0  0.1050182726343678  0.129527498878133  0.1293757529951804  1.0000
  C   C4        1.0  0.974886309910474  0.37010697243675844  0.8705237007295212  1.0000
  C   C5        1.0  0.87143673458408  0.9056363640191594  0.8066919890534197  1.0000
  C   C6        1.0  0.06560057705235782  0.5945016907900468  0.19319866655332169  1.0000
  C   C7        1.0  0.12884689827824763  0.09438135677955023  0.19330942651235017  1.0000
  C   C8        1.0  0.9345051838035517  0.40548014334518  0.8067806777553913  1.0000
  C   C9        1.0  0.010903320883137696  0.8608333264875938  0.7245240318148449  1.0000
  C   C10       1.0  0.28692824188788535  0.6392482010227029  0.27552829197394874  1.0000
  C   C11       1.0  0.9893289679495113  0.13917615163039443  0.2754818117050207  1.0000
  C   C12       1.0  0.7130686422746991  0.36075265303433923  0.7244637064766339  1.0000
  C   C13       1.0  0.1648825997152628  0.7792788006069814  0.7116946042921628  1.0000
  C   C14       1.0  0.4539909703450036  0.7208299152654051  0.28859112365862677  1.0000
  C   C15       1.0  0.8352863337197292  0.2207215688359058  0.28830747013071806  1.0000
  C   C16       1.0  0.5460797510847328  0.27917403127254664  0.7114159035368035  1.0000
  C   C17       1.0  0.17659774373480266  0.7484347607448854  0.7791609345506388  1.0000
  C   C18       1.0  0.39836319810479637  0.7518509403232302  0.22124220671366154  1.0000
  C   C19       1.0  0.8234246996780428  0.25155375203394215  0.22083881337830052  1.0000
  C   C20       1.0  0.6017734007145349  0.24813137164480278  0.7787599929622788  1.0000
  C   C21       1.0  0.0014888461834487747  0.8996912398244916  0.6578551175843332  1.0000
  C   C22       1.0  0.343328149889345  0.6003509856338168  0.342187097377085  1.0000
  C   C23       1.0  0.998701651753578  0.1003210903551803  0.3421542355823918  1.0000
  C   C24       1.0  0.6566240890091207  0.39964007227145265  0.6578014774071052  1.0000
  C   C25       1.0  0.8865442855255168  0.988269444213053  0.6797055049113683  1.0000
  C   C26       1.0  0.20557081722196097  0.5119067919244529  0.32038038754512144  1.0000
  C   C27       1.0  0.113499192649968  0.011728782454184702  0.32029372834925607  1.0000
  C   C28       1.0  0.7943301025680399  0.4881075475793609  0.6796253443293525  1.0000
  C   C29       1.0  0.8860772777030733  0.026469062846459206  0.6186418532301944  1.0000
  C   C30       1.0  0.2663582989988739  0.4736948726302614  0.38144551201220633  1.0000
  C   C31       1.0  0.1137775443207474  0.973529091330363  0.3813538768243988  1.0000
  C   C32       1.0  0.7334995774709936  0.5263272258436515  0.618565859103221  1.0000
  C   C33       1.0  0.9989169505531166  0.9789830152838023  0.5319493313688357  1.0000
  C   C34       1.0  0.4666845156667279  0.5210405993056142  0.4680527102416577  1.0000
  C   C35       1.0  0.0009622781458275987  0.021019038140735795  0.468033564277498  1.0000
  C   C36       1.0  0.5332198180999015  0.4789785204085889  0.5319490936007514  1.0000
  C   C37       1.0  0.10992489167618665  0.8897514094834593  0.5097110528817694  1.0000
  C   C38       1.0  0.600436069728069  0.610216446803044  0.4903007102778717  1.0000
  C   C39       1.0  0.8899231025281724  0.11025874835757322  0.4902607870817165  1.0000
  C   C40       1.0  0.3995150459335973  0.3897906319024925  0.5096899896567635  1.0000
  C   C41       1.0  0.1121306783274534  0.8514586791628177  0.5709528241378694  1.0000
  C   C42       1.0  0.5412947792724836  0.6485273484473096  0.42908635922963606  1.0000
  C   C43       1.0  0.8879534269983652  0.14855261213340748  0.4290400462313572  1.0000
  C   C44       1.0  0.4586818414959311  0.35147773657079995  0.570908658203166  1.0000
  Br  Br1       1.0  0.61152375342634  0.8944543624776672  0.09814607992178268  1.0000
  Br  Br2       1.0  0.5131371845389268  0.6052225945998373  0.9016546612889942  1.0000
  Br  Br3       1.0  0.38822617549999444  0.10551809771133243  0.9018167533029885  1.0000
  Br  Br4       1.0  0.4867729555893802  0.39471484399228274  0.0984936131625034  1.0000
  N   N1        1.0  0.045475408411739644  0.7931239001125617  0.8580140738891374  1.0000
  N   N2        1.0  0.1881080196948659  0.7073566700622537  0.14237358078187873  1.0000
  N   N3        1.0  0.9543944964529985  0.2068364827831815  0.14196915065600282  1.0000
  N   N4        1.0  0.8118999916292822  0.29266198024119217  0.8576390126998847  1.0000
