data_image0
_chemical_formula_structural       Al4H24C38O24
_chemical_formula_sum              "Al4 H24 C38 O24"
_cell_length_a       6.635091754736692
_cell_length_b       14.36317840351075
_cell_length_c       18.63838664704166
_cell_angle_alpha    79.66396206058317
_cell_angle_beta     84.36444918094583
_cell_angle_gamma    85.94691308188858

_space_group_name_H-M_alt    "P 1"
_space_group_IT_number       1

loop_
  _space_group_symop_operation_xyz
  'x, y, z'

loop_
  _atom_site_type_symbol
  _atom_site_label
  _atom_site_symmetry_multiplicity
  _atom_site_fract_x
  _atom_site_fract_y
  _atom_site_fract_z
  _atom_site_occupancy
  Al  Al1       1.0  0.12818994859134145  0.49709581916577855  0.5008319376692826  1.0000
  Al  Al2       1.0  0.6277594356798063  0.5002304896794313  0.4999097484970392  1.0000
  Al  Al3       1.0  0.6354963562238611  0.997435742848985  0.9987099232224211  1.0000
  Al  Al4       1.0  0.1361778596682655  0.9992924827181825  0.9971292788952794  1.0000
  H   H1        1.0  0.03208998224046412  0.21095039280811528  0.7919316932995173  1.0000
  H   H2        1.0  0.5206094831324466  0.7789608770501955  0.18725073030990558  1.0000
  H   H3        1.0  0.5633309423474273  0.3285283841900934  0.7119329237010988  1.0000
  H   H4        1.0  0.0757636919939557  0.6932317461477239  0.3192857156890839  1.0000
  H   H5        1.0  0.009221859148226498  0.26130628829063346  0.6776931352241818  1.0000
  H   H6        1.0  0.5373811046800158  0.7181514502641874  0.3011043598979199  1.0000
  H   H7        1.0  0.641184922428444  0.30238480485845537  0.3650803632058981  1.0000
  H   H8        1.0  0.6184752826347408  0.6906018044125729  0.6319744547284288  1.0000
  H   H9        1.0  0.24519757365539627  0.3951360578688962  0.3022262433554276  1.0000
  H   H10       1.0  0.010109790798431105  0.6050533569032978  0.6969747045621875  1.0000
  H   H11       1.0  0.49173567722878186  0.1980493128098288  0.2939424204399188  1.0000
  H   H12       1.0  0.7747142866747442  0.7962301161413662  0.7011221684286825  1.0000
  H   H13       1.0  0.2739589333585997  0.3098227661493667  0.1961377136664524  1.0000
  H   H14       1.0  0.9887472615951511  0.6925031619854138  0.801942104305752  1.0000
  H   H15       1.0  0.5194930255945351  0.11292979813134003  0.18767918792284632  1.0000
  H   H16       1.0  0.7529937010780261  0.8840497831908747  0.8059797340513201  1.0000
  H   H17       1.0  0.12577974997632424  0.20309015370929734  0.1252786807010082  1.0000
  H   H18       1.0  0.14418563021710182  0.7989632467040123  0.870722964771986  1.0000
  H   H19       1.0  0.2933658053286551  0.11292551488350713  0.8470322217890498  1.0000
  H   H20       1.0  0.7960824237002202  0.9209014407286416  0.20553187103460863  1.0000
  H   H21       1.0  0.4060169630943166  0.38444488474740973  0.47788480125647226  1.0000
  H   H22       1.0  0.8734568289553268  0.6213814256260691  0.4689915048382006  1.0000
  H   H23       1.0  0.3729690871716188  0.12659547152851047  0.981480450537319  1.0000
  H   H24       1.0  0.8994509961865945  0.8744198244776271  0.027664077825185988  1.0000
  C   C1        1.0  0.33056457524610755  0.5912218561733552  0.5960406009454006  1.0000
  C   C2        1.0  0.924458517648148  0.4039243363199673  0.40352748886913775  1.0000
  C   C3        1.0  0.39072359662274186  0.6250650952684964  0.3942931168454322  1.0000
  C   C4        1.0  0.8587144779631617  0.37382566223566016  0.6044588251253272  1.0000
  C   C5        1.0  0.711526939247122  0.22094155868047946  0.7914630448286389  1.0000
  C   C6        1.0  0.20606011952347106  0.7867035008518782  0.2227849234772066  1.0000
  C   C7        1.0  0.8882164361338172  0.1865997087747147  0.8196885542521315  1.0000
  C   C8        1.0  0.3703274045962744  0.8106435257789998  0.17572235621526738  1.0000
  C   C9        1.0  0.7057032249407486  0.2876124640314545  0.7226462217621688  1.0000
  C   C10       1.0  0.21785469052760223  0.7211407958771828  0.29192687780052035  1.0000
  C   C11       1.0  0.8640344826552354  0.301171264176588  0.6713662303074983  1.0000
  C   C12       1.0  0.38966363924878783  0.6935847346259366  0.32490939689938614  1.0000
  C   C13       1.0  0.9406502042338831  0.3526672260173597  0.3400999596537986  1.0000
  C   C14       1.0  0.3164849258687639  0.6440379336730545  0.6583583305224678  1.0000
  C   C15       1.0  0.8258745271975414  0.153458163492239  0.15069202547714872  1.0000
  C   C16       1.0  0.44650426338979093  0.8453301921661873  0.8442713230594023  1.0000
  C   C17       1.0  0.6297631841910845  0.1994614089498654  0.2568180940966585  1.0000
  C   C18       1.0  0.6376850909424974  0.796308767704339  0.7385975093645883  1.0000
  C   C19       1.0  0.6448522281392856  0.15211717291327886  0.19843397360082804  1.0000
  C   C20       1.0  0.6265679791405321  0.8447506058576619  0.7963241230770424  1.0000
  C   C21       1.0  0.9876714855437501  0.20325786961775794  0.1621997615772202  1.0000
  C   C22       1.0  0.2816796714620154  0.7968089078961  0.8336503926009656  1.0000
  C   C23       1.0  0.9747792955005823  0.25431352245691125  0.22086975669922287  1.0000
  C   C24       1.0  0.2906553706841493  0.744670849847779  0.7757969360862874  1.0000
  C   C25       1.0  0.792283897509762  0.25218392270848256  0.2693798958890882  1.0000
  C   C26       1.0  0.47232095470718605  0.744572889704159  0.727036736603779  1.0000
  C   C27       1.0  0.7794290363771382  0.3028315895376323  0.32819466420604476  1.0000
  C   C28       1.0  0.4810938631887824  0.6926693982366813  0.669068095956419  1.0000
  C   C29       1.0  0.12110437789185376  0.3547484140295367  0.2920697817925912  1.0000
  C   C30       1.0  0.1367332258478768  0.6443294116071955  0.7065078689116859  1.0000
  C   C31       1.0  0.136479767265449  0.30751058097136746  0.23353535316094556  1.0000
  C   C32       1.0  0.12554048575889715  0.6927312332623002  0.7642985200256263  1.0000
  C   C33       1.0  0.36642231954989773  0.8788910311945697  0.10689152880308231  1.0000
  C   C34       1.0  0.8995532486810448  0.11827541688831641  0.8877442332056162  1.0000
  C   C35       1.0  0.43312828537851544  0.89874183278593  0.9061321526717098  1.0000
  C   C36       1.0  0.8406453747557949  0.10011162154654582  0.08858254727801551  1.0000
  C   C37       1.0  0.5066843038221976  0.19954754866535754  0.8323603031389412  1.0000
  C   C38       1.0  0.9930575016053782  0.8192196377263555  0.2048745628464914  1.0000
  O   O1        1.0  0.5652325565976783  0.591839866358157  0.413160975385459  1.0000
  O   O2        1.0  0.031012988122483924  0.3911862296738348  0.5692590078341766  1.0000
  O   O3        1.0  0.17010513544497033  0.5568021867710654  0.5819124354957168  1.0000
  O   O4        1.0  0.7490884335216991  0.4135507417613055  0.4371861047735522  1.0000
  O   O5        1.0  0.22049592193961592  0.6044641315253825  0.42970129892246695  1.0000
  O   O6        1.0  0.6888788488875052  0.41341652020698644  0.5867841444771785  1.0000
  O   O7        1.0  0.08777747471154383  0.433597999715886  0.419944086223758  1.0000
  O   O8        1.0  0.5034122054283401  0.5848779565097003  0.5602387080740883  1.0000
  O   O9        1.0  0.3880906448269954  0.44060269830227117  0.500344317593637  1.0000
  O   O10       1.0  0.8714007266433726  0.5573702102231407  0.49639933304711553  1.0000
  O   O11       1.0  0.25790280112791925  0.9103818405696628  0.9393431031710833  1.0000
  O   O12       1.0  0.6781357818279832  0.06558572282398958  0.0761041519536718  1.0000
  O   O13       1.0  0.5399882970934087  0.897660333936713  0.07326899513417831  1.0000
  O   O14       1.0  0.0762377168916117  0.08297678778459523  0.9048021401713772  1.0000
  O   O15       1.0  0.5962632220841756  0.9286230070704777  0.922249243724707  1.0000
  O   O16       1.0  0.013036267249475503  0.09228386167836791  0.05257413773439619  1.0000
  O   O17       1.0  0.7354220011094557  0.09819416895122395  0.9265818319422936  1.0000
  O   O18       1.0  0.19617503811952736  0.9141829898023062  0.08567756898193578  1.0000
  O   O19       1.0  0.3783674289833243  0.05778774434102733  0.992384824498643  1.0000
  O   O20       1.0  0.8944030446071309  0.9400889726774152  0.0034952513608174996  1.0000
  O   O21       1.0  0.4234675552979752  0.2515272741645234  0.8730746561231443  1.0000
  O   O22       1.0  0.42428550671292  0.12497413867457405  0.8151859924701839  1.0000
  O   O23       1.0  0.8823631052361378  0.7677951173031372  0.18305998290359338  1.0000
  O   O24       1.0  0.9333475815818988  0.9052891137705359  0.22132424683034907  1.0000
