data_image0
_chemical_formula_structural       Zn4H58C82N18O4
_chemical_formula_sum              "Zn4 H58 C82 N18 O4"
_cell_length_a       20.63360978719768
_cell_length_b       19.657727909768017
_cell_length_c       21.076630913284426
_cell_angle_alpha    107.01743165374675
_cell_angle_beta     106.49463270010433
_cell_angle_gamma    112.43304236159945

_space_group_name_H-M_alt    "P 1"
_space_group_IT_number       1

loop_
  _space_group_symop_operation_xyz
  'x, y, z'

loop_
  _atom_site_type_symbol
  _atom_site_label
  _atom_site_symmetry_multiplicity
  _atom_site_fract_x
  _atom_site_fract_y
  _atom_site_fract_z
  _atom_site_occupancy
  Zn  Zn1       1.0  0.6134557249669044  0.5861387482106796  0.5071481309604947  1.0000
  Zn  Zn2       1.0  0.3693980688756895  0.36752658656280346  0.49206192490211  1.0000
  Zn  Zn3       1.0  0.4971609069178272  0.5787950337832015  0.5922803321558944  1.0000
  Zn  Zn4       1.0  0.4568722497145359  0.3766494751218872  0.3802188465471231  1.0000
  H   H1        1.0  0.7779828691289481  0.732532496814386  0.6594419428985174  1.0000
  H   H2        1.0  0.4371635071015874  0.2602822136615117  0.5528586880606169  1.0000
  H   H3        1.0  0.6252322896436624  0.5555033008114877  0.6915510840138238  1.0000
  H   H4        1.0  0.711557026954388  0.40792931395370874  0.41086430232221716  1.0000
  H   H5        1.0  0.4183271369078199  0.34924285424117585  0.6608055458156413  1.0000
  H   H6        1.0  0.7305480233244737  0.5573983600007324  0.620339869070932  1.0000
  H   H7        1.0  0.5899141084804284  0.32988136216940933  0.4501912474148283  1.0000
  H   H8        1.0  0.6084863518914504  0.7718537339805565  0.723201731719456  1.0000
  H   H9        1.0  0.6121483027828135  0.6307285626255991  0.37330062256265956  1.0000
  H   H10       1.0  0.2159753340411044  0.3698024040046874  0.46630475441368435  1.0000
  H   H11       1.0  0.4325406833350983  0.6831961564464137  0.5392294920762951  1.0000
  H   H12       1.0  0.3278549396416537  0.35951575338141584  0.2527010527740003  1.0000
  H   H13       1.0  0.1756647832702853  0.2518214293981983  0.34374230415904333  1.0000
  H   H14       1.0  0.6548144973509198  0.7761499979683538  0.5292683308662375  1.0000
  H   H15       1.0  0.4739774877453867  0.3674087707271595  0.2290672201783152  1.0000
  H   H16       1.0  0.029065422918797854  0.5507556279068168  0.7152343726159598  1.0000
  H   H17       1.0  0.061759176940007945  0.4205736751163443  0.6834240523235378  1.0000
  H   H18       1.0  0.09687982399164953  0.6035271516626538  0.6260621257129059  1.0000
  H   H19       1.0  0.9465284973471384  0.49980053255519163  0.5006897780573567  1.0000
  H   H20       1.0  0.9799086132432533  0.3694352327651913  0.4691261356628898  1.0000
  H   H21       1.0  0.912225522054328  0.3170906774356794  0.5584505051312971  1.0000
  H   H22       1.0  0.7109927615724415  0.1422650700407218  0.5747582643899916  1.0000
  H   H23       1.0  0.7062902730521402  0.10232408698195881  0.6929485308876336  1.0000
  H   H24       1.0  0.5880183475198137  0.977722913434633  0.4708103125206762  1.0000
  H   H25       1.0  0.4763592859243317  0.028701083014709604  0.4755402716991809  1.0000
  H   H26       1.0  0.472297084422202  0.989907167013321  0.5949809534489175  1.0000
  H   H27       1.0  0.4697027135042049  0.402647701731361  0.12769060133019383  1.0000
  H   H28       1.0  0.6615589159255252  0.5870817171024498  0.8303513119718743  1.0000
  H   H29       1.0  0.5225117333003766  0.32228241959866466  0.7374249453986507  1.0000
  H   H30       1.0  0.6045916140009524  0.4095936292586018  0.988687841833993  1.0000
  H   H31       1.0  0.7198768973992884  0.6443595221869173  0.19233524252670972  1.0000
  H   H32       1.0  0.7033444732176334  0.5979146658618786  0.9561939471265715  1.0000
  H   H33       1.0  0.6806418131725851  0.6332417210347289  0.290639956869839  1.0000
  H   H34       1.0  0.672462173696033  0.5974009045306231  0.05008250348382146  1.0000
  H   H35       1.0  0.5627861489546647  0.33324281000105316  0.8635185414588447  1.0000
  H   H36       1.0  0.8651703945690912  0.8794831951885625  0.7231314360825464  1.0000
  H   H37       1.0  0.22489013739048863  0.2809816838292249  0.13933409409084158  1.0000
  H   H38       1.0  0.06611531428560373  0.24210336266543211  0.2386166534559422  1.0000
  H   H39       1.0  0.9094911173477911  0.09129873217854373  0.9844025175054865  1.0000
  H   H40       1.0  0.7929601326607596  0.05260677453845372  0.8784048308162155  1.0000
  H   H41       1.0  0.1155846248661589  0.2188202533460739  0.0181650976556469  1.0000
  H   H42       1.0  0.6952578439042725  0.9066290940478936  0.7926424306926945  1.0000
  H   H43       1.0  0.961588146624976  0.02577186088743131  0.8072295718163002  1.0000
  H   H44       1.0  0.9553856298355541  0.1775276063914504  0.11551395323990478  1.0000
  H   H45       1.0  0.3796088915198723  0.7831027482531852  0.746032564241865  1.0000
  H   H46       1.0  0.4452192137432576  0.8147586931233377  0.7074977485320701  1.0000
  H   H47       1.0  0.35536861518195917  0.813953854079493  0.6756772093493238  1.0000
  H   H48       1.0  0.3464166027093967  0.6909344014342409  0.5837986042490754  1.0000
  H   H49       1.0  0.279599902080804  0.6594786195078582  0.6200938179918224  1.0000
  H   H50       1.0  0.36951248584981755  0.6390255827060114  0.7088181861070948  1.0000
  H   H51       1.0  0.4421258662558998  0.6762711358323016  0.6792480605264897  1.0000
  H   H52       1.0  0.057872333160489065  0.3279742642625861  0.869453225801898  1.0000
  H   H53       1.0  0.05392466517150043  0.24595362049029756  0.8013103781181383  1.0000
  H   H54       1.0  0.9852774972174744  0.27842791521059956  0.77616299174894  1.0000
  H   H55       1.0  0.9213243314238543  0.1471978315214884  0.7858110903206921  1.0000
  H   H56       1.0  0.9255177392745607  0.2284568667169964  0.8538088694220888  1.0000
  H   H57       1.0  0.0467685192740674  0.2489631797475695  0.9483030077409037  1.0000
  H   H58       1.0  0.04250103314676324  0.16737417875910415  0.8802150924387391  1.0000
  C   C1        1.0  0.727295360746524  0.7284168152704638  0.6679544276450143  1.0000
  C   C2        1.0  0.46546915326610633  0.2815487122349936  0.5208134300668873  1.0000
  C   C3        1.0  0.5674864823252933  0.5042609539523681  0.673181962180493  1.0000
  C   C4        1.0  0.70560012002732  0.44681779979965336  0.45492012015314737  1.0000
  C   C5        1.0  0.46149064763473296  0.3987504677686999  0.6566416434801708  1.0000
  C   C6        1.0  0.7169379845565089  0.5230598820757634  0.5630622976422827  1.0000
  C   C7        1.0  0.5445864633174224  0.31673460241680124  0.4687734611571628  1.0000
  C   C8        1.0  0.641304094482834  0.7486709113232167  0.7008374905232486  1.0000
  C   C9        1.0  0.7181839642739619  0.7915463757231436  0.7099387112415839  1.0000
  C   C10       1.0  0.531785460113511  0.2801929119318842  0.5154855936060514  1.0000
  C   C11       1.0  0.5425788856158675  0.4507046648831264  0.7038795473192535  1.0000
  C   C12       1.0  0.7462048098608349  0.475085979520273  0.532803729436793  1.0000
  C   C13       1.0  0.5759115524997754  0.5639485762428438  0.3476309127739156  1.0000
  C   C14       1.0  0.2647885814982089  0.4305770626238257  0.5080487281748133  1.0000
  C   C15       1.0  0.4852421208178442  0.692293486239734  0.5329624497009603  1.0000
  C   C16       1.0  0.3007694952150218  0.33591666222177713  0.28465214177173687  1.0000
  C   C17       1.0  0.22379830867725303  0.28202186586521794  0.3318381004862799  1.0000
  C   C18       1.0  0.5990520263586488  0.7396268843033553  0.527905978141753  1.0000
  C   C19       1.0  0.5041450561410485  0.42988246185764484  0.27319603060578146  1.0000
  C   C20       1.0  0.3434360625452157  0.5581811358753016  0.6005986411342192  1.0000
  C   C21       1.0  0.5515950708311905  0.5050740774338393  0.2757320867280625  1.0000
  C   C22       1.0  0.26483523289780925  0.4918680159704324  0.5631467389281752  1.0000
  C   C23       1.0  0.5465996311578252  0.7643444239883265  0.5418934279705849  1.0000
  C   C24       1.0  0.2214810550781436  0.2947704887190384  0.26882534908427397  1.0000
  C   C25       1.0  0.03571355743026323  0.43817533471549563  0.6427333755696693  1.0000
  C   C26       1.0  0.018611999851991485  0.5107979348501389  0.6604205315736705  1.0000
  C   C27       1.0  0.807700867440879  0.4628380547111348  0.5659349145584968  1.0000
  C   C28       1.0  0.20089671510253035  0.4860665250393198  0.5776884611785249  1.0000
  C   C29       1.0  0.9535021546555172  0.38081834492792416  0.5732929772027758  1.0000
  C   C30       1.0  0.9350609429924219  0.45374022637623307  0.5906628430535861  1.0000
  C   C31       1.0  0.9897404774730773  0.40962375209422663  0.5235658601296931  1.0000
  C   C32       1.0  0.0736452727811782  0.46753217029966987  0.5928446228901193  1.0000
  C   C33       1.0  0.9735934122117698  0.48257375523753154  0.541130521742552  1.0000
  C   C34       1.0  0.05489296597011159  0.5399691921109308  0.6108813186858197  1.0000
  C   C35       1.0  0.8638060293052163  0.45241896758084  0.5827242186018393  1.0000
  C   C36       1.0  0.1435672453047375  0.4764897415562786  0.5885280393698196  1.0000
  C   C37       1.0  0.6554909956975974  0.08526916482905018  0.6438747493940011  1.0000
  C   C38       1.0  0.6575863948905081  0.10685166727256498  0.5782251213295878  1.0000
  C   C39       1.0  0.5684290512125615  0.24220630219866027  0.5459453160126343  1.0000
  C   C40       1.0  0.5584326079900847  0.8444765377018796  0.562402561976256  1.0000
  C   C41       1.0  0.5935532477137855  0.11104830027233702  0.6458649579120743  1.0000
  C   C42       1.0  0.5952260662050292  0.13470029905988676  0.5793900815192572  1.0000
  C   C43       1.0  0.5245200039824811  0.022473937165067105  0.588680766472862  1.0000
  C   C44       1.0  0.586069134736718  0.9936605733591932  0.585785141414341  1.0000
  C   C45       1.0  0.5270623245183756  0.04299435676841771  0.5230825911024368  1.0000
  C   C46       1.0  0.5893700355220234  0.0172611113553955  0.5205483468690346  1.0000
  C   C47       1.0  0.5900034514756883  0.2009499018534626  0.569671095919297  1.0000
  C   C48       1.0  0.5751079705276041  0.9162345894337633  0.5807460559875465  1.0000
  C   C49       1.0  0.5731121890480823  0.5160534783302709  0.21778693372608865  1.0000
  C   C50       1.0  0.5257025993543181  0.4555771245885012  0.14371455369733604  1.0000
  C   C51       1.0  0.5479116080672314  0.4637540349261756  0.08884535862311783  1.0000
  C   C52       1.0  0.6191916866996082  0.5299963378567372  0.10374069547576438  1.0000
  C   C53       1.0  0.6644785825734517  0.5915246767309198  0.17809424988777064  1.0000
  C   C54       1.0  0.642413467158967  0.5851643365146586  0.23352323783825557  1.0000
  C   C55       1.0  0.6633252406307123  0.5372420824366771  0.9084552246664399  1.0000
  C   C56       1.0  0.6402487412060437  0.531136289512702  0.8375137347254975  1.0000
  C   C57       1.0  0.5612675763332078  0.38302071123771236  0.7852605904700878  1.0000
  C   C58       1.0  0.5847519284054385  0.38911916182097167  0.8563282246343957  1.0000
  C   C59       1.0  0.6310348477598141  0.4667037952914512  0.9194049948753145  1.0000
  C   C60       1.0  0.6445324558627519  0.5358420820819492  0.046709002081826184  1.0000
  C   C61       1.0  0.6298329986723346  0.46976333732737174  0.9887566786806798  1.0000
  C   C62       1.0  0.5840366269907237  0.45444352346620326  0.7748647941808284  1.0000
  C   C63       1.0  0.7734877581339106  0.8800694247475462  0.7537108528238005  1.0000
  C   C64       1.0  0.8483443496494092  0.9169325145844526  0.756640330006526  1.0000
  C   C65       1.0  0.9029149556715907  1.1925741567600965e-05  0.8039820120204835  1.0000
  C   C66       1.0  0.8857615421252164  0.0494022502397229  0.8519403828178225  1.0000
  C   C67       1.0  0.8089404004173701  0.01448091709077911  0.8444759675668292  1.0000
  C   C68       1.0  0.7539940095855115  0.931890558450192  0.7961483968195395  1.0000
  C   C69       1.0  0.10393502778924102  0.22619352342091054  0.06625382157320558  1.0000
  C   C70       1.0  0.16618851365451798  0.2610612069688186  0.13542297129771433  1.0000
  C   C71       1.0  0.07759579642394242  0.2377617476689622  0.19052291205891683  1.0000
  C   C72       1.0  0.015009643194211686  0.20195511312595468  0.12098736869376835  1.0000
  C   C73       1.0  0.02595678952432931  0.193430500075813  0.05651752530194899  1.0000
  C   C74       1.0  0.9509370779409566  0.1297080682802161  0.9147821347330946  1.0000
  C   C75       1.0  0.9584413578650909  0.1390306238220873  0.983485436349518  1.0000
  C   C76       1.0  0.15478668777705454  0.26609987698468274  0.1990907762318415  1.0000
  C   C77       1.0  0.3781885081669857  0.6428451519321214  0.6604392292229093  1.0000
  C   C78       1.0  0.3426035300262242  0.6918455566637363  0.6351262127831703  1.0000
  C   C79       1.0  0.38284600434373334  0.780751079219094  0.6942840294559431  1.0000
  C   C80       1.0  0.0059498113885752355  0.19005799996504186  0.8978239638310581  1.0000
  C   C81       1.0  0.9621442371480812  0.205993414459293  0.8365952927120615  1.0000
  C   C82       1.0  0.017742828514151696  0.26792952914934176  0.8199508076645541  1.0000
  N   N1        1.0  0.6611001915682735  0.6540745477793237  0.6357059647868013  1.0000
  N   N2        1.0  0.4402295151153623  0.3152752482393098  0.48019746870430413  1.0000
  N   N3        1.0  0.5058121016694344  0.48597147792870743  0.6127365460337941  1.0000
  N   N4        1.0  0.6569478472584579  0.47517775271884943  0.4394282876955272  1.0000
  N   N5        1.0  0.4398828337400432  0.42075792092427383  0.6032394300648888  1.0000
  N   N6        1.0  0.6643107833834063  0.5225229227291308  0.5063976683152231  1.0000
  N   N7        1.0  0.48902050889775955  0.33681610721624383  0.4480010319168812  1.0000
  N   N8        1.0  0.6084256782980973  0.667708194961307  0.6571054242997504  1.0000
  N   N9        1.0  0.54606945221542  0.5269367411687541  0.3852128674210605  1.0000
  N   N10       1.0  0.3373360252720303  0.4568931577149585  0.5125718537521564  1.0000
  N   N11       1.0  0.5004023196091438  0.6298245542520107  0.5159418938977679  1.0000
  N   N12       1.0  0.3459290096612763  0.3449863353400887  0.3505146613468213  1.0000
  N   N13       1.0  0.29823480463829816  0.31123048233642703  0.3799873891564616  1.0000
  N   N14       1.0  0.5705620401379008  0.6602194878572761  0.512731385021354  1.0000
  N   N15       1.0  0.5022375354927888  0.4444999135445826  0.33895053171666223  1.0000
  N   N16       1.0  0.3852845122134738  0.5351333325565973  0.5697700912701078  1.0000
  N   N17       1.0  0.5949267014164192  0.16511569621428632  0.7115125305364173  1.0000
  N   N18       1.0  0.4879159550774261  0.4016156861526241  0.012152040261170796  1.0000
  O   O1        1.0  0.6572070983004465  0.20742068208019762  0.7696912950975513  1.0000
  O   O2        1.0  0.5334756266999675  0.1668641149061472  0.7029124693934888  1.0000
  O   O3        1.0  0.46198632834038034  0.3278496947937911  0.9981827046391128  1.0000
  O   O4        1.0  0.4647764717160002  0.42680282490738364  0.9681665905143005  1.0000
