data_image0
_chemical_formula_structural       Cd6H60C84O32
_chemical_formula_sum              "Cd6 H60 C84 O32"
_cell_length_a       7.124190434954715
_cell_length_b       21.362072892833638
_cell_length_c       21.41182249480717
_cell_angle_alpha    60.09320356046559
_cell_angle_beta     84.19411368487081
_cell_angle_gamma    90.09943766596557

_space_group_name_H-M_alt    "P 1"
_space_group_IT_number       1

loop_
  _space_group_symop_operation_xyz
  'x, y, z'

loop_
  _atom_site_type_symbol
  _atom_site_label
  _atom_site_symmetry_multiplicity
  _atom_site_fract_x
  _atom_site_fract_y
  _atom_site_fract_z
  _atom_site_occupancy
  Cd  Cd1       1.0  0.15566253616351136  0.693318500900446  0.5512892844220688  1.0000
  Cd  Cd2       1.0  0.651626079063334  0.7509885888476687  0.5548312140219738  1.0000
  Cd  Cd3       1.0  0.2571442074133259  0.9184091188350648  0.0016060826579363493  1.0000
  Cd  Cd4       1.0  0.8443293616580476  0.30668187826586296  0.44870747313920123  1.0000
  Cd  Cd5       1.0  0.3483607477616388  0.2490191949922859  0.44515199120850474  1.0000
  Cd  Cd6       1.0  0.7428695426980312  0.0815937921770029  0.9983923253225414  1.0000
  H   H1        1.0  0.915360280364652  0.9132115382713691  0.9177152272855693  1.0000
  H   H2        1.0  0.16923865726166548  0.9059484134895682  0.8340050535849031  1.0000
  H   H3        1.0  0.7476446041071442  0.853676255326647  0.7330290430668641  1.0000
  H   H4        1.0  0.49555068434587213  0.8596754901891187  0.8185268025483766  1.0000
  H   H5        1.0  0.9924196198506863  0.7864563054791063  0.7259242634232521  1.0000
  H   H6        1.0  0.48878270636033244  0.8839215561979046  0.5716180206571125  1.0000
  H   H7        1.0  0.2949821964342051  0.9682969418548167  0.7110794591658448  1.0000
  H   H8        1.0  0.4117383732818852  0.06772775690381388  0.6172191883114877  1.0000
  H   H9        1.0  0.6786108508808226  0.15799731263005867  0.5734794236834375  1.0000
  H   H10       1.0  0.04685225608793791  0.011494191307704689  0.5468085076770137  1.0000
  H   H11       1.0  0.7795895115491973  0.9201881985728942  0.5903775159174105  1.0000
  H   H12       1.0  0.4608385574807415  0.5580821952280034  0.45207107533975943  1.0000
  H   H13       1.0  0.7295073696086123  0.5111523196154407  0.4081947847698758  1.0000
  H   H14       1.0  0.09575487252034522  0.6853484619908058  0.38309046107483624  1.0000
  H   H15       1.0  0.8269828715686103  0.7319440910871292  0.4258697029502089  1.0000
  H   H16       1.0  0.006001945937171616  0.4566841699290336  0.42401199722658595  1.0000
  H   H17       1.0  0.5227396999911136  0.5095966907486301  0.2805206209114743  1.0000
  H   H18       1.0  0.2229843192485674  0.6785248933578528  0.291904930947979  1.0000
  H   H19       1.0  0.3481985018999438  0.7380914258231426  0.17240335631547066  1.0000
  H   H20       1.0  0.7709905255300952  0.5842352551464386  0.2689218766154938  1.0000
  H   H21       1.0  0.02144007679887492  0.6781796576256269  0.187093787691218  1.0000
  H   H22       1.0  0.5994511009383031  0.8305472315225089  0.09083901919012762  1.0000
  H   H23       1.0  0.22643816249079413  0.9240020063829562  0.13502097347397796  1.0000
  H   H24       1.0  0.3358611191953215  0.9995988454856427  0.07415512970511914  1.0000
  H   H25       1.0  0.20254554337604702  0.07165063117368929  0.9297146504891174  1.0000
  H   H26       1.0  0.4066734596342769  0.05639314184163879  0.9025086929566656  1.0000
  H   H27       1.0  0.8355161184422641  0.7493625230753906  0.663274607969477  1.0000
  H   H28       1.0  0.6547141735948471  0.7943789142466854  0.6613947817289302  1.0000
  H   H29       1.0  0.3337491153271301  0.595939258602719  0.6651017562989666  1.0000
  H   H30       1.0  0.1420213698013555  0.6120825761443598  0.6972431272927652  1.0000
  H   H31       1.0  0.08466462248626531  0.08679023702676149  0.0822841901656446  1.0000
  H   H32       1.0  0.8307826068873824  0.09404156700473008  0.16599725071790766  1.0000
  H   H33       1.0  0.2523489474479277  0.1463065797605694  0.2669824320965475  1.0000
  H   H34       1.0  0.5044593534895584  0.14031091914070967  0.18148745617837392  1.0000
  H   H35       1.0  0.0075967796868568185  0.2135379950975604  0.2740766787515981  1.0000
  H   H36       1.0  0.5112077931991338  0.11608930139058772  0.4283682630785393  1.0000
  H   H37       1.0  0.7050236569570958  0.031691230111377394  0.2889304046451002  1.0000
  H   H38       1.0  0.5882641814205344  0.9322687992922879  0.38277939426273394  1.0000
  H   H39       1.0  0.32138346859166933  0.8420044739040332  0.42650722564637544  1.0000
  H   H40       1.0  0.9531450132823023  0.9885057358910098  0.4531854370102768  1.0000
  H   H41       1.0  0.2204257301439583  0.0798047747793831  0.4096311079914017  1.0000
  H   H42       1.0  0.5391521342878107  0.44190877575474025  0.5479362277498012  1.0000
  H   H43       1.0  0.2704944835666936  0.48883216867882584  0.5918295932475176  1.0000
  H   H44       1.0  0.904210124091236  0.31465895011437783  0.6169055011848599  1.0000
  H   H45       1.0  0.17296750836528224  0.26806482622524186  0.5741149366195941  1.0000
  H   H46       1.0  0.9940068146520745  0.5433162107316246  0.575983131127977  1.0000
  H   H47       1.0  0.4772723038642183  0.49041095994932943  0.7194793711000502  1.0000
  H   H48       1.0  0.777024498216484  0.3214782212874354  0.7081033990693513  1.0000
  H   H49       1.0  0.6518115864748567  0.26190939069288527  0.8276097400679916  1.0000
  H   H50       1.0  0.2290460906648804  0.41577772233493693  0.7310909581482008  1.0000
  H   H51       1.0  0.9785716881222016  0.3218366284109919  0.8129180477220715  1.0000
  H   H52       1.0  0.40054810590834233  0.16946148836312597  0.9091773549415194  1.0000
  H   H53       1.0  0.7735656314195083  0.07600729896621769  0.8649781115606672  1.0000
  H   H54       1.0  0.664150493199493  0.0004078395769368944  0.9258420604916324  1.0000
  H   H55       1.0  0.7974602364107781  0.9283543924738493  0.07028496233815683  1.0000
  H   H56       1.0  0.5933398206700532  0.9436128011563195  0.09749438569114259  1.0000
  H   H57       1.0  0.1644971034222849  0.25064365463983757  0.33670639642208045  1.0000
  H   H58       1.0  0.3452853616110332  0.20561835353753105  0.33859891705914447  1.0000
  H   H59       1.0  0.6662547165910553  0.4040648848223042  0.33489274176910305  1.0000
  H   H60       1.0  0.8579827998295003  0.38791386152762186  0.3027587161142692  1.0000
  C   C1        1.0  0.5373371432978047  0.8965971319212397  0.9195604317315901  1.0000
  C   C2        1.0  0.6899682668982265  0.8889045434368368  0.8718601675582037  1.0000
  C   C3        1.0  0.8803104687299809  0.9017405505082576  0.8758834497574954  1.0000
  C   C4        1.0  0.022072158233918088  0.8979599304920284  0.8283873089702568  1.0000
  C   C5        1.0  0.9762870003189549  0.8807697706584534  0.7761769930934294  1.0000
  C   C6        1.0  0.7852870862765117  0.8661216939292159  0.7738616883825247  1.0000
  C   C7        1.0  0.6435485196531378  0.8701025412950543  0.8209741415633972  1.0000
  C   C8        1.0  0.12350525625225829  0.8790879677156552  0.7233976432260364  1.0000
  C   C9        1.0  0.10744782131747135  0.8281991459994341  0.7009426165132313  1.0000
  C   C10       1.0  0.23997344151818106  0.8289173496239354  0.6477260187098255  1.0000
  C   C11       1.0  0.39266389409100805  0.8809049152602167  0.6162539994857783  1.0000
  C   C12       1.0  0.4152895296260866  0.931242062644749  0.6394971856704502  1.0000
  C   C13       1.0  0.2796203215915725  0.9292204787435945  0.6930624050419923  1.0000
  C   C14       1.0  0.5755286038811391  0.9862431691693057  0.609086659327396  1.0000
  C   C15       1.0  0.5514652319303935  0.05406414786034468  0.6037103960994942  1.0000
  C   C16       1.0  0.701557882358216  0.10543692297364515  0.5783719932939704  1.0000
  C   C17       1.0  0.8810803266774272  0.09072507479659456  0.5571051319199469  1.0000
  C   C18       1.0  0.9069446065155663  0.02324967788662489  0.5623960013263982  1.0000
  C   C19       1.0  0.7559096315142356  0.9720155469008486  0.5874018111693645  1.0000
  C   C20       1.0  0.03860980824611461  0.14764401255312976  0.5260790880678387  1.0000
  C   C21       1.0  0.20981427608785447  0.7749489735612584  0.624168005144128  1.0000
  C   C22       1.0  0.46758299527746777  0.6738740750923355  0.47233941513624006  1.0000
  C   C23       1.0  0.6256716007385563  0.6480181804221485  0.4419210381158437  1.0000
  C   C24       1.0  0.6006971021371046  0.5856225794476159  0.4367567906000361  1.0000
  C   C25       1.0  0.7522374238230399  0.5596223628915452  0.4119372770620943  1.0000
  C   C26       1.0  0.9326055423598874  0.5957684863210915  0.39062395316614856  1.0000
  C   C27       1.0  0.9559756721320412  0.6582054103117227  0.39611287828270764  1.0000
  C   C28       1.0  0.8051928910369596  0.6842087720561165  0.42095442985838377  1.0000
  C   C29       1.0  0.09336176485077631  0.570860154327505  0.36099076461326274  1.0000
  C   C30       1.0  0.1101897593521883  0.49747733433315466  0.38286474638826473  1.0000
  C   C31       1.0  0.2648431503220152  0.47599279796941113  0.35367142770211063  1.0000
  C   C32       1.0  0.4045500703213207  0.5272635315294849  0.3030608434137818  1.0000
  C   C33       1.0  0.3915759570619244  0.6006803438883067  0.2805197279788133  1.0000
  C   C34       1.0  0.2345653268893457  0.6213531750187825  0.3095585596454456  1.0000
  C   C35       1.0  0.288524418326837  0.3983401266182723  0.37792474362351675  1.0000
  C   C36       1.0  0.5411040493952939  0.6550320343148782  0.22889232776608998  1.0000
  C   C37       1.0  0.49543762713668127  0.724962531574789  0.17804607361451033  1.0000
  C   C38       1.0  0.7321850702496279  0.6383061970558188  0.23042285591736794  1.0000
  C   C39       1.0  0.8734230952457126  0.6908556422181034  0.18493736613748282  1.0000
  C   C40       1.0  0.8272204212346497  0.7613701625463561  0.13606347281604067  1.0000
  C   C41       1.0  0.6364816896968933  0.7773434366986008  0.13187004275908273  1.0000
  C   C42       1.0  0.9801758244794384  0.8173728603504669  0.09000088610814337  1.0000
  C   C43       1.0  0.4626844252980646  0.10340315880424097  0.08043608141100123  1.0000
  C   C44       1.0  0.31003371359898324  0.11109332312426548  0.12814670304033632  1.0000
  C   C45       1.0  0.11968775125225758  0.09825429197118038  0.12411892050330661  1.0000
  C   C46       1.0  0.9779310544789228  0.10203170654104807  0.17161495973555674  1.0000
  C   C47       1.0  0.0237285648804431  0.11922025348606267  0.22382459042710687  1.0000
  C   C48       1.0  0.21471137809868424  0.13386490203480145  0.22614828511451895  1.0000
  C   C49       1.0  0.3564535241368461  0.12988658765512176  0.17903916833608952  1.0000
  C   C50       1.0  0.8765041512689395  0.12090631292347344  0.2766045307198297  1.0000
  C   C51       1.0  0.8925537495375266  0.17179895234041703  0.29905761886662674  1.0000
  C   C52       1.0  0.760022961045266  0.17108405349603123  0.35227147455986335  1.0000
  C   C53       1.0  0.6073230109999415  0.11909866935245354  0.38374285963047333  1.0000
  C   C54       1.0  0.5847098465560308  0.06875687415496398  0.3605097566307691  1.0000
  C   C55       1.0  0.7203839650799112  0.07077589270588898  0.30694133414181124  1.0000
  C   C56       1.0  0.42447559500987353  0.013753251947051088  0.39091565802382894  1.0000
  C   C57       1.0  0.4485429339411978  0.9459324143524124  0.39628748542442366  1.0000
  C   C58       1.0  0.29844077339843267  0.894563608575211  0.4216197409427383  1.0000
  C   C59       1.0  0.11891229165013335  0.9092739112265918  0.4428857073379503  1.0000
  C   C60       1.0  0.09306513238185234  0.9767485702010249  0.4375991539523837  1.0000
  C   C61       1.0  0.2441031798608009  0.027981366058185082  0.41260085551380143  1.0000
  C   C62       1.0  0.9613794599754544  0.8523610125385658  0.4739067149285818  1.0000
  C   C63       1.0  0.7901842064386033  0.22505798354837475  0.3758225868784919  1.0000
  C   C64       1.0  0.5323703314566399  0.3261173617286984  0.5276579894824138  1.0000
  C   C65       1.0  0.37429888136481543  0.3519730923369835  0.5580794767380297  1.0000
  C   C66       1.0  0.3992873948230979  0.4143657479290824  0.5632506072494721  1.0000
  C   C67       1.0  0.2477546266357393  0.4403662602950647  0.5880762142261774  1.0000
  C   C68       1.0  0.0673776456826758  0.40422730110901023  0.609383265283789  1.0000
  C   C69       1.0  0.0439922483256154  0.34179442321593706  0.6038865242093651  1.0000
  C   C70       1.0  0.19476768628246083  0.3157912402015057  0.579040517074411  1.0000
  C   C71       1.0  0.9066277991003205  0.42913876780415455  0.6390175230120292  1.0000
  C   C72       1.0  0.88981904313966  0.5025212419284911  0.6171363690442534  1.0000
  C   C73       1.0  0.7351690378419917  0.5240096080262759  0.6463263470637984  1.0000
  C   C74       1.0  0.5954669262646208  0.47274091372211297  0.6969390470427541  1.0000
  C   C75       1.0  0.6084435339016849  0.3993207190745379  0.7194853878619014  1.0000
  C   C76       1.0  0.7654383088749199  0.3786457373210863  0.6904486862703864  1.0000
  C   C77       1.0  0.71147079556809  0.601662934534822  0.6220710848424674  1.0000
  C   C78       1.0  0.45891829891313324  0.34497592347914713  0.7711131701869577  1.0000
  C   C79       1.0  0.5045747460222286  0.27504372304154157  0.8219634391312168  1.0000
  C   C80       1.0  0.26783089340253957  0.3617037714051747  0.7695866337710983  1.0000
  C   C81       1.0  0.1265875664565641  0.3091559259577394  0.8150725248536262  1.0000
  C   C82       1.0  0.17278276367105153  0.23863987929418326  0.8639451060285879  1.0000
  C   C83       1.0  0.36351587850039385  0.22266600869603073  0.8681409168656984  1.0000
  C   C84       1.0  0.01983370871914759  0.1826375656513689  0.9099960341932559  1.0000
  O   O1        1.0  0.5814152269767945  0.9216713719019008  0.9607925063090834  1.0000
  O   O2        1.0  0.3666972750771151  0.8802550662907506  0.9191377824195399  1.0000
  O   O3        1.0  0.05801173911391544  0.7344628882283928  0.6479289825666257  1.0000
  O   O4        1.0  0.3337643746099205  0.7710705964103041  0.5786127741478355  1.0000
  O   O5        1.0  0.010414078888537407  0.2091334691965372  0.5214278058482833  1.0000
  O   O6        1.0  0.1994785893732995  0.1348072036332795  0.5037817719185044  1.0000
  O   O7        1.0  0.3070140229936413  0.638297406907199  0.4946373379403184  1.0000
  O   O8        1.0  0.49367909428539053  0.7312158067101463  0.4766593913460896  1.0000
  O   O9        1.0  0.15795510222925205  0.3500260078358721  0.42039213269888615  1.0000
  O   O10       1.0  0.44250039815437964  0.3785305467668678  0.3591560714163294  1.0000
  O   O11       1.0  0.15134883713593436  0.8007883334615469  0.09214496786085408  1.0000
  O   O12       1.0  0.9392947749082053  0.8837647899516128  0.047362034370877444  1.0000
  O   O13       1.0  0.32307208507491947  0.9450069789930707  0.0933758076370879  1.0000
  O   O14       1.0  0.27304654277946133  0.03855490390456138  0.9157149287294646  1.0000
  O   O15       1.0  0.694450311458489  0.749695114417655  0.6638417430226512  1.0000
  O   O16       1.0  0.19256261569798747  0.5931298561153681  0.6663050059002559  1.0000
  O   O17       1.0  0.418577329621968  0.0783333830303121  0.03920076624134341  1.0000
  O   O18       1.0  0.6333238877712759  0.11974881373862438  0.08086266954889253  1.0000
  O   O19       1.0  0.941988043582448  0.26554175419636283  0.35206684976631664  1.0000
  O   O20       1.0  0.6662260553507623  0.22893911343092552  0.4213759211591466  1.0000
  O   O21       1.0  0.9895692119882398  0.7908670085563472  0.47856692265118284  1.0000
  O   O22       1.0  0.800500055202825  0.8652051870041501  0.4961921276858165  1.0000
  O   O23       1.0  0.6929402108858868  0.3616937182954628  0.5053536325804161  1.0000
  O   O24       1.0  0.506263914844503  0.26876877862616055  0.5233524061920534  1.0000
  O   O25       1.0  0.8420343249355541  0.6499771466343132  0.5796015531522586  1.0000
  O   O26       1.0  0.5574912655859166  0.6214699648444437  0.640836894591402  1.0000
  O   O27       1.0  0.8486616103112822  0.19921940264928384  0.907852711206239  1.0000
  O   O28       1.0  0.060710112786935604  0.1162452853039539  0.9526301007712732  1.0000
  O   O29       1.0  0.6769397614011579  0.054999573624513666  0.906625174113195  1.0000
  O   O30       1.0  0.7269661594249327  0.9614489919332597  0.08428586389813122  1.0000
  O   O31       1.0  0.3055638997927162  0.2503101115830687  0.33613592883340715  1.0000
  O   O32       1.0  0.8074370096191217  0.4068736882290053  0.3336918161714451  1.0000
