data_image0
_chemical_formula_structural       Mn4H64C32S8O32
_chemical_formula_sum              "Mn4 H64 C32 S8 O32"
_cell_length_a       8.230378213
_cell_length_b       12.14750502868614
_cell_length_c       15.094
_cell_angle_alpha    111.8393006611763
_cell_angle_beta     90.0
_cell_angle_gamma    90.0

_space_group_name_H-M_alt    "P 1"
_space_group_IT_number       1

loop_
  _space_group_symop_operation_xyz
  'x, y, z'

loop_
  _atom_site_type_symbol
  _atom_site_label
  _atom_site_symmetry_multiplicity
  _atom_site_fract_x
  _atom_site_fract_y
  _atom_site_fract_z
  _atom_site_occupancy
  Mn  Mn1       1.0  0.5000001085612311  0.0  0.0  1.0000
  Mn  Mn2       1.0  0.9999990021114727  0.500000476511893  0.9999997451519107  1.0000
  Mn  Mn3       1.0  0.5000001085612311  0.49999958964814795  0.5000001421524799  1.0000
  Mn  Mn4       1.0  0.0  0.0  0.5  1.0000
  H   H1        1.0  0.4722334623530386  0.21400820345807153  0.9659651293783184  1.0000
  H   H2        1.0  0.9722274958593075  0.28599582050880207  0.034038327890563394  1.0000
  H   H3        1.0  0.5277667547694236  0.7859918627019625  0.034034757926065105  1.0000
  H   H4        1.0  0.027771506252165092  0.7140051325149772  0.9659618249281577  1.0000
  H   H5        1.0  0.3026495181066622  0.1853217087601706  0.010585362311132895  1.0000
  H   H6        1.0  0.8026508416788829  0.3146858626616762  0.9894224695896412  1.0000
  H   H7        1.0  0.6973506990158072  0.8146783573998634  0.9894151875081645  1.0000
  H   H8        1.0  0.1973493754435793  0.6853150903621028  0.01057768322908708  1.0000
  H   H9        1.0  0.409479359609108  0.8738933627941563  0.20577190845002488  1.0000
  H   H10       1.0  0.9094818981923252  0.6261133879239864  0.7942282575768187  1.0000
  H   H11       1.0  0.5905208575133543  0.1261075902296227  0.7942282443687034  1.0000
  H   H12       1.0  0.09051831893013677  0.3738857913723095  0.20577202672813394  1.0000
  H   H13       1.0  0.2777029124117121  0.946652551303096  0.3065174718666341  1.0000
  H   H14       1.0  0.7777066660059191  0.5533541994150469  0.693479381585675  1.0000
  H   H15       1.0  0.7222973047107502  0.053347514856938005  0.6934824154377495  1.0000
  H   H16       1.0  0.2222923361055535  0.4466458667449872  0.30652116823361547  1.0000
  H   H17       1.0  0.4830191149321337  0.0005143809721346001  0.3055621074981899  1.0000
  H   H18       1.0  0.9830240835373373  0.4994896429947319  0.6944367121663503  1.0000
  H   H19       1.0  0.5169811021903283  0.9994865720516446  0.6944380453205383  1.0000
  H   H20       1.0  0.0169749185741352  0.5005104231653021  0.30556317513804027  1.0000
  H   H21       1.0  0.380184229572535  0.21507687427087063  0.3447361143033731  1.0000
  H   H22       1.0  0.8801879831667492  0.2849271496959958  0.6552646929058881  1.0000
  H   H23       1.0  0.6198172025609168  0.7849231918891635  0.6552637730010104  1.0000
  H   H24       1.0  0.11981223395572017  0.7150720296002931  0.3447342663692581  1.0000
  H   H25       1.0  0.1753576764820295  0.1636077368259805  0.3525494622339735  1.0000
  H   H26       1.0  0.6753565700322708  0.33639628714088593  0.647449357430567  1.0000
  H   H27       1.0  0.8246425406404327  0.8363932161977987  0.6474513530996617  1.0000
  H   H28       1.0  0.3246424320792016  0.663603779019148  0.35255119238872357  1.0000
  H   H29       1.0  0.2158151125053251  0.2496867319220613  0.28090342944952335  1.0000
  H   H30       1.0  0.7158152210665634  0.2503199526360405  0.7190994993325646  1.0000
  H   H31       1.0  0.7841863196281267  0.7503133342379726  0.7190964578548671  1.0000
  H   H32       1.0  0.2841849960559059  0.7496801135239936  0.28090038797182604  1.0000
  H   H33       1.0  0.7034767844392391  0.3059440467265659  0.4629554206430341  1.0000
  H   H34       1.0  0.2034718158340354  0.1940546560578369  0.5370444559951082  1.0000
  H   H35       1.0  0.2965222176722335  0.694056019433468  0.5370444666613493  1.0000
  H   H36       1.0  0.7965284012884266  0.8059462969659422  0.46295569682362003  1.0000
  H   H37       1.0  0.5243999593096191  0.2723673853383772  0.4901542734790212  1.0000
  H   H38       1.0  0.024399850748388  0.22762954371853542  0.5098470596751595  1.0000
  H   H39       1.0  0.475600257812843  0.7276326808216567  0.5098462763402694  1.0000
  H   H40       1.0  0.9756003663740742  0.7723696355777534  0.49015256211488617  1.0000
  H   H41       1.0  0.5624200832822623  0.2620842002143391  0.19386111240931567  1.0000
  H   H42       1.0  0.06242118973202789  0.23791095511508334  0.8061363771416623  1.0000
  H   H43       1.0  0.4375801338401999  0.7379158659456949  0.8061400999248889  1.0000
  H   H44       1.0  0.937580242401431  0.7620899979086958  0.19386443819196586  1.0000
  H   H45       1.0  0.7007041293546905  0.3226552202748394  0.13181566909010908  1.0000
  H   H46       1.0  0.20069794573849714  0.1773452562370537  0.868188713666143  1.0000
  H   H47       1.0  0.2992973027787613  0.6773448458851945  0.8681848807291813  1.0000
  H   H48       1.0  0.7993022713839648  0.8226548099229805  0.1318118361531475  1.0000
  H   H49       1.0  0.4916639181427129  0.3722291298965246  0.14938761345601387  1.0000
  H   H50       1.0  0.9916567366379923  0.1277704597516234  0.8506131912113729  1.0000
  H   H51       1.0  0.508337513990746  0.6277709362635093  0.8506129363632835  1.0000
  H   H52       1.0  0.008343480484469996  0.8722304932721556  0.14938696160735526  1.0000
  H   H53       1.0  0.571536310757871  0.5864244616047999  0.2142361149748808  1.0000
  H   H54       1.0  0.0715362021966399  0.9135689861571665  0.785764705941247  1.0000
  H   H55       1.0  0.4284626913536016  0.413574717691489  0.7857628443002653  1.0000
  H   H56       1.0  0.9284640149258223  0.08643108000287471  0.2142345188482295  1.0000
  H   H57       1.0  0.7868471937013766  0.5541834170166808  0.20204219956885788  1.0000
  H   H58       1.0  0.286848300151135  0.945814465064011  0.7979652490382135  1.0000
  H   H59       1.0  0.2131518084100961  0.445815762279608  0.797957422221188  1.0000
  H   H60       1.0  0.7131507019603376  0.0541856010960302  0.2020346382661771  1.0000
  H   H61       1.0  0.7063600055240895  0.6538509384146637  0.3142291846712766  1.0000
  H   H62       1.0  0.2063671870288104  0.8461469436660282  0.6857756138761673  1.0000
  H   H63       1.0  0.2936389965873828  0.34615001460912254  0.6857709681474446  1.0000
  H   H64       1.0  0.7936330300936587  0.153854009357751  0.314223876427654  1.0000
  C   C1        1.0  0.3768781846623525  0.9585578102168598  0.26221370930221605  1.0000
  C   C2        1.0  0.8768831532675492  0.5414462799100478  0.7377863226965217  1.0000
  C   C3        1.0  0.6231220324601168  0.0414422559431742  0.7377861780021746  1.0000
  C   C4        1.0  0.1231170638549131  0.45855378624998633  0.2622135646078618  1.0000
  C   C5        1.0  0.2651712890366085  0.18379985057364226  0.3070662707799841  1.0000
  C   C6        1.0  0.7651738276198188  0.3162059471207215  0.692937055002673  1.0000
  C   C7        1.0  0.7348301430968505  0.8161993287226539  0.6929346760398828  1.0000
  C   C8        1.0  0.2348263895026435  0.6837941190393125  0.3070628323017175  1.0000
  C   C9        1.0  0.882050595018022  0.0353441808321051  0.010612018576871697  1.0000
  C   C10       1.0  0.3820468414238078  0.4646536350885526  0.9893882550618398  1.0000
  C   C11       1.0  0.1179496221044474  0.9646558853279288  0.9893878687275188  1.0000
  C   C12       1.0  0.6179509456766681  0.5353464310714885  0.010610969727643737  1.0000
  C   C13       1.0  0.04797592404396769  0.08575262923789502  0.024768116956188604  1.0000
  C   C14       1.0  0.5479796776381747  0.41424518668275573  0.9752321566825158  1.0000
  C   C15       1.0  0.9520242930785014  0.9142474369221392  0.9752317703481949  1.0000
  C   C16       1.0  0.4520205394842876  0.5857557663410233  0.024767996136205277  1.0000
  C   C17       1.0  0.5953140758781785  0.34151792526864005  0.17978037067697974  1.0000
  C   C18       1.0  0.0953103222839715  0.1584790037882655  0.8202189749324873  1.0000
  C   C19       1.0  0.4046861412442837  0.658482140891394  0.8202201791423106  1.0000
  C   C20       1.0  0.9046898948384907  0.8415210623717685  0.1797815748868103  1.0000
  C   C21       1.0  0.681928564489894  0.5746655352089719  0.25053148123034663  1.0000
  C   C22       1.0  0.1819284559286629  0.9253314600079677  0.7494723892878524  1.0000
  C   C23       1.0  0.3180716526325682  0.4253345309510622  0.749469068588951  1.0000
  C   C24       1.0  0.8180717611937993  0.07466949301581141  0.2505271010159618  1.0000
  C   C25       1.0  0.11881470993099437  0.4681354621516789  0.4959394757990053  1.0000
  C   C26       1.0  0.6188184635252083  0.0318650143602142  0.5040596068379982  1.0000
  C   C27       1.0  0.881184292180471  0.531864604008355  0.504060411505385  1.0000
  C   C28       1.0  0.3811793235752744  0.9681350517998198  0.49593961795148533  1.0000
  C   C29       1.0  0.9557167114842497  0.4144775449839672  0.48494131332975593  1.0000
  C   C30       1.0  0.4557190329450052  0.0855220446641809  0.5150568412780032  1.0000
  C   C31       1.0  0.0442835056382123  0.5855216343123218  0.5150583084602971  1.0000
  C   C32       1.0  0.5442799691664675  0.9144797952233432  0.4849435770550555  1.0000
  S   S1        1.0  0.2991053310419716  0.05232052664015191  0.2040998206445579  1.0000
  S   S2        1.0  0.7991042245922129  0.447687044781695  0.7959027111369608  1.0000
  S   S3        1.0  0.7008948860804907  0.9476804263836274  0.7959003321741703  1.0000
  S   S4        1.0  0.2008947775192595  0.5523121345145938  0.20409691065309224  1.0000
  S   S5        1.0  0.6505618407113687  0.45452831171113683  0.2906572621295992  1.0000
  S   S6        1.0  0.1505629471611272  0.0454668436182857  0.7093435399959132  1.0000
  S   S7        1.0  0.3494371614001039  0.5454717544489043  0.7093426251747914  1.0000
  S   S8        1.0  0.8494384849723318  0.9545332225417483  0.2906563473084773  1.0000
  O   O1        1.0  0.4441387631769089  0.0817883482974509  0.15320164682623266  1.0000
  O   O2        1.0  0.9441376567271504  0.4182174493969058  0.8467983663818898  1.0000
  O   O3        1.0  0.5558614539455531  0.918211717862583  0.846798240478158  1.0000
  O   O4        1.0  0.0558625603953118  0.5817826167631281  0.1532015209224937  1.0000
  O   O5        1.0  0.7422866655569109  0.08110102889502711  0.024398417271932298  1.0000
  O   O6        1.0  0.2422707618527795  0.4188888052519246  0.9756007917675547  1.0000
  O   O7        1.0  0.2577135515655584  0.9188981504012618  0.9756012045181208  1.0000
  O   O8        1.0  0.7577282402586931  0.5811112609081164  0.024398433021929115  1.0000
  O   O9        1.0  0.1042139228359176  0.1902810508225841  0.054084826317186696  1.0000
  O   O10       1.0  0.6042176764301246  0.3097176519618188  0.9459143878060485  1.0000
  O   O11       1.0  0.8957862942865447  0.8097190153374569  0.945915723502111  1.0000
  O   O12       1.0  0.3957813256813481  0.69028152733447  0.054085233983997165  1.0000
  O   O13       1.0  0.402514916600957  0.1506479969193393  0.973464121599491  1.0000
  O   O14       1.0  0.9024992300192878  0.34935247959255383  0.026540261156767983  1.0000
  O   O15       1.0  0.597486515532502  0.8493520692406946  0.02653576570489943  1.0000
  O   O16       1.0  0.09750220211417117  0.6506475865674801  0.9734602886625295  1.0000
  O   O17       1.0  0.4932665176416222  0.4849051687071296  0.3493872760179784  1.0000
  O   O18       1.0  0.9932714862468258  0.0150899866222929  0.6506135261075342  1.0000
  O   O19       1.0  0.5067336994808398  0.5150957843166566  0.65061287680075  1.0000
  O   O20       1.0  0.006728730875636298  0.9849109664014862  0.349386626711194  1.0000
  O   O21       1.0  0.2601289934183484  0.4261442375503037  0.4895551296611059  1.0000
  O   O22       1.0  0.7601376070565278  0.0738535783703469  0.5104431564328848  1.0000
  O   O23       1.0  0.7398712237041138  0.5738558286097303  0.5104454201581915  1.0000
  O   O24       1.0  0.239860180043955  0.9261464877896871  0.4895567308715058  1.0000
  O   O25       1.0  0.9041066895621623  0.310458183188949  0.4674246837711422  1.0000
  O   O26       1.0  0.4041077960119281  0.18954229332294406  0.5325717488062338  1.0000
  O   O27       1.0  0.0958923125493101  0.689541882971085  0.5325752035332413  1.0000
  O   O28       1.0  0.5958912060995445  0.8104586597008422  0.46742840401249447  1.0000
  O   O29       1.0  0.5837629663739037  0.31630438899642144  0.4558020908943163  1.0000
  O   O30       1.0  0.0837616428016759  0.1837005218341901  0.5441996443441894  1.0000
  O   O31       1.0  0.41623725074856566  0.6836956771636125  0.5441984589249742  1.0000
  O   O32       1.0  0.9162385743207864  0.816299544325844  0.4558002429602013  1.0000
