data_image0
_chemical_formula_structural       Li2H10C8O12
_chemical_formula_sum              "Li2 H10 C8 O12"
_cell_length_a       5.0733673595397795
_cell_length_b       7.527148844361583
_cell_length_c       8.331210591129556
_cell_angle_alpha    89.99958165217915
_cell_angle_beta     90.00035657152428
_cell_angle_gamma    107.97942503938903

_space_group_name_H-M_alt    "P 1"
_space_group_IT_number       1

loop_
  _space_group_symop_operation_xyz
  'x, y, z'

loop_
  _atom_site_type_symbol
  _atom_site_label
  _atom_site_symmetry_multiplicity
  _atom_site_fract_x
  _atom_site_fract_y
  _atom_site_fract_z
  _atom_site_occupancy
  Li  Li1       1.0  0.4316814716169333  0.8255815801417087  0.24813687692243752  1.0000
  Li  Li2       1.0  0.5683295976763603  0.17442537929310484  0.7481392255859092  1.0000
  H   H1        1.0  0.8445987612530885  0.7050487146657928  0.0129760883519765  1.0000
  H   H2        1.0  0.15540626329185164  0.29495440896584313  0.5129614052499605  1.0000
  H   H3        1.0  0.9322422998657844  0.7512159179397456  0.723349270066727  1.0000
  H   H4        1.0  0.06774871781177443  0.24878271700004723  0.2233386009060894  1.0000
  H   H5        1.0  0.12360986920066352  0.3613006823159779  0.8746576283602822  1.0000
  H   H6        1.0  0.8763982296867285  0.638699105148227  0.3746417265593749  1.0000
  H   H7        1.0  0.4115878219917662  0.8700362490241603  0.9521159927049112  1.0000
  H   H8        1.0  0.5884137526584965  0.1299634309609488  0.4521152278641054  1.0000
  H   H9        1.0  0.6517119843958811  0.8747910074151549  0.5753172897643211  1.0000
  H   H10       1.0  0.3482850067110945  0.1252050455633054  0.0753163676051258  1.0000
  C   C1        1.0  0.49794649476086056  0.5306594115981015  0.8841790484821389  1.0000
  C   C2        1.0  0.5020723876046064  0.46932916917064194  0.3841751603177741  1.0000
  C   C3        1.0  0.6798127385499414  0.72477141965517  0.9359198316826323  1.0000
  C   C4        1.0  0.3201885112920095  0.2752324772435699  0.4359079347652397  1.0000
  C   C5        1.0  0.810864122758453  0.8310778908886862  0.7829920533235537  1.0000
  C   C6        1.0  0.1891266530094882  0.16891786071237647  0.28298820490217474  1.0000
  C   C7        1.0  0.009585738577015904  0.0221913402238201  0.831376079918087  1.0000
  C   C8        1.0  0.9903887556105393  0.9778099485154075  0.3313776292881059  1.0000
  O   O1        1.0  0.23260923563559296  0.4917381028496308  0.9179353115967501  1.0000
  O   O2        1.0  0.7674041624475623  0.508267203995075  0.4179228923562803  1.0000
  O   O3        1.0  0.6047244359755625  0.4253524465384899  0.8146002425120997  1.0000
  O   O4        1.0  0.39524373067383334  0.5746614519323147  0.31458451564677153  1.0000
  O   O5        1.0  0.5379134155749129  0.8280409127463104  0.023844176243450508  1.0000
  O   O6        1.0  0.4620956980895272  0.1719663823688009  0.5238428575818119  1.0000
  O   O7        1.0  0.5872164082751681  0.8461204457932395  0.6876444047425423  1.0000
  O   O8        1.0  0.4127876921293918  0.15388661174903015  0.18763607665921  1.0000
  O   O9        1.0  0.2423153549923002  0.026318604191914112  0.8920768205485388  1.0000
  O   O10       1.0  0.7576936918654198  0.9736825537363957  0.3920806137318351  1.0000
  O   O11       1.0  0.934199852871487  0.166134734270095  0.8097175010177793  1.0000
  O   O12       1.0  0.06579609730019344  0.8338497916641927  0.309709971820368  1.0000
