data_image0
_chemical_formula_structural       Zn2H24C28N8O8
_chemical_formula_sum              "Zn2 H24 C28 N8 O8"
_cell_length_a       7.819792789828407
_cell_length_b       9.8045601511857
_cell_length_c       11.504989514709111
_cell_angle_alpha    78.10066799137978
_cell_angle_beta     72.65157445538219
_cell_angle_gamma    82.36207354570396

_space_group_name_H-M_alt    "P 1"
_space_group_IT_number       1

loop_
  _space_group_symop_operation_xyz
  'x, y, z'

loop_
  _atom_site_type_symbol
  _atom_site_label
  _atom_site_symmetry_multiplicity
  _atom_site_fract_x
  _atom_site_fract_y
  _atom_site_fract_z
  _atom_site_occupancy
  Zn  Zn1       1.0  0.5521200407136746  0.43324249291512734  0.20315179937097852  1.0000
  Zn  Zn2       1.0  0.4478985222866996  0.5667540742127457  0.7968498901905151  1.0000
  H   H1        1.0  0.9856849764009822  0.17053214907774367  0.3056599651967248  1.0000
  H   H2        1.0  0.014288794532575396  0.8295045411955615  0.6943168870256287  1.0000
  H   H3        1.0  0.8585310273490662  0.646555392802405  0.44403906505955604  1.0000
  H   H4        1.0  0.14145291103447022  0.35343927508666434  0.5559713671613409  1.0000
  H   H5        1.0  0.9608698588515737  0.2513712768846545  0.9096439892968676  1.0000
  H   H6        1.0  0.03913672513690611  0.7486224174617035  0.09035640236490391  1.0000
  H   H7        1.0  0.8299363350584414  0.9162534142306458  0.21756142284712604  1.0000
  H   H8        1.0  0.17007835680661287  0.08372355760804603  0.7824388000091814  1.0000
  H   H9        1.0  0.2467693729427083  0.9634861627830913  0.19174796849016937  1.0000
  H   H10       1.0  0.7532209341490912  0.036496006762845916  0.8082611800700975  1.0000
  H   H11       1.0  0.7034360894308733  0.7955691463794708  0.9362736597571557  1.0000
  H   H12       1.0  0.2965607211621233  0.20442594633312441  0.06372170731897604  1.0000
  H   H13       1.0  0.2898394677972504  0.1659946133615904  0.3582987129411562  1.0000
  H   H14       1.0  0.710166017742523  0.834027279622838  0.6416977396624688  1.0000
  H   H15       1.0  0.9391537364181204  0.38269469696504643  0.15089486424407994  1.0000
  H   H16       1.0  0.0608658121230263  0.6173325431103721  0.8490924925506108  1.0000
  H   H17       1.0  0.23233926962969784  0.5365508795771206  0.10531996902872719  1.0000
  H   H18       1.0  0.7676635403437544  0.46346336802987764  0.8946616733625915  1.0000
  H   H19       1.0  0.7416601770281872  0.6733631288779734  0.2537395392666469  1.0000
  H   H20       1.0  0.2583434723330028  0.3266375301867157  0.7462691634474369  1.0000
  H   H21       1.0  0.7793223281014078  0.4130066592553234  0.5929613765405577  1.0000
  H   H22       1.0  0.22065834208373766  0.5869924243925694  0.4070438976300466  1.0000
  H   H23       1.0  0.622964308390948  0.2758784635459861  0.4680121351011976  1.0000
  H   H24       1.0  0.3770217895474132  0.7241186055036126  0.5319896376952968  1.0000
  C   C1        1.0  0.7625006199871152  0.1907676851447491  0.15019779283931464  1.0000
  C   C2        1.0  0.23749069545619506  0.809216711411246  0.849807324522679  1.0000
  C   C3        1.0  0.8847896678959657  0.09300668336233289  0.07146376444959662  1.0000
  C   C4        1.0  0.1152080245345104  0.9069671214122152  0.9285441348481243  1.0000
  C   C5        1.0  0.9799573260666888  0.1413455344833849  0.948639297496257  1.0000
  C   C6        1.0  0.02003419304188725  0.8586377076321409  0.05136855634924596  1.0000
  C   C7        1.0  0.9058583533773685  0.9511133244234103  0.12191341403276114  1.0000
  C   C8        1.0  0.09414209485184703  0.048860389758367304  0.8780956345182105  1.0000
  C   C9        1.0  0.4391625428745982  0.722258076999161  0.14493045715369846  1.0000
  C   C10       1.0  0.5608438079448417  0.2777387149238352  0.8550703964788012  1.0000
  C   C11       1.0  0.4719354537532395  0.8658711128620593  0.07050739929200499  1.0000
  C   C12       1.0  0.5280825294510122  0.13411706867696443  0.9294965303841992  1.0000
  C   C13       1.0  0.3579868193423721  0.9811419429617062  0.10794051902356475  1.0000
  C   C14       1.0  0.6420106547809753  0.01884867828694331  0.8920623254181095  1.0000
  C   C15       1.0  0.6146070808404218  0.8860581961027095  0.962291576947301  1.0000
  C   C16       1.0  0.3853899629216073  0.11393379903325503  0.0377033281581092  1.0000
  C   C17       1.0  0.23190018471333218  0.24898360425117974  0.3000285737533801  1.0000
  C   C18       1.0  0.7681024381526597  0.7510356109196722  0.6999584633471443  1.0000
  C   C19       1.0  0.05235617027799579  0.3641436447599844  0.1891511186440411  1.0000
  C   C20       1.0  0.9476473281725362  0.6358865415337009  0.8108462803022505  1.0000
  C   C21       1.0  0.1977767704644933  0.4389025165122292  0.16762437866341173  1.0000
  C   C22       1.0  0.8022362268179747  0.5611198361833729  0.8323581788574544  1.0000
  C   C23       1.0  0.7304832589977011  0.5839095187878129  0.3280514244128625  1.0000
  C   C24       1.0  0.2695136124087655  0.4160864723439135  0.6719472761746345  1.0000
  C   C25       1.0  0.7567800643695863  0.44445787698156647  0.5020120389571474  1.0000
  C   C26       1.0  0.2431967448750924  0.5555429930958625  0.49800164692481264  1.0000
  C   C27       1.0  0.6720517667254241  0.37912228122242203  0.44241439331733556  1.0000
  C   C28       1.0  0.32791911711827026  0.6208839570512695  0.557597185914581  1.0000
  N   N1        1.0  0.3082538459682596  0.3664355890732764  0.23752539076225793  1.0000
  N   N2        1.0  0.6917610480862066  0.633579515030114  0.7624560853587994  1.0000
  N   N3        1.0  0.07509368722345038  0.24569807138501434  0.2733838141625213  1.0000
  N   N4        1.0  0.9249061208362619  0.754325120650954  0.7266084705932201  1.0000
  N   N5        1.0  0.6561261760204644  0.46685966669497264  0.33498165189268286  1.0000
  N   N6        1.0  0.34387340692907736  0.5331391485482301  0.665022995629414  1.0000
  N   N7        1.0  0.7925966564061255  0.5732556542833862  0.4278458008383055  1.0000
  N   N8        1.0  0.20739871727995757  0.42674336999793644  0.5721553885196685  1.0000
  O   O1        1.0  0.7205791551694462  0.3129571028399881  0.09174460965189724  1.0000
  O   O2        1.0  0.2794242214341125  0.6870419056843319  0.9082539574709472  1.0000
  O   O3        1.0  0.7118023711380771  0.15452749392103024  0.26601840257056614  1.0000
  O   O4        1.0  0.28820337038147403  0.8454628555492792  0.7339878896308676  1.0000
  O   O5        1.0  0.5591174834167703  0.6240177880258742  0.105901554047108  1.0000
  O   O6        1.0  0.44088898075069943  0.3759788941736987  0.8941019010117587  1.0000
  O   O7        1.0  0.3043170258530026  0.704352385146521  0.2370715448137659  1.0000
  O   O8        1.0  0.6957069813483656  0.2956312900409018  0.7629386921659814  1.0000
