data_image0
_chemical_formula_structural       Cu4H12C16N8Cl4
_chemical_formula_sum              "Cu4 H12 C16 N8 Cl4"
_cell_length_a       4.885656354672475
_cell_length_b       6.734518689231695
_cell_length_c       15.248776109237864
_cell_angle_alpha    90.00044081844466
_cell_angle_beta     89.99945449862298
_cell_angle_gamma    99.81246760402966

_space_group_name_H-M_alt    "P 1"
_space_group_IT_number       1

loop_
  _space_group_symop_operation_xyz
  'x, y, z'

loop_
  _atom_site_type_symbol
  _atom_site_label
  _atom_site_symmetry_multiplicity
  _atom_site_fract_x
  _atom_site_fract_y
  _atom_site_fract_z
  _atom_site_occupancy
  Cu  Cu1       1.0  0.9092537993051978  0.8027445248253356  0.24686931924142635  1.0000
  Cu  Cu2       1.0  0.09074205201203973  0.6972461700773565  0.746871277783228  1.0000
  Cu  Cu3       1.0  0.09077221692400882  0.19726167200565917  0.7531299317871569  1.0000
  Cu  Cu4       1.0  0.9092193530393404  0.30273939741608297  0.2531299413224558  1.0000
  H   H1        1.0  0.3402137367285576  0.2750207331206198  0.3820272258358627  1.0000
  H   H2        1.0  0.6597486423769042  0.2249537477249675  0.882025795838963  1.0000
  H   H3        1.0  0.6597667490239658  0.7249606145793521  0.6179798949941995  1.0000
  H   H4        1.0  0.3402502480338043  0.7750571544581674  0.11797804625189907  1.0000
  H   H5        1.0  0.3633511112545236  0.8152205484246265  0.5402424198289777  1.0000
  H   H6        1.0  0.6366710522151068  0.6847848269653413  0.04024468294105078  1.0000
  H   H7        1.0  0.6366841071110727  0.18480042574238814  0.4597535523541722  1.0000
  H   H8        1.0  0.36332214014366565  0.3152095533439976  0.9597526010518889  1.0000
  H   H9        1.0  0.05875513722966019  0.9227204945370957  0.4241718125197948  1.0000
  H   H10       1.0  0.9412676981245839  0.5772905282070652  0.9241670792371435  1.0000
  H   H11       1.0  0.9412416814424632  0.07728439955456419  0.5758320295003115  1.0000
  H   H12       1.0  0.058746188581857026  0.4227102681607633  0.07583348347798588  1.0000
  C   C1        1.0  0.2887836580424903  0.4225658104588347  0.39733155216915594  1.0000
  C   C2        1.0  0.7112031327665777  0.07742558288209271  0.8973272043905919  1.0000
  C   C3        1.0  0.711198897906961  0.5774215460881323  0.6026624529249742  1.0000
  C   C4        1.0  0.2888047187914466  0.9225755782969429  0.10267007947884108  1.0000
  C   C5        1.0  0.4004953476231208  0.5359692848807641  0.4704982170440885  1.0000
  C   C6        1.0  0.5994910160245014  0.9640300622955849  0.9704959801378903  1.0000
  C   C7        1.0  0.5995025664525572  0.4640447431910957  0.5295003787948003  1.0000
  C   C8        1.0  0.4004956245616142  0.0359631801598894  0.029509173427356893  1.0000
  C   C9        1.0  0.3058180446748153  0.7188101401366822  0.4833807284561472  1.0000
  C   C10       1.0  0.6941854889623543  0.7811930015829701  0.9833807824003384  1.0000
  C   C11       1.0  0.6941812422895522  0.2811900053336913  0.5166139323755556  1.0000
  C   C12       1.0  0.3058229410666442  0.2188157910623118  0.0166197805445307  1.0000
  C   C13       1.0  0.133581455420817  0.7794667039192333  0.42027661524654986  1.0000
  C   C14       1.0  0.8664263238539079  0.7205394883063645  0.9202793569639949  1.0000
  C   C15       1.0  0.8664339251698933  0.2205324687716228  0.5797259147865645  1.0000
  C   C16       1.0  0.133590611157409  0.2794641901508896  0.07972841944485508  1.0000
  N   N1        1.0  0.04743653911782529  0.6711147284387734  0.3486264596627819  1.0000
  N   N2        1.0  0.9525633578565048  0.8288899773417524  0.84862489679557  1.0000
  N   N3        1.0  0.9525625675479646  0.32886702805929247  0.6513695124313583  1.0000
  N   N4        1.0  0.0474251365943843  0.1711384196835724  0.15137435524012935  1.0000
  N   N5        1.0  0.11344952748156352  0.48496249475137887  0.33984502050321896  1.0000
  N   N6        1.0  0.886545358987405  0.015032682433044913  0.8398425416100179  1.0000
  N   N7        1.0  0.8865321141337503  0.5150341164099359  0.6601594774130459  1.0000
  N   N8        1.0  0.11346575736181566  0.9849422150370232  0.16015605332741958  1.0000
  Cl  Cl1       1.0  0.6389120999591213  0.02549021575713081  0.3170422303042955  1.0000
  Cl  Cl2       1.0  0.3610865686418876  0.47451623586326963  0.8170423277515082  1.0000
  Cl  Cl3       1.0  0.36107700891923866  0.974498278077064  0.6829537420725484  1.0000
  Cl  Cl4       1.0  0.6389118026779385  0.5254931648636401  0.18295167746665433  1.0000
