data_image0
_chemical_formula_structural       Zn4H55C64NO18
_chemical_formula_sum              "Zn4 H55 C64 N1 O18"
_cell_length_a       15.82728678806972
_cell_length_b       18.103943319995615
_cell_length_c       17.851832112771636
_cell_angle_alpha    62.70410800807414
_cell_angle_beta     74.73770342687324
_cell_angle_gamma    79.42141819908247

_space_group_name_H-M_alt    "P 1"
_space_group_IT_number       1

loop_
  _space_group_symop_operation_xyz
  'x, y, z'

loop_
  _atom_site_type_symbol
  _atom_site_label
  _atom_site_symmetry_multiplicity
  _atom_site_fract_x
  _atom_site_fract_y
  _atom_site_fract_z
  _atom_site_occupancy
  Zn  Zn1       1.0  0.585385599165491  0.4143943163552209  0.5748922391965722  1.0000
  Zn  Zn2       1.0  0.42194161697784693  0.5507359000392568  0.5683295406081048  1.0000
  Zn  Zn3       1.0  0.4687265698962689  0.4496529005603379  0.4447474786859262  1.0000
  Zn  Zn4       1.0  0.5695590325868664  0.5977443237591518  0.40356080999946914  1.0000
  H   H1        1.0  0.02143036707747108  0.6006304788989711  0.39248086541541494  1.0000
  H   H2        1.0  0.5814835025058188  0.5777795681462978  0.8281974337200639  1.0000
  H   H3        1.0  0.45316687050927834  0.3886117811489172  0.17694275723747677  1.0000
  H   H4        1.0  0.4046258151058026  0.2510754931097808  0.022157406238463268  1.0000
  H   H5        1.0  0.47628789033115754  0.7926442248023877  0.560029099194523  1.0000
  H   H6        1.0  0.42494036899446297  0.8451007073122342  0.31522978962979664  1.0000
  H   H7        1.0  0.40838158400883623  0.11255059633221258  0.311371075470916  1.0000
  H   H8        1.0  0.5323704912719124  0.006857731106514097  0.7582859317996269  1.0000
  H   H9        1.0  0.2823220339578114  0.07243580647691773  0.23009451313817672  1.0000
  H   H10       1.0  0.2723168494948567  0.969268640927446  0.3139233805060897  1.0000
  H   H11       1.0  0.3597920731225415  0.012283444727387405  0.12510367689359472  1.0000
  H   H12       1.0  0.48176548566106464  0.8371046499817538  0.6409961742888017  1.0000
  H   H13       1.0  0.33999894690934696  0.9111222406655701  0.20763106758941768  1.0000
  H   H14       1.0  0.17577480235006956  0.9493628279335201  0.22538086008830052  1.0000
  H   H15       1.0  0.22368808217320438  0.9636062490563407  0.11839877598462308  1.0000
  H   H16       1.0  0.1956480721922844  0.051034281245307504  0.14225794144086734  1.0000
  H   H17       1.0  0.6248578644977201  0.7730373279426389  0.18058934050295514  1.0000
  H   H18       1.0  0.5293877111152413  0.7349436103797801  0.18105192563493233  1.0000
  H   H19       1.0  0.6460270446883667  0.8600558100101453  0.02299485287077381  1.0000
  H   H20       1.0  0.5616112372237084  0.8125909905524936  0.016387150619280328  1.0000
  H   H21       1.0  0.44973361847642923  0.8699380196259768  0.10837435443707474  1.0000
  H   H22       1.0  0.5049799720324019  0.9521585064732321  0.0170112478068277  1.0000
  H   H23       1.0  0.45142633147771244  0.16546690753430232  0.39959414679169936  1.0000
  H   H24       1.0  0.531803145474342  0.9172418595092183  0.118950801964651  1.0000
  H   H25       1.0  0.3139945702786092  0.46805407338325733  0.24057933473164883  1.0000
  H   H26       1.0  0.35476103611491533  0.5406612595644021  0.13291237858360455  1.0000
  H   H27       1.0  0.32653166200114464  0.5675671893655191  0.29601191695472573  1.0000
  H   H28       1.0  0.3736579690874891  0.639589842801513  0.1913160307497819  1.0000
  H   H29       1.0  0.23371054565485133  0.655453855497683  0.14107590371554582  1.0000
  H   H30       1.0  0.21306318708210628  0.6796441257167063  0.23033705231511445  1.0000
  H   H31       1.0  0.18580922564144936  0.5823582893493368  0.24526955915226284  1.0000
  H   H32       1.0  0.5011362210636036  0.761198398867869  0.7852236069787186  1.0000
  H   H33       1.0  0.40032791708195253  0.8251703593609323  0.780672634568518  1.0000
  H   H34       1.0  0.6477854509999476  0.6604514295050166  0.8713661275625599  1.0000
  H   H35       1.0  0.5172789544200072  0.7748579798418974  0.9119597265239818  1.0000
  H   H36       1.0  0.42571231512150115  0.8484744058233817  0.9032179309376221  1.0000
  H   H37       1.0  0.3251256967303675  0.7393379602722945  0.9400211229090234  1.0000
  H   H38       1.0  0.38804249135566227  0.7051738364299285  0.02062114206021449  1.0000
  H   H39       1.0  0.4159779911588757  0.6645522378816369  0.9431744573559584  1.0000
  H   H40       1.0  0.6443264510325546  0.19051185453965055  0.7442829507013615  1.0000
  H   H41       1.0  0.6452057876878498  0.08770719386702552  0.7541586803142767  1.0000
  H   H42       1.0  0.5219158108028239  0.15768735404876824  0.8746252602914313  1.0000
  H   H43       1.0  0.5255554948242818  0.0551180731973062  0.8855005688553849  1.0000
  H   H44       1.0  0.6829714470949567  0.02988081794028121  0.9062226982750236  1.0000
  H   H45       1.0  0.5104284670410593  0.5236262738499137  0.7948585719734639  1.0000
  H   H46       1.0  0.6113278174137805  0.059459852624741  0.9842902036011129  1.0000
  H   H47       1.0  0.6787376853951272  0.13321620468823173  0.8947375327269288  1.0000
  H   H48       1.0  0.5398516966644139  0.27616368471681346  0.4186518039662702  1.0000
  H   H49       1.0  0.6158865850917438  0.2450535931347987  0.30484383626009065  1.0000
  H   H50       1.0  0.6057203328367322  0.1367274916788404  0.36932872011016843  1.0000
  H   H51       1.0  0.6799081448196915  0.18851582435424066  0.3859531035384338  1.0000
  H   H52       1.0  0.426653653270982  0.28348009100236743  0.8667606730723141  1.0000
  H   H53       1.0  0.41488100024744057  0.2902112344186422  0.1345628862081085  1.0000
  H   H54       1.0  0.6675666149783481  0.6972501529635624  0.9793602197389577  1.0000
  H   H55       1.0  0.9988765967054861  0.44772599965956067  0.5701819355943132  1.0000
  C   C1        1.0  0.4648068317231732  0.7212088727823486  0.4612466661646126  1.0000
  C   C2        1.0  0.513935571436683  0.0757949579560488  0.5475710776816244  1.0000
  C   C3        1.0  0.520178431279362  0.020714019880934097  0.6346435927169838  1.0000
  C   C4        1.0  0.5394135465389595  0.28126285860879113  0.5491242846305513  1.0000
  C   C5        1.0  0.4851523429613493  0.04446871198778271  0.4972336443546155  1.0000
  C   C6        1.0  0.4786807554819887  0.9573464019489112  0.5293493227148289  1.0000
  C   C7        1.0  0.4901550870764453  0.9032629012386624  0.6148547877332505  1.0000
  C   C8        1.0  0.507035834076767  0.9339578269544264  0.6665201525324209  1.0000
  C   C9        1.0  0.45515004679014476  0.09868946998156504  0.4194632727594796  1.0000
  C   C10       1.0  0.4305313407195186  0.06949649773709152  0.3705420323124074  1.0000
  C   C11       1.0  0.43636779383177776  0.9827495391993256  0.3943203996655526  1.0000
  C   C12       1.0  0.8994140585997243  0.5431598203135055  0.45689405094561414  1.0000
  C   C13       1.0  0.4583683346639517  0.9252698419107334  0.4754338816510144  1.0000
  C   C14       1.0  0.4207011896804218  0.9522411212710227  0.33882994881653167  1.0000
  C   C15       1.0  0.43113536349185466  0.8680684883049353  0.3601056455085184  1.0000
  C   C16       1.0  0.4786951716658406  0.43098292623024304  0.7291471842412706  1.0000
  C   C17       1.0  0.46109469618293997  0.8390557365032124  0.498644183236664  1.0000
  C   C18       1.0  0.5539760576461745  0.5764135060670414  0.17909770150185989  1.0000
  C   C19       1.0  0.4697505497193005  0.4064308930765321  0.8228060654902197  1.0000
  C   C20       1.0  0.6253008141539738  0.6490295243011845  0.029051958339870513  1.0000
  C   C21       1.0  0.6096595378869906  0.6391069131948726  0.11286655373566395  1.0000
  C   C22       1.0  0.5101791370781256  0.5316263476185628  0.15543241497134383  1.0000
  C   C23       1.0  0.12090472278271851  0.5037405277528749  0.5092735853734781  1.0000
  C   C24       1.0  0.5311556110835908  0.5360917075208036  0.07081743346807208  1.0000
  C   C25       1.0  0.588281294687377  0.5985953417032663  0.006885569996725782  1.0000
  C   C26       1.0  0.5005397535480041  0.4804931272799352  0.0467624480585656  1.0000
  C   C27       1.0  0.5162584216624281  0.49803529694623455  0.9582585257583607  1.0000
  C   C28       1.0  0.5451625438925164  0.5544080012147959  0.27196638742241663  1.0000
  C   C29       1.0  0.567644760000853  0.5655999363716762  0.8957442339457348  1.0000
  C   C30       1.0  0.6048707791865552  0.6119045028180424  0.9194036685090129  1.0000
  C   C31       1.0  0.4622170795829986  0.4042590739614767  0.10902423374545832  1.0000
  C   C32       1.0  0.44072379295300823  0.34925283529349127  0.0852327104787491  1.0000
  C   C33       1.0  0.4515232607829063  0.36682382489182436  0.9971282345698784  1.0000
  C   C34       1.0  0.8221321039737433  0.536580456814491  0.4635270068887467  1.0000
  C   C35       1.0  0.4863180534148626  0.44370130169413374  0.932787911079018  1.0000
  C   C36       1.0  0.430060575399203  0.30994440838890824  0.9720403357005554  1.0000
  C   C37       1.0  0.4414670148847292  0.3278829827023558  0.8862089464986345  1.0000
  C   C38       1.0  0.49069630620638105  0.4631724692285248  0.8458042888957567  1.0000
  C   C39       1.0  0.28919958416634717  0.509509540267395  0.5043833233170149  1.0000
  C   C40       1.0  0.7313061126046135  0.5265109061046263  0.473242832502855  1.0000
  C   C41       1.0  0.1974349347085607  0.5076560671959954  0.508125007603667  1.0000
  C   C42       1.0  0.03287302447121478  0.497746932380963  0.5127989033645265  1.0000
  C   C43       1.0  0.9880661314545023  0.5503997647248511  0.45000922562093154  1.0000
  C   C44       1.0  0.31205483093148695  0.0078773543746777  0.2510575987392231  1.0000
  C   C45       1.0  0.5354032264676505  0.19083107945839836  0.5770193886304115  1.0000
  C   C46       1.0  0.3138217394800833  0.9766923752587149  0.1846924766247895  1.0000
  C   C47       1.0  0.22228599224447987  0.9856121157641626  0.1667318727830391  1.0000
  C   C48       1.0  0.5937115539845763  0.7574187927669346  0.14198701229398825  1.0000
  C   C49       1.0  0.5826561115204427  0.832620190305278  0.05793687861527256  1.0000
  C   C50       1.0  0.5137837887900433  0.8966256688637416  0.07640858466592705  1.0000
  C   C51       1.0  0.35630845096714836  0.5201084476940568  0.20107940019207857  1.0000
  C   C52       1.0  0.3261391905270798  0.59129225827288  0.22728090076959254  1.0000
  C   C53       1.0  0.2347033598726611  0.6292313741551255  0.20996922286859393  1.0000
  C   C54       1.0  0.4643642159466025  0.812856368628474  0.7995823873394061  1.0000
  C   C55       1.0  0.4524792958546938  0.7917456627861983  0.8943806736783273  1.0000
  C   C56       1.0  0.4503433353513344  0.8113205643891919  0.4412065643522709  1.0000
  C   C57       1.0  0.3920274968819014  0.7212619905866904  0.952582410468189  1.0000
  C   C58       1.0  0.6037254109621486  0.13771528889750329  0.7680123629960108  1.0000
  C   C59       1.0  0.5661392033349271  0.10737969914927702  0.8638602833903949  1.0000
  C   C60       1.0  0.6387339525234735  0.08102897008517831  0.9150899442728293  1.0000
  C   C61       1.0  0.6153420526887956  0.19491673993824327  0.3699095058506147  1.0000
  C   C62       1.0  0.5321246676337594  0.05025564887836962  0.6914963923539263  1.0000
  C   C63       1.0  0.5353870848571916  0.13473166378474133  0.6640834665213263  1.0000
  C   C64       1.0  0.5303210518072349  0.1615478620066  0.5172812896676079  1.0000
  N   N1        1.0  0.5437310597932736  0.21544541204843176  0.4298451080442833  1.0000
  O   O1        1.0  0.5111834652719197  0.5020539260166645  0.501107673328008  1.0000
  O   O2        1.0  0.30708969723167456  0.5359294386781102  0.5529764152329691  1.0000
  O   O3        1.0  0.6915661286635738  0.5841331210734069  0.41647849328786196  1.0000
  O   O4        1.0  0.3420693775254903  0.48419749895710157  0.4518858439698122  1.0000
  O   O5        1.0  0.7005853290248396  0.46096530682526554  0.5377073588672657  1.0000
  O   O6        1.0  0.3989053653106254  0.010303138101072295  0.2617787537765396  1.0000
  O   O7        1.0  0.6501696696338968  0.689230991993746  0.12943480906066185  1.0000
  O   O8        1.0  0.44385071077736166  0.484434984637325  0.21613905395359023  1.0000
  O   O9        1.0  0.5114286870617236  0.8870313193418441  0.7512107205260606  1.0000
  O   O10       1.0  0.5345328017900641  0.16770051559212365  0.7197790892196139  1.0000
  O   O11       1.0  0.532839976123199  0.38614234036648304  0.697399377179622  1.0000
  O   O12       1.0  0.5537444055381258  0.6110145868314376  0.29260581579978157  1.0000
  O   O13       1.0  0.4348338211869134  0.6680393367259256  0.5377373971211555  1.0000
  O   O14       1.0  0.48377891090810005  0.3287136392048283  0.502644381332644  1.0000
  O   O15       1.0  0.506858126446005  0.7037188278619483  0.39893508488672325  1.0000
  O   O16       1.0  0.5951942465730795  0.30630857546083945  0.5707781334507731  1.0000
  O   O17       1.0  0.4322693600759706  0.49612499143309924  0.689281185676123  1.0000
  O   O18       1.0  0.532286001939312  0.4786268588533958  0.3259982654615855  1.0000
