data_image0
_chemical_formula_structural       Al2H14C21S2N2O10
_chemical_formula_sum              "Al2 H14 C21 S2 N2 O10"
_cell_length_a       6.844233836494224
_cell_length_b       11.103310011283533
_cell_length_c       12.880699727409384
_cell_angle_alpha    80.54175919985819
_cell_angle_beta     72.77861924882612
_cell_angle_gamma    71.39852255986627

_space_group_name_H-M_alt    "P 1"
_space_group_IT_number       1

loop_
  _space_group_symop_operation_xyz
  'x, y, z'

loop_
  _atom_site_type_symbol
  _atom_site_label
  _atom_site_symmetry_multiplicity
  _atom_site_fract_x
  _atom_site_fract_y
  _atom_site_fract_z
  _atom_site_occupancy
  Al  Al1       1.0  0.489216417184508  0.5017222997115383  0.501516869520124  1.0000
  Al  Al2       1.0  0.9869951287712269  0.5034413163773337  0.5022119170588297  1.0000
  H   H1        1.0  0.2856034596886943  0.3467345735787717  0.555772916837121  1.0000
  H   H2        1.0  0.6802576961478906  0.6607596265548138  0.4604570054836472  1.0000
  H   H3        1.0  0.7261083398953546  0.5263419329938445  0.1373217406635945  1.0000
  H   H4        1.0  0.25197474737385755  0.24080410513251146  0.3386065603503283  1.0000
  H   H5        1.0  0.47243447029247687  0.7675941644631409  0.3608229330657977  1.0000
  H   H6        1.0  0.7416461681705256  0.8858708310677419  0.5761489322217414  1.0000
  H   H7        1.0  0.6310735981121737  0.12368966399468918  0.563239644503625  1.0000
  H   H8        1.0  0.2085437040980197  0.46510103242274425  0.7856011701358554  1.0000
  H   H9        1.0  0.06287114065445115  0.5656512879000175  0.8931412759972944  1.0000
  H   H10       1.0  0.13447468493245657  0.3980286547684598  0.9226255610475816  1.0000
  H   H11       1.0  0.5871666503489905  0.2300404811204403  0.20825841846143334  1.0000
  H   H12       1.0  0.7391163638432443  0.09175774965985543  0.1525854250783993  1.0000
  H   H13       1.0  0.8160899904150584  0.7765000668825124  0.25570497071277043  1.0000
  H   H14       1.0  0.886626836922005  0.9116668696219888  0.23733969756422377  1.0000
  C   C1        1.0  0.8649568324267632  0.27816824335263846  0.47962607210205027  1.0000
  C   C2        1.0  0.6337617058929511  0.49404530639452576  0.6979680103434518  1.0000
  C   C3        1.0  0.12233796001449805  0.7292686186136308  0.5033045447649087  1.0000
  C   C4        1.0  0.3434798311527489  0.5101918457837016  0.30520867330650964  1.0000
  C   C5        1.0  0.38282323355488745  0.4858596831790794  0.8929389769115729  1.0000
  C   C6        1.0  0.5956876330572456  0.5138190512906462  0.11226820655610235  1.0000
  C   C7        1.0  0.5687958193726601  0.4976961405370943  0.817181315087005  1.0000
  C   C8        1.0  0.40686566291931575  0.5038376590150336  0.1864307262643905  1.0000
  C   C9        1.0  0.5885846992095908  0.5078024596264684  0.004559387329123912  1.0000
  C   C10       1.0  0.3956634694735541  0.49201437416817856  0.9994171733247087  1.0000
  C   C11       1.0  0.9404944636380391  0.13805808924572463  0.4705912722209363  1.0000
  C   C12       1.0  0.15325814745721536  0.07283664356820911  0.4141391144967059  1.0000
  C   C13       1.0  0.7934698843162095  0.0710485576625999  0.5237408516646269  1.0000
  C   C14       1.0  0.30020941391476436  0.13706154431258713  0.3469593987242233  1.0000
  C   C15       1.0  0.5014485580796944  0.07225532109593762  0.2882723531873522  1.0000
  C   C16       1.0  0.06423652916159037  0.8702991653037772  0.4832667233748679  1.0000
  C   C17       1.0  0.8550085478197713  0.938003853004446  0.5306568805672427  1.0000
  C   C18       1.0  0.21604242007414623  0.9352174582084912  0.4197325015334528  1.0000
  C   C19       1.0  0.42339572854692886  0.8710291476303526  0.3594975024759606  1.0000
  C   C20       1.0  0.5671145394917545  0.9353541584556239  0.2974123124947354  1.0000
  C   C21       1.0  0.18904796429842466  0.4763853327772837  0.8710887423446819  1.0000
  S   S1        1.0  0.7534141031340693  0.5164552891095084  0.8752244651291007  1.0000
  S   S2        1.0  0.22113947662883504  0.4865344380884125  0.1264421240828852  1.0000
  N   N1        1.0  0.64679235202685  0.13422675190696515  0.2220162719386636  1.0000
  N   N2        1.0  0.7707540572490359  0.8724249913474939  0.23758855956933195  1.0000
  O   O1        1.0  0.6687552911439595  0.33334771643215083  0.4825239176194814  1.0000
  O   O2        1.0  0.8258850774548351  0.49730931601394  0.6519848294919086  1.0000
  O   O3        1.0  0.9799527490418427  0.6753458913014826  0.508316136801085  1.0000
  O   O4        1.0  0.4820937382394988  0.5176043252239425  0.349729744521646  1.0000
  O   O5        1.0  0.3086342575426002  0.6712339278994222  0.5156538800409152  1.0000
  O   O6        1.0  0.1506044096593512  0.5091065663577015  0.35163185619421  1.0000
  O   O7        1.0  0.9965269980259635  0.3332355393910476  0.48835024868493787  1.0000
  O   O8        1.0  0.497944957300234  0.48711306895391715  0.6512121823891732  1.0000
  O   O9        1.0  0.2465476694022897  0.43913326937197905  0.5450390309157171  1.0000
  O   O10       1.0  0.7283579476487178  0.5685499736086754  0.458151297548241  1.0000
