data_image0
_chemical_formula_structural       Zn4P4H36C48N8O12
_chemical_formula_sum              "Zn4 P4 H36 C48 N8 O12"
_cell_length_a       8.137091794994392
_cell_length_b       12.345726058960501
_cell_length_c       12.4324
_cell_angle_alpha    99.33162978317023
_cell_angle_beta     92.71407358338024
_cell_angle_gamma    92.7065453474068

_space_group_name_H-M_alt    "P 1"
_space_group_IT_number       1

loop_
  _space_group_symop_operation_xyz
  'x, y, z'

loop_
  _atom_site_type_symbol
  _atom_site_label
  _atom_site_symmetry_multiplicity
  _atom_site_fract_x
  _atom_site_fract_y
  _atom_site_fract_z
  _atom_site_occupancy
  Zn  Zn1       1.0  0.7502439901956918  0.2636845286530445  0.7366251307144368  1.0000
  Zn  Zn2       1.0  0.24975601737558148  0.7363157654250329  0.2633747560021291  1.0000
  Zn  Zn3       1.0  0.7498723617695828  0.5190909690670081  0.4811233892026507  1.0000
  Zn  Zn4       1.0  0.2501264841134016  0.48091014714715635  0.5188773982395318  1.0000
  P   P1        1.0  0.9291739129477816  0.3088502187503863  0.5079804079104591  1.0000
  P   P2        1.0  0.5711578354313644  0.492790835710359  0.6905255568577929  1.0000
  P   P3        1.0  0.0708273249438705  0.6911500753276911  0.49202112563615685  1.0000
  P   P4        1.0  0.428843471092371  0.5072102805038057  0.3094753068447744  1.0000
  H   H1        1.0  0.9932880836854351  0.22901176140754834  0.4280094930063498  1.0000
  H   H2        1.0  0.5069157677275271  0.5737942598855311  0.7692435198029203  1.0000
  H   H3        1.0  0.006710624933376199  0.7709877105344418  0.5719902210741523  1.0000
  H   H4        1.0  0.49308547016412513  0.42620603419254616  0.23075720939377217  1.0000
  H   H5        1.0  0.11653813966111669  0.3590408045987772  0.725352772336791  1.0000
  H   H6        1.0  0.3833002459884653  0.2762623886162601  0.6415624929324366  1.0000
  H   H7        1.0  0.8834619365422469  0.6409603116153875  0.2746480532355875  1.0000
  H   H8        1.0  0.6167021535914826  0.7237370833257302  0.35843733553864604  1.0000
  H   H9        1.0  0.3555750481247273  0.4286823080803329  0.8572045179100486  1.0000
  H   H10       1.0  0.14477608116742147  0.14353920547474527  0.5713865305891304  1.0000
  H   H11       1.0  0.6444249594465461  0.5713179859977444  0.14279697750637146  1.0000
  H   H12       1.0  0.855223926403852  0.856461088603332  0.4286141604773661  1.0000
  H   H13       1.0  0.3133587919456957  0.4502847558477328  0.05976464390666081  1.0000
  H   H14       1.0  0.1870767508606477  0.9395880902858593  0.5495052199415369  1.0000
  H   H15       1.0  0.6866399853051987  0.5497155382303447  0.9402360090296398  1.0000
  H   H16       1.0  0.8129244870310046  0.06041220379221809  0.4504955092551556  1.0000
  H   H17       1.0  0.5893008218920099  0.24837142193528894  0.2141389825383442  1.0000
  H   H18       1.0  0.9106097355287515  0.784251231992485  0.7510690172060066  1.0000
  H   H19       1.0  0.4106966564064294  0.751628050006701  0.7858598890620384  1.0000
  H   H20       1.0  0.08939150236290057  0.21574906208559236  0.24893171199068584  1.0000
  H   H21       1.0  0.37423084913764626  0.17039181428045674  0.0670900937743824  1.0000
  H   H22       1.0  0.1252619143408396  0.9324272849861899  0.8293254937259391  1.0000
  H   H23       1.0  0.6257689525373707  0.8296060133893661  0.932908585074621  1.0000
  H   H24       1.0  0.8747393921829029  0.0675738312279748  0.1706753699766352  1.0000
  H   H25       1.0  0.4340397367803277  0.17781159244687925  0.8715838316549451  1.0000
  H   H26       1.0  0.0653100671771583  0.1292480139105479  0.8219111726944491  1.0000
  H   H27       1.0  0.5659601335267794  0.8221870573590306  0.1284149816999474  1.0000
  H   H28       1.0  0.9346899403941222  0.8707522801675296  0.17809032272197106  1.0000
  H   H29       1.0  0.12585334764304426  0.4249687193847365  0.2093917731988597  1.0000
  H   H30       1.0  0.3747213806311506  0.788759004146108  0.5750171566763741  1.0000
  H   H31       1.0  0.8741453609757739  0.5750307525572537  0.7906095495814824  1.0000
  H   H32       1.0  0.6252798572605016  0.21124128993196925  0.4249819638204714  1.0000
  H   H33       1.0  0.8615256551488455  0.3519104183342492  0.2661135468406641  1.0000
  H   H34       1.0  0.6389721806119226  0.7319313136841499  0.6479915913155097  1.0000
  H   H35       1.0  0.1384718231495867  0.6480890536077409  0.7338869334595657  1.0000
  H   H36       1.0  0.36102905727972967  0.26806898039392724  0.352008333531252  1.0000
  C   C1        1.0  0.10651802761290698  0.3627206857148906  0.8132710931180043  1.0000
  C   C2        1.0  0.393356498778509  0.1877273757671176  0.6377298964382376  1.0000
  C   C3        1.0  0.8934819799583663  0.6372796083631868  0.1867295979484922  1.0000
  C   C4        1.0  0.6066460380656054  0.8122737404470399  0.3622710053945255  1.0000
  C   C5        1.0  0.23868320185833616  0.40449342018975887  0.8881557854504935  1.0000
  C   C6        1.0  0.2615289025517669  0.11232845328286338  0.5956309699577957  1.0000
  C   C7        1.0  0.7613155753925652  0.5955068738883185  0.11184567183573077  1.0000
  C   C8        1.0  0.7384723353398854  0.8876718407952138  0.4043689548889732  1.0000
  C   C9        1.0  0.21672890990922866  0.4143623417531613  0.9987922596040448  1.0000
  C   C10       1.0  0.2835729607021023  0.0009150374625192998  0.5855292721936465  1.0000
  C   C11       1.0  0.7832710290299616  0.5856371301888287  0.0012091013064931602  1.0000
  C   C12       1.0  0.7164270468691711  0.9990852566155581  0.4144706145229192  1.0000
  C   C13       1.0  0.0640418154896594  0.3786742364427979  0.034784248141001194  1.0000
  C   C14       1.0  0.43610017696023107  0.9646476202903569  0.6212174750073274  1.0000
  C   C15       1.0  0.9359569617612351  0.6213260576352866  0.9652156004453759  1.0000
  C   C16       1.0  0.5639010609314212  0.03535267378772029  0.37878244983943427  1.0000
  C   C17       1.0  0.9396352816675915  0.3339187922518221  0.9534916649043765  1.0000
  C   C18       1.0  0.560209123800753  0.04649755055491769  0.6661515625505247  1.0000
  C   C19       1.0  0.06036356421538608  0.6660823239623423  0.046508318187882466  1.0000
  C   C20       1.0  0.439792114090899  0.9535027435231597  0.33384916664616776  1.0000
  C   C21       1.0  0.7845329570757256  0.2923047300413373  0.9867880007845999  1.0000
  C   C22       1.0  0.7152312577771481  0.0130637423894058  0.7076167468229286  1.0000
  C   C23       1.0  0.21546452122270665  0.7076947419006527  0.013211675165706475  1.0000
  C   C24       1.0  0.284769980114504  0.9869365516886714  0.2923831780238402  1.0000
  C   C25       1.0  0.7605626670529659  0.2958275831652272  0.0998768893962705  1.0000
  C   C26       1.0  0.7394320481135424  0.8992565603678526  0.7039547598251588  1.0000
  C   C27       1.0  0.2394360415658454  0.7041718887767628  0.9001228246842317  1.0000
  C   C28       1.0  0.26056918977810983  0.1007437337102246  0.2960451650216029  1.0000
  C   C29       1.0  0.6100519833504592  0.2492626174513433  0.1283767467376293  1.0000
  C   C30       1.0  0.8898254386965829  0.8706092284887532  0.7503657539701721  1.0000
  C   C31       1.0  0.38994549494797326  0.750736854490647  0.8716221248627533  1.0000
  C   C32       1.0  0.11017586782715227  0.1293918877254114  0.2496351097323952  1.0000
  C   C33       1.0  0.4920242941417285  0.20571982398563185  0.0473117416239504  1.0000
  C   C34       1.0  0.007604065503947783  0.9522662508514371  0.7939743306360825  1.0000
  C   C35       1.0  0.5079755761653786  0.794278825820271  0.952687071730935  1.0000
  C   C36       1.0  0.9923958734352424  0.0477332210905601  0.2060270302744627  1.0000
  C   C37       1.0  0.5253378885441933  0.20933311207886615  0.9378452797716932  1.0000
  C   C38       1.0  0.9741813017532124  0.06247494322929009  0.7904735100187708  1.0000
  C   C39       1.0  0.4746633493474589  0.790667181999211  0.06215384072515205  1.0000
  C   C40       1.0  0.025817475497682086  0.9375253508487872  0.2095255342176827  1.0000
  C   C41       1.0  0.0317178256604365  0.3863110585356324  0.1479573349132082  1.0000
  C   C42       1.0  0.46864901247685953  0.8507176459140664  0.6135143327220263  1.0000
  C   C43       1.0  0.9682808829583749  0.6136884134063578  0.8520431835172105  1.0000
  C   C44       1.0  0.5313534557351787  0.1492826481640108  0.3864848259050078  1.0000
  C   C45       1.0  0.8855183929139372  0.34587100665441267  0.17954977780663475  1.0000
  C   C46       1.0  0.6147296374206873  0.8190284105207581  0.6539754584030176  1.0000
  C   C47       1.0  0.1144790853844952  0.6541284652875773  0.8204498981436716  1.0000
  C   C48       1.0  0.38527160047096487  0.18097188355731927  0.346024466443744  1.0000
  N   N1        1.0  0.961655860658766  0.3284104804828445  0.8450892559857905  1.0000
  N   N2        1.0  0.5380274568757173  0.1556583135025775  0.6720825067499092  1.0000
  N   N3        1.0  0.03834537723288629  0.6715898135952328  0.15491066886097832  1.0000
  N   N4        1.0  0.4619737123838519  0.8443411584394126  0.3279172835909776  1.0000
  N   N5        1.0  0.6668727493242272  0.2504374499166957  0.9085048966544917  1.0000
  N   N6        1.0  0.8326885964010771  0.0919246799272742  0.7494657988352884  1.0000
  N   N7        1.0  0.3331260279266672  0.7495628441613816  0.09149495193189239  1.0000
  N   N8        1.0  0.1673126414905752  0.9080756141508033  0.2505349303613968  1.0000
  O   O1        1.0  0.853297333620496  0.2424824611589926  0.588594491605761  1.0000
  O   O2        1.0  0.646034761421731  0.4120965347031174  0.7574855394780968  1.0000
  O   O3        1.0  0.14670267395077727  0.7575178329190846  0.41140539511081187  1.0000
  O   O4        1.0  0.353965177517459  0.5879029372388729  0.2425142127325941  1.0000
  O   O5        1.0  0.8025083757670471  0.3647908243767191  0.4418201542490011  1.0000
  O   O6        1.0  0.6988247575875944  0.5583775640210789  0.6347354518485702  1.0000
  O   O7        1.0  0.1974904014838543  0.6352094697013584  0.5581804986873068  1.0000
  O   O8        1.0  0.3011752499836788  0.4416227300569985  0.3652652392179263  1.0000
  O   O9        1.0  0.0739347855465695  0.3859690499243058  0.561127905417969  1.0000
  O   O10       1.0  0.4266908003972674  0.4393470573739364  0.6136642898849303  1.0000
  O   O11       1.0  0.9260664523450827  0.6140312441537716  0.4388720194287928  1.0000
  O   O12       1.0  0.5733105061264681  0.5606540588402282  0.386336573817637  1.0000
