data_image0
_chemical_formula_structural       Mn4H8C8O16
_chemical_formula_sum              "Mn4 H8 C8 O16"
_cell_length_a       5.746879792388615
_cell_length_b       7.560909100470134
_cell_length_c       9.501519242001535
_cell_angle_alpha    89.99998415466888
_cell_angle_beta     89.99993851950114
_cell_angle_gamma    90.00130453988866

_space_group_name_H-M_alt    "P 1"
_space_group_IT_number       1

loop_
  _space_group_symop_operation_xyz
  'x, y, z'

loop_
  _atom_site_type_symbol
  _atom_site_label
  _atom_site_symmetry_multiplicity
  _atom_site_fract_x
  _atom_site_fract_y
  _atom_site_fract_z
  _atom_site_occupancy
  Mn  Mn1       1.0  0.2500000292793557  0.5000002105224368  0.3911110071558923  1.0000
  Mn  Mn2       1.0  0.7500016684239127  0.9999999895339186  0.1088928742754618  1.0000
  Mn  Mn3       1.0  0.7499981097038244  0.4999992948116797  0.6088886531096023  1.0000
  Mn  Mn4       1.0  0.24999920057999964  7.193832587e-07  0.8911068883937218  1.0000
  H   H1        1.0  0.3198096163842123  0.8361495211602301  0.5897423433161039  1.0000
  H   H2        1.0  0.8198120362864855  0.6638597805430279  0.9102625236751365  1.0000
  H   H3        1.0  0.18019182178367996  0.1638481808914136  0.5897414039734414  1.0000
  H   H4        1.0  0.6801871164302895  0.33614001969338136  0.910262601511235  1.0000
  H   H5        1.0  0.6801920027677326  0.16385130679689297  0.4102573169481545  1.0000
  H   H6        1.0  0.18019132294013926  0.3361410474294715  0.0897371365885746  1.0000
  H   H7        1.0  0.8198097973507714  0.8361513244738318  0.4102561513644147  1.0000
  H   H8        1.0  0.3198110225509794  0.6638594856403442  0.0897391636807967  1.0000
  C   C1        1.0  0.3465767591650034  0.21652320286423793  0.6293950043959882  1.0000
  C   C2        1.0  0.8465949414995677  0.28348116230222326  0.8705920561437565  1.0000
  C   C3        1.0  0.153424607088894  0.7834771296343062  0.629395007587192  1.0000
  C   C4        1.0  0.6534060232577518  0.716517330101581  0.8705910205971534  1.0000
  C   C5        1.0  0.6534231198928566  0.7834763024852476  0.3706046558689593  1.0000
  C   C6        1.0  0.15340667763201304  0.7165183430624325  0.12940865658390524  1.0000
  C   C7        1.0  0.8465735319146501  0.2165236982922849  0.3706036002149062  1.0000
  C   C8        1.0  0.3465938558389183  0.28348482043245576  0.12940863966751692  1.0000
  O   O1        1.0  0.4341392767110789  0.34581399722846135  0.5599692238629217  1.0000
  O   O2        1.0  0.9341483190889336  0.15418001092705674  0.9400398828760217  1.0000
  O   O3        1.0  0.0658604754449854  0.6541863610577963  0.559969309068002  1.0000
  O   O4        1.0  0.5658542597067111  0.8458171330885378  0.9400388763745725  1.0000
  O   O5        1.0  0.5658588622915062  0.654186830697938  0.44003043640244505  1.0000
  O   O6        1.0  0.0658515599476175  0.845818171829755  0.0599618823155978  1.0000
  O   O7        1.0  0.934137663519749  0.3458118216842365  0.4400292987343661  1.0000
  O   O8        1.0  0.43414561938995877  0.15418501744550636  0.059960783890105104  1.0000
  O   O9        1.0  0.439274648716335  0.14755081421022706  0.7361547511244383  1.0000
  O   O10       1.0  0.9392811277444507  0.3524419620255657  0.763845932652373  1.0000
  O   O11       1.0  0.060724783701608886  0.852446833409388  0.7361558514439395  1.0000
  O   O12       1.0  0.5607148104864663  0.6475565700060599  0.7638439175508154  1.0000
  O   O13       1.0  0.5607252303609229  0.8524500137315343  0.2638449091403743  1.0000
  O   O14       1.0  0.060715271162145305  0.6475575432927911  0.23615583254021996  1.0000
  O   O15       1.0  0.9392768354493766  0.1475539945475433  0.2638448612835873  1.0000
  O   O16       1.0  0.43928506857234584  0.35244293534361754  0.2361546902508636  1.0000
