data_image0
_chemical_formula_structural       Zn8H58C84Cl12O26
_chemical_formula_sum              "Zn8 H58 C84 Cl12 O26"
_cell_length_a       18.261844078694768
_cell_length_b       18.356599611001336
_cell_length_c       18.320713211664067
_cell_angle_alpha    59.75490661428976
_cell_angle_beta     60.12218146468569
_cell_angle_gamma    60.01170739288797

_space_group_name_H-M_alt    "P 1"
_space_group_IT_number       1

loop_
  _space_group_symop_operation_xyz
  'x, y, z'

loop_
  _atom_site_type_symbol
  _atom_site_label
  _atom_site_symmetry_multiplicity
  _atom_site_fract_x
  _atom_site_fract_y
  _atom_site_fract_z
  _atom_site_occupancy
  Zn  Zn1       1.0  0.4575125429051282  0.46261087573949305  0.9496436961903993  1.0000
  Zn  Zn2       1.0  0.4590868514481627  0.4578674656332283  0.13081961775314693  1.0000
  Zn  Zn3       1.0  0.4487386599480842  0.6310639675199143  0.9602176980468041  1.0000
  Zn  Zn4       1.0  0.6320461711882925  0.4519492305347654  0.9539781868907012  1.0000
  Zn  Zn5       1.0  0.0422454808808013  0.04903227857715109  0.5433595680346031  1.0000
  Zn  Zn6       1.0  0.042739049243891755  0.8711487183764246  0.5442116682230135  1.0000
  Zn  Zn7       1.0  0.043837987498271495  0.047679424515394  0.36935018942909176  1.0000
  Zn  Zn8       1.0  0.8695886981791502  0.036998389529820506  0.5522503797282495  1.0000
  H   H1        1.0  0.7717883786209327  0.3826431855557288  0.7120940642098431  1.0000
  H   H2        1.0  0.7162272822624798  0.5637782770862004  0.18604281442445372  1.0000
  H   H3        1.0  0.7902655731211609  0.4715143733026891  0.3017165297495338  1.0000
  H   H4        1.0  0.7810092157478788  0.3201623188884355  0.5898648242779455  1.0000
  H   H5        1.0  0.01096959249716188  0.8528160387266224  0.3494758105524767  1.0000
  H   H6        1.0  0.19849673436878132  0.40473280771882963  0.20470904150297997  1.0000
  H   H7        1.0  0.8179217429930856  0.25520840953630136  0.8209614654664744  1.0000
  H   H8        1.0  0.5828065146177721  0.3103422314689227  0.7785399904355895  1.0000
  H   H9        1.0  0.1890397623322286  0.49426730776374933  0.9534132554452057  1.0000
  H   H10       1.0  0.3028900141345972  0.4553694455713639  0.9413269932981264  1.0000
  H   H11       1.0  0.23008130170733657  0.5573899815063044  0.9631146265124783  1.0000
  H   H12       1.0  0.699092030704243  0.13571674211618756  0.7673397282523664  1.0000
  H   H13       1.0  0.22586557789319522  0.7239986010023289  0.5299333502402488  1.0000
  H   H14       1.0  0.2882041958365348  0.7785373873736888  0.5223569717635215  1.0000
  H   H15       1.0  0.34242523370490824  0.6714651922554536  0.5115288620166252  1.0000
  H   H16       1.0  0.6998670523799503  0.4749104612021282  0.5957476365214448  1.0000
  H   H17       1.0  0.6235945744348114  0.4152277785375631  0.6537240284339488  1.0000
  H   H18       1.0  0.6197514600225132  0.4801875675381454  0.7018427131843834  1.0000
  H   H19       1.0  0.6715847600999821  0.6059897180969925  0.6388961096901155  1.0000
  H   H20       1.0  0.6895598950845993  0.5381327166799393  0.7429545471344664  1.0000
  H   H21       1.0  0.6127976578469684  0.6494696674886739  0.727122981888698  1.0000
  H   H22       1.0  0.7201639559687435  0.1061281463744876  0.2233585888860431  1.0000
  H   H23       1.0  0.7492683235540625  0.19111760894968907  0.908613863242408  1.0000
  H   H24       1.0  0.6199754756366928  0.19922258896728098  0.2221372233925506  1.0000
  H   H25       1.0  0.7149185947970622  0.20051152740800396  0.12398308715513917  1.0000
  H   H26       1.0  0.8027271933847401  0.2598296801109754  0.44787745303346294  1.0000
  H   H27       1.0  0.9092135580892345  0.2527928117201199  0.3632427393083969  1.0000
  H   H28       1.0  0.8462859880405061  0.34775344892538124  0.39706108927171574  1.0000
  H   H29       1.0  0.15187742923550476  0.6263514432115115  0.13788860075131742  1.0000
  H   H30       1.0  0.2429756815098186  0.6653664842095992  0.08452951798636835  1.0000
  H   H31       1.0  0.2400641932914879  0.569080382097745  0.18297882185621003  1.0000
  H   H32       1.0  0.3041270162488983  0.8028446908210823  0.36551459906851863  1.0000
  H   H33       1.0  0.396575570932292  0.79655816314623  0.2655928938543326  1.0000
  H   H34       1.0  0.7896345706687242  0.1010791240954347  0.8311084106955133  1.0000
  H   H35       1.0  0.30088723361555486  0.8949633253703695  0.2649725881376666  1.0000
  H   H36       1.0  0.9214165474688869  0.2863240652614252  0.6586867892521795  1.0000
  H   H37       1.0  0.9446424882779637  0.27049927813746427  0.560400794860513  1.0000
  H   H38       1.0  0.8858292497697419  0.3789116209123478  0.5701248678393682  1.0000
  H   H39       1.0  0.5316024781463328  0.884661728008737  0.3205343440996985  1.0000
  H   H40       1.0  0.4344461649340091  0.8737669316466139  0.33207126789056884  1.0000
  H   H41       1.0  0.5213279315894254  0.8907387465778812  0.22668835375727542  1.0000
  H   H42       1.0  0.04409098369612251  0.30462161022298767  0.3841391622807818  1.0000
  H   H43       1.0  0.05556711388593529  0.3989233389415928  0.2845098413255655  1.0000
  H   H44       1.0  0.037275832413619994  0.3106344530607218  0.2879933694505964  1.0000
  H   H45       1.0  0.2990988337787926  0.5405600460482985  0.6397521706207384  1.0000
  H   H46       1.0  0.9523695357231573  0.0494511209802795  0.7646993630647996  1.0000
  H   H47       1.0  0.9581396584944386  0.15288475585945352  0.7415376989721594  1.0000
  H   H48       1.0  0.9200608996470406  0.0841896706937533  0.8539580975285758  1.0000
  H   H49       1.0  0.6480199518217518  0.13702710810294857  0.9228862102594699  1.0000
  H   H50       1.0  0.5491798392563753  0.229799823147637  0.9404213979984065  1.0000
  H   H51       1.0  0.5610278580524837  0.16549366899997858  0.8860625259265755  1.0000
  H   H52       1.0  0.6587348107474966  0.3133431431395621  0.615428255592569  1.0000
  H   H53       1.0  0.6927705780408003  0.2041034920286933  0.6158491906984054  1.0000
  H   H54       1.0  0.5879636419479867  0.24801359414803406  0.690196849114386  1.0000
  H   H55       1.0  0.17847435286069668  0.9155807129613223  0.7191765302840735  1.0000
  H   H56       1.0  0.9467482777941424  0.6524153315390179  0.48450975168452004  1.0000
  H   H57       1.0  0.9391788928680638  0.749076433215464  0.5468477639673566  1.0000
  H   H58       1.0  0.7316132325918542  0.8560849901117037  0.7927630056392019  1.0000
  C   C1        1.0  0.6434432444133334  0.3647942562558981  0.13498902133999024  1.0000
  C   C2        1.0  0.26622447864144766  0.6674381430452171  0.6464191223186332  1.0000
  C   C3        1.0  0.24560900876977593  0.7109742500034031  0.7039825249471718  1.0000
  C   C4        1.0  0.34174493794994726  0.6385029611391604  0.8796368822942994  1.0000
  C   C5        1.0  0.2621845362323754  0.65727748294686  0.7876253182129885  1.0000
  C   C6        1.0  0.2784664862325455  0.6968777524193825  0.8273040020081767  1.0000
  C   C7        1.0  0.2513822523668522  0.7899756345493926  0.7989620035995556  1.0000
  C   C8        1.0  0.20929007938684668  0.8437266044364192  0.7330240847126888  1.0000
  C   C9        1.0  0.20777548475945906  0.8060880388566432  0.6850648227295011  1.0000
  C   C10       1.0  0.7520872727103125  0.6407476309442685  0.6617736275540049  1.0000
  C   C11       1.0  0.8234745532513937  0.6288745686908327  0.5846177036224913  1.0000
  C   C12       1.0  0.6385823245876238  0.25503729506464623  0.8014859326356217  1.0000
  C   C13       1.0  0.8922860250065695  0.6650771724273242  0.5443757108251289  1.0000
  C   C14       1.0  0.8876927235055942  0.718718657364839  0.579208208627456  1.0000
  C   C15       1.0  0.8171839461241103  0.7340810065191762  0.6578242429856545  1.0000
  C   C16       1.0  0.368310500744677  0.36113971732275724  0.13320419825496543  1.0000
  C   C17       1.0  0.7515207197256117  0.6900865344363466  0.7032545719544954  1.0000
  C   C18       1.0  0.6870900190764361  0.698821346213954  0.7879795237154351  1.0000
  C   C19       1.0  0.682941912058361  0.7563302039413455  0.8191150894108218  1.0000
  C   C20       1.0  0.7397172076836752  0.808029263423002  0.768893401805357  1.0000
  C   C21       1.0  0.8070123883166854  0.7954577128937788  0.69098307289331  1.0000
  C   C22       1.0  0.7082536423242232  0.4524657317105962  0.18455321460627502  1.0000
  C   C23       1.0  0.6926353461698938  0.2972908859948192  0.8028715780874475  1.0000
  C   C24       1.0  0.731358774852069  0.49157154363845723  0.2137967782091365  1.0000
  C   C25       1.0  0.7740053291932796  0.4387052792933588  0.27861828693515617  1.0000
  C   C26       1.0  0.7965092239249071  0.3466469098605884  0.31404497308815876  1.0000
  C   C27       1.0  0.7745552853447677  0.30401529019162143  0.2832155075759387  1.0000
  C   C28       1.0  0.6293623058911209  0.6403972968132763  0.850587016115341  1.0000
  C   C29       1.0  0.7269260096617741  0.3577874196530644  0.21879146052170748  1.0000
  C   C30       1.0  0.7016662778051028  0.31405401135700123  0.19330789049247693  1.0000
  C   C31       1.0  0.7236141737913824  0.22159649415044666  0.22457152879193404  1.0000
  C   C32       1.0  0.77395519099354  0.1704307433690744  0.2836633992851245  1.0000
  C   C33       1.0  0.797991521587228  0.20922860179845054  0.3129324949968293  1.0000
  C   C34       1.0  0.7984636804271474  0.1982147510922374  0.7002813300590276  1.0000
  C   C35       1.0  0.15016783760467697  0.6939105813939292  0.2064954974325062  1.0000
  C   C36       1.0  0.05673661815873746  0.7234418245517418  0.23913373609543234  1.0000
  C   C37       1.0  0.006619238043818107  0.7814677080995125  0.29028771597197783  1.0000
  C   C38       1.0  0.050352295636500434  0.8077496463144697  0.3109758231808968  1.0000
  C   C39       1.0  0.1450332107699381  0.778870703875981  0.28085914593494  1.0000
  C   C40       1.0  0.35675127848141835  0.6384508627927445  0.14153387969319897  1.0000
  C   C41       1.0  0.19661072227298598  0.7218170566724424  0.22746536270375362  1.0000
  C   C42       1.0  0.2919400177760992  0.697049530073933  0.19830619390790347  1.0000
  C   C43       1.0  0.3312193219429033  0.7283109219300029  0.2201649577350365  1.0000
  C   C44       1.0  0.28110135283165505  0.7854810663969616  0.2716961464603073  1.0000
  C   C45       1.0  0.8208608366914731  0.153755592504794  0.7892818205056069  1.0000
  C   C46       1.0  0.18886974182016286  0.808153508858375  0.30173841982595195  1.0000
  C   C47       1.0  0.4558204752574611  0.1565840222429244  0.18016685201595808  1.0000
  C   C48       1.0  0.49222609821003244  0.06440310399953118  0.20233850326857095  1.0000
  C   C49       1.0  0.4389338753063825  0.0081953972983726  0.26375196804732315  1.0000
  C   C50       1.0  0.3478184054762252  0.04939775701487291  0.29996831296241294  1.0000
  C   C51       1.0  0.3046092710486619  0.1445927009658377  0.27350582369471244  1.0000
  C   C52       1.0  0.6358098158724772  0.35814728064790546  0.8591305853317194  1.0000
  C   C53       1.0  0.3613747300607811  0.19971740454913342  0.21322348834383587  1.0000
  C   C54       1.0  0.31981106437888945  0.29417948631619595  0.19051536779466002  1.0000
  C   C55       1.0  0.22810679397758798  0.3320654076656878  0.22326393833559877  1.0000
  C   C56       1.0  0.6989563816991193  0.20516030482151854  0.7319549608775232  1.0000
  C   C57       1.0  0.17141069680074134  0.28025417869766756  0.2794150032482464  1.0000
  C   C58       1.0  0.2099551398254745  0.1875693084392651  0.30365503227614715  1.0000
  C   C59       1.0  0.8651669882760729  0.8526436692123978  0.6399174198228365  1.0000
  C   C60       1.0  0.1436978866581597  0.13804022572131203  0.3600538124612028  1.0000
  C   C61       1.0  0.14772679373346886  0.8658846949271748  0.6290237363236596  1.0000
  C   C62       1.0  0.8562389956749143  0.1451316544144632  0.371077592756265  1.0000
  C   C63       1.0  0.13336037174297402  0.8659413511994883  0.35949288973692006  1.0000
  C   C64       1.0  0.734046151918342  0.3556782249672068  0.7056748670248678  1.0000
  C   C65       1.0  0.8603357841144827  0.13670340349677448  0.6443817173044549  1.0000
  C   C66       1.0  0.8035254606384187  0.29503968581214923  0.6465909329768774  1.0000
  C   C67       1.0  0.2635293653675674  0.5667450918644051  0.828117955686437  1.0000
  C   C68       1.0  0.7719170835452401  0.22395122644738313  0.8355818499619331  1.0000
  C   C69       1.0  0.24655361747144158  0.5160942003308122  0.9264537894693274  1.0000
  C   C70       1.0  0.2804839952646604  0.713586125857873  0.54755865771218  1.0000
  C   C71       1.0  0.6652323586775565  0.4355560524559721  0.6622224406826901  1.0000
  C   C72       1.0  0.6774273742011873  0.6068754487825032  0.6950856032174213  1.0000
  C   C73       1.0  0.6934403647689891  0.17909829019065174  0.1971777641272893  1.0000
  C   C74       1.0  0.8410517172513323  0.29855564939977347  0.3842153563853896  1.0000
  C   C75       1.0  0.19907701597717425  0.6354247418639359  0.15010698838116793  1.0000
  C   C76       1.0  0.3234984306683089  0.8215281425372964  0.29285917676341466  1.0000
  C   C77       1.0  0.894562573657282  0.3073638940344878  0.6066286337394045  1.0000
  C   C78       1.0  0.27253745363520204  0.5293411492623079  0.7731536543434457  1.0000
  C   C79       1.0  0.4832840299636699  0.9087406018437532  0.2876267913494318  1.0000
  C   C80       1.0  0.07170642306135729  0.3261667893921968  0.31073061414193853  1.0000
  C   C81       1.0  0.9186380055945236  0.10779309106415272  0.7861217579381896  1.0000
  C   C82       1.0  0.597085773734733  0.19358094541547638  0.8931758188028097  1.0000
  C   C83       1.0  0.6583519514237608  0.2449592618987566  0.65852941023698  1.0000
  C   C84       1.0  0.28184401824819366  0.5763742094489428  0.6818842224551743  1.0000
  Cl  Cl1       1.0  0.26716478282546063  0.8481176857270467  0.8372988427331333  1.0000
  Cl  Cl2       1.0  0.528426384915484  0.2169197250147192  0.11230496793081099  1.0000
  Cl  Cl3       1.0  0.6059564892225424  0.0144582383708567  0.15835507255759734  1.0000
  Cl  Cl4       1.0  0.2861636118695756  0.9798254133964902  0.38592223751683014  1.0000
  Cl  Cl5       1.0  0.2753613757802497  0.41983898986063645  0.8159814882494768  1.0000
  Cl  Cl6       1.0  0.6096762341356695  0.7645184767262021  0.9234175189213328  1.0000
  Cl  Cl7       1.0  0.8304518758728532  0.5693964927744021  0.5302849581190682  1.0000
  Cl  Cl8       1.0  0.6582753535521632  0.5254637447524145  0.10219130368375319  1.0000
  Cl  Cl9       1.0  0.808438123857222  0.0542408719665985  0.32029687177526966  1.0000
  Cl  Cl10      1.0  0.4475192107036959  0.694343474827825  0.1833295192630828  1.0000
  Cl  Cl11      1.0  0.9967067799405742  0.6909743878482787  0.21832643484893996  1.0000
  Cl  Cl12      1.0  0.8911452306038541  0.8208944839535305  0.3256173928945785  1.0000
  O   O1        1.0  0.5008651323696256  0.49992245499406357  0.9998987890569279  1.0000
  O   O2        1.0  0.9398573398492118  0.1256160144631835  0.32845863434198436  1.0000
  O   O3        1.0  0.11525432042424186  0.8246038895559951  0.44360625343637144  1.0000
  O   O4        1.0  0.6821143192306633  0.3731625110543959  0.05242784500768497  1.0000
  O   O5        1.0  0.826297174888353  0.0950742341654802  0.637750034577266  1.0000
  O   O6        1.0  0.11027808506045746  0.9499922361282246  0.3195884746395379  1.0000
  O   O7        1.0  0.9434325086339611  0.12829341736551214  0.6094819110939865  1.0000
  O   O8        1.0  0.13234151734753408  0.9500260366998745  0.5998688108959342  1.0000
  O   O9        1.0  0.8175809979016506  0.1156003637608407  0.4550136469803047  1.0000
  O   O10       1.0  0.949886398284718  0.8145582427345206  0.6146663213071475  1.0000
  O   O11       1.0  0.1239419752280853  0.11559024689120889  0.31825363022552705  1.0000
  O   O12       1.0  0.3780146336349688  0.39452657136658326  0.05019982979551681  1.0000
  O   O13       1.0  0.3973042517842345  0.5654172194874006  0.8644463321703381  1.0000
  O   O14       1.0  0.3868246958715956  0.38366056341963173  0.17568682267753388  1.0000
  O   O15       1.0  0.5450159595754515  0.6787923297989238  0.8665466278169586  1.0000
  O   O16       1.0  0.37937718738884035  0.5544924289231901  0.1822020296657667  1.0000
  O   O17       1.0  0.6778367832944879  0.3807120675747556  0.8789954894932632  1.0000
  O   O18       1.0  0.38470871550108393  0.6795203251766465  0.05803311458711862  1.0000
  O   O19       1.0  0.5510330270736787  0.3845535358200536  0.8804102687178242  1.0000
  O   O20       1.0  0.671242042459653  0.5581837419359985  0.8833493868164122  1.0000
  O   O21       1.0  0.5596099649028191  0.3879555930927267  0.1768617625205237  1.0000
  O   O22       1.0  0.3414958888894972  0.6659543032184772  0.931450527210522  1.0000
  O   O23       1.0  0.0008259475048148997  0.0016460363855018015  0.5005262086731219  1.0000
  O   O24       1.0  0.8238502547970229  0.9360571203834667  0.6260057556948623  1.0000
  O   O25       1.0  0.10763400880715315  0.1305414550582498  0.4422277960488685  1.0000
  O   O26       1.0  0.11165141520810097  0.8275531029844955  0.6206357628037651  1.0000
