data_image0
_chemical_formula_structural       Cu2H28C20S4I2
_chemical_formula_sum              "Cu2 H28 C20 S4 I2"
_cell_length_a       7.37792440199151
_cell_length_b       8.563738929840627
_cell_length_c       11.362802848359852
_cell_angle_alpha    67.85255490801585
_cell_angle_beta     83.87935837532713
_cell_angle_gamma    73.57658292987644

_space_group_name_H-M_alt    "P 1"
_space_group_IT_number       1

loop_
  _space_group_symop_operation_xyz
  'x, y, z'

loop_
  _atom_site_type_symbol
  _atom_site_label
  _atom_site_symmetry_multiplicity
  _atom_site_fract_x
  _atom_site_fract_y
  _atom_site_fract_z
  _atom_site_occupancy
  Cu  Cu1       1.0  0.5000889961686357  0.4370863967521643  0.12578864225849878  1.0000
  Cu  Cu2       1.0  0.49990571625549785  0.5629202995270005  0.8742124919284605  1.0000
  H   H1        1.0  0.33412991299644557  0.6439152366891675  0.29087045576424214  1.0000
  H   H2        1.0  0.66575191383415  0.0648180120725428  0.2908131431495207  1.0000
  H   H3        1.0  0.6658672910473556  0.3560803429877097  0.7091326235320139  1.0000
  H   H4        1.0  0.33423865578335943  0.9351859824631176  0.7091803894267414  1.0000
  H   H5        1.0  0.16883990505340318  0.6821036576015375  0.48629868548471916  1.0000
  H   H6        1.0  0.8308679244336905  0.8309778033571931  0.48623557390024513  1.0000
  H   H7        1.0  0.8311593587742583  0.31789274021396347  0.5137061344279203  1.0000
  H   H8        1.0  0.16912402819753689  0.16902520175533212  0.5137589183790608  1.0000
  H   H9        1.0  0.8610648927911626  0.6331676540565995  0.09497361680325865  1.0000
  H   H10       1.0  0.13825468977256616  0.2720663784216555  0.0953745211746195  1.0000
  H   H11       1.0  0.1389298591672274  0.3668363879122652  0.9050301560744101  1.0000
  H   H12       1.0  0.8617431313854814  0.7279297626545684  0.90462021871555  1.0000
  H   H13       1.0  0.6424236166686086  0.7540291197478622  0.13660459081609114  1.0000
  H   H14       1.0  0.3570615634481913  0.10967674250282763  0.13653429288407887  1.0000
  H   H15       1.0  0.35757532386520563  0.24596929964129555  0.8634046998614123  1.0000
  H   H16       1.0  0.6429399648543924  0.8903264148085271  0.8634598808079514  1.0000
  H   H17       1.0  0.7956068259256244  0.713106104194111  0.3411193625241323  1.0000
  H   H18       1.0  0.20454180033956967  0.9457711553515794  0.3414774622115785  1.0000
  H   H19       1.0  0.20439859401471247  0.28689168257100295  0.6588865588597345  1.0000
  H   H20       1.0  0.7954703827668653  0.054226631526127306  0.6585179804230705  1.0000
  H   H21       1.0  0.9138617142653802  0.82279264165134  0.2032296318225092  1.0000
  H   H22       1.0  0.08584519612249165  0.9739243542555799  0.2037748242960829  1.0000
  H   H23       1.0  0.08613853333091026  0.17720726192882089  0.7967729799258336  1.0000
  H   H24       1.0  0.914166019510681  0.02606620708090894  0.7962213448156561  1.0000
  H   H25       1.0  0.013363059609943773  0.5973956133076258  0.29282031915997914  1.0000
  H   H26       1.0  0.9866877283817534  0.10972277505611318  0.29339424689337074  1.0000
  H   H27       1.0  0.9866426805069681  0.4026029868902795  0.7071834927098095  1.0000
  H   H28       1.0  0.013317341199560146  0.8902683475671295  0.7066040615614995  1.0000
  C   C1        1.0  0.4059736364570556  0.58151438394529  0.38269399219686295  1.0000
  C   C2        1.0  0.5939434806925161  0.035552958542048506  0.38265613077874144  1.0000
  C   C3        1.0  0.5940242280615282  0.41848672306990425  0.6173113496999533  1.0000
  C   C4        1.0  0.40604643539376195  0.9644502938981105  0.6173407412621044  1.0000
  C   C5        1.0  0.5921310191581881  0.4778617296313215  0.3911416369111648  1.0000
  C   C6        1.0  0.407975074553697  0.13110228522709377  0.39112635653141575  1.0000
  C   C7        1.0  0.4078713176954029  0.5221343875408094  0.6088621133299127  1.0000
  C   C8        1.0  0.5920175284914965  0.8689042969873881  0.6088671575340924  1.0000
  C   C9        1.0  0.3144344864267268  0.6031009955069068  0.4915427267908824  1.0000
  C   C10       1.0  0.6853878250311782  0.9049567303796097  0.4915097568017542  1.0000
  C   C11       1.0  0.6855617144358207  0.39689763318833127  0.5084664036076774  1.0000
  C   C12       1.0  0.3146000017977928  0.09505030846857922  0.508485976746357  1.0000
  C   C13       1.0  0.7735790920409756  0.6529357825182773  0.17526178211895158  1.0000
  C   C14       1.0  0.22610007264255225  0.17193405779753587  0.1754623795328598  1.0000
  C   C15       1.0  0.22641879883378388  0.34706355495671215  0.824745318905009  1.0000
  C   C16       1.0  0.7739011386007281  0.8280654510745648  0.8245315424224557  1.0000
  C   C17       1.0  0.880680555431603  0.6981519125430538  0.25899517895747687  1.0000
  C   C18       1.0  0.11925083675013333  0.04281131739625011  0.259431684268101  1.0000
  C   C19       1.0  0.11932245819212296  0.30184601219082907  0.7410093521969401  1.0000
  C   C20       1.0  0.880757943092981  0.9571839864556677  0.740563696737844  1.0000
  S   S1        1.0  0.714081176874075  0.44427027075582254  0.25520200064055837  1.0000
  S   S2        1.0  0.2859862207641728  0.30063854547143615  0.25523906601213747  1.0000
  S   S3        1.0  0.28591975060962255  0.5557286053796416  0.7447990307703306  1.0000
  S   S4        1.0  0.7140071017026914  0.6993643549880489  0.7447555064066335  1.0000
  I   I1        1.0  0.2885162067290637  0.7543084764253649  3.4083251513469515e-05  1.0000
  I   I2        1.0  0.7114881046053229  0.24569943751888715  0.9999708527261006  1.0000
