data_image0
_chemical_formula_structural       Zn16H48C96S16N16O52
_chemical_formula_sum              "Zn16 H48 C96 S16 N16 O52"
_cell_length_a       19.736659296290917
_cell_length_b       19.754557833322313
_cell_length_c       33.57609113335791
_cell_angle_alpha    78.48127264804381
_cell_angle_beta     78.54478742147582
_cell_angle_gamma    63.53076816771598

_space_group_name_H-M_alt    "P 1"
_space_group_IT_number       1

loop_
  _space_group_symop_operation_xyz
  'x, y, z'

loop_
  _atom_site_type_symbol
  _atom_site_label
  _atom_site_symmetry_multiplicity
  _atom_site_fract_x
  _atom_site_fract_y
  _atom_site_fract_z
  _atom_site_occupancy
  Zn  Zn1       1.0  0.05405185654660731  0.4016431643789178  0.4786037184693086  1.0000
  Zn  Zn2       1.0  0.984321407872429  0.4830053887120798  0.5599454225396485  1.0000
  Zn  Zn3       1.0  0.0593448886920811  0.5604793363664556  0.48362171357132405  1.0000
  Zn  Zn4       1.0  0.9022141866954739  0.5546423160725383  0.4778947566435291  1.0000
  Zn  Zn5       1.0  0.6951650584996544  0.34770120683482025  0.2721673190710945  1.0000
  Zn  Zn6       1.0  0.6893781113161026  0.19066627985356627  0.2663411648194939  1.0000
  Zn  Zn7       1.0  0.7668747953511855  0.26560280018205157  0.19011842430428771  1.0000
  Zn  Zn8       1.0  0.8482762503603568  0.19625152138685553  0.27151951729481993  1.0000
  Zn  Zn9       1.0  0.266714441305595  0.7656823419938165  0.6901266920031617  1.0000
  Zn  Zn10      1.0  0.34835332490854404  0.6962445727141997  0.7714421955719644  1.0000
  Zn  Zn11      1.0  0.1951484221377342  0.8476824744868096  0.7721884307360226  1.0000
  Zn  Zn12      1.0  0.18935391874318705  0.6906640096925615  0.7663693199912132  1.0000
  Zn  Zn13      1.0  0.5593076698329611  0.060495652884938377  0.9836732271445643  1.0000
  Zn  Zn14      1.0  0.4022628550635617  0.054612973025939454  0.9778858672340717  1.0000
  Zn  Zn15      1.0  0.5540440368057702  0.9016245494282132  0.9786282441487941  1.0000
  Zn  Zn16      1.0  0.4843315875033697  0.9829632573512798  0.059987971393169935  1.0000
  H   H1        1.0  0.2848420514915162  0.5108046419943196  0.40898574538415744  1.0000
  H   H2        1.0  0.4642011227123605  0.23927770540309015  0.3415550550991426  1.0000
  H   H3        1.0  0.7719870668959176  0.5464243695958971  0.6479438672408192  1.0000
  H   H4        1.0  0.4788225152900907  0.703535818173556  0.6016025541837139  1.0000
  H   H5        1.0  0.04659867348762249  0.27069919831289724  0.6484839280863709  1.0000
  H   H6        1.0  0.2037536419660384  0.978075758859724  0.6020290528795725  1.0000
  H   H7        1.0  0.8004992363975987  0.7803037965550673  0.4028100917898244  1.0000
  H   H8        1.0  0.949075403073195  0.9711582763101918  0.34711546903923807  1.0000
  H   H9        1.0  0.703970225439363  0.47798680579762054  0.10203314516084559  1.0000
  H   H10       1.0  0.5464685788421733  0.770659718666984  0.14842827128462938  1.0000
  H   H11       1.0  0.086629544158086  0.1076845177201378  0.2096865236878003  1.0000
  H   H12       1.0  0.1643259388836285  0.14098230626629527  0.0400350365723483  1.0000
  H   H13       1.0  0.44915985709470624  0.471112908867191  0.8470129437069289  1.0000
  H   H14       1.0  0.300517650232841  0.2803332529952911  0.9027294944444861  1.0000
  H   H15       1.0  0.9641675151211047  0.7393123500250101  0.8415714365589225  1.0000
  H   H16       1.0  0.7847960628586108  0.010859003118774377  0.9089878161547844  1.0000
  H   H17       1.0  0.7975150110220498  0.5346347830614634  0.4215668225260174  1.0000
  H   H18       1.0  0.723869010104565  0.5282777222344277  0.40496066489094334  1.0000
  H   H19       1.0  0.946966181336073  0.2103638851063891  0.3338240271174584  1.0000
  H   H20       1.0  0.9971716089818019  0.19311306223583802  0.37389867762539103  1.0000
  H   H21       1.0  0.7149805022266166  0.4525310589592307  0.32855700518366865  1.0000
  H   H22       1.0  0.7213378638287865  0.5262713205550111  0.34498376695417227  1.0000
  H   H23       1.0  0.0401170749989177  0.3028730283422547  0.4163191691609498  1.0000
  H   H24       1.0  0.05735287596338878  0.2529379947121058  0.37620792733221725  1.0000
  H   H25       1.0  0.14540019302258142  0.6356637044836192  0.5218324687114517  1.0000
  H   H26       1.0  0.2141685102121826  0.6571875417806725  0.5332265527712322  1.0000
  H   H27       1.0  0.11496705887593353  0.6038858796300133  0.7281053992116354  1.0000
  H   H28       1.0  0.09359564341860958  0.5351717100081572  0.7166691694772922  1.0000
  H   H29       1.0  0.2227264101404174  0.7334360129271931  0.6096094612863254  1.0000
  H   H30       1.0  0.1876337563220147  0.7457077900930501  0.5644919795652824  1.0000
  H   H31       1.0  0.016426188759794503  0.527326794486271  0.640337971559873  1.0000
  H   H32       1.0  0.004598771967437196  0.5619283217116121  0.6855308430273866  1.0000
  H   H33       1.0  0.7232222988404545  0.23307440540071414  0.10958580930082461  1.0000
  H   H34       1.0  0.6880722292547788  0.24546013302363434  0.0644625816851772  1.0000
  H   H35       1.0  0.5161813788290033  0.02753974175288931  0.1403618081500326  1.0000
  H   H36       1.0  0.5042977346246857  0.06223023258465333  0.18550334299551002  1.0000
  H   H37       1.0  0.6453827644347426  0.13572310393485054  0.02183860423347282  1.0000
  H   H38       1.0  0.7142777582065493  0.15703153642835588  0.033247420259897395  1.0000
  H   H39       1.0  0.6149888533442719  0.10383073666202598  0.22811669326021897  1.0000
  H   H40       1.0  0.5932917571740646  0.035344709637172365  0.21665193076002956  1.0000
  H   H41       1.0  0.21503203459415235  0.9524570349490631  0.8285073034665517  1.0000
  H   H42       1.0  0.2214556571544435  0.0262295365022851  0.844847043355152  1.0000
  H   H43       1.0  0.5401186355712042  0.8028576441172673  0.9163160776582158  1.0000
  H   H44       1.0  0.5573972480930962  0.7529114629258162  0.8761962483836141  1.0000
  H   H45       1.0  0.2976004870106337  0.034586717151419984  0.9214763990022378  1.0000
  H   H46       1.0  0.22392543890889272  0.02823670985882388  0.9048703065699399  1.0000
  H   H47       1.0  0.4472977460519516  0.7104212689529349  0.8335878470753285  1.0000
  H   H48       1.0  0.49744153576796896  0.6930906976836866  0.8737205757172859  1.0000
  C   C1        1.0  0.061268004290816726  0.31592883080016787  0.5618630975947808  1.0000
  C   C2        1.0  0.06983843850572671  0.5698298145869815  0.5697110688832225  1.0000
  C   C3        1.0  0.18313874666191768  0.4393124460882377  0.43882213043469415  1.0000
  C   C4        1.0  0.9380420597577556  0.6843444390162077  0.4385352448480687  1.0000
  C   C5        1.0  0.9301826176594973  0.4302062564635495  0.4302750644993765  1.0000
  C   C6        1.0  0.8168593987388065  0.560860977355077  0.5613239535225175  1.0000
  C   C7        1.0  0.5656364962758359  0.3110517785604545  0.3115299616800015  1.0000
  C   C8        1.0  0.680286491982244  0.17992404154608707  0.1802595324007967  1.0000
  C   C9        1.0  0.6892394801394772  0.43285355396285763  0.18865838363160484  1.0000
  C   C10       1.0  0.9344433006634748  0.18839026342063636  0.1886796672759701  1.0000
  C   C11       1.0  0.8197880317156248  0.32007384670567524  0.3197464687849063  1.0000
  C   C12       1.0  0.8116887191726008  0.06683389281985097  0.3111385761845114  1.0000
  C   C13       1.0  0.4340054045917299  0.6888400904693059  0.6882384326982064  1.0000
  C   C14       1.0  0.3198668452458762  0.820033977119593  0.8196821648947932  1.0000
  C   C15       1.0  0.1891990613129195  0.9328897903090766  0.6886426407953579  1.0000
  C   C16       1.0  0.06559080932031242  0.8110853300247102  0.8115294028022433  1.0000
  C   C17       1.0  0.1801746727456219  0.6800155427773263  0.6802446733967854  1.0000
  C   C18       1.0  0.3117221884044952  0.5668103833279261  0.8110512849499685  1.0000
  C   C19       1.0  0.4380071069346982  0.18435105462187812  0.9385093140900056  1.0000
  C   C20       1.0  0.4301749855978586  0.9301959028827084  0.9302480693951762  1.0000
  C   C21       1.0  0.6830830609601223  0.93935869893982  0.9388229945769522  1.0000
  C   C22       1.0  0.5613945787891055  0.8158467940089551  0.06181576717854402  1.0000
  C   C23       1.0  0.5697296395207517  0.0699752028839029  0.0697088366352503  1.0000
  C   C24       1.0  0.3165671699640882  0.0609396607652215  0.06103127347109452  1.0000
  C   C25       1.0  0.902279675717736  0.402379822949321  0.4022270226622525  1.0000
  C   C26       1.0  0.8477929156909526  0.3480526335378897  0.3476556170983328  1.0000
  C   C27       1.0  0.8290201517995544  0.4473552131776798  0.3886816662511947  1.0000
  C   C28       1.0  0.9204288183544166  0.30245711477434145  0.36184017536083246  1.0000
  C   C29       1.0  0.8028136640783005  0.4212471729410936  0.36115199832880057  1.0000
  C   C30       1.0  0.9479212923909232  0.3298405652114055  0.38806830014036814  1.0000
  C   C31       1.0  0.09778187403644983  0.5977588404203686  0.5976990476369365  1.0000
  C   C32       1.0  0.15230760691552092  0.6520549016234015  0.6522582723623173  1.0000
  C   C33       1.0  0.14177554918705942  0.6405546831806105  0.5820003329636875  1.0000
  C   C34       1.0  0.10959474951924619  0.6079843501966736  0.6679564813781625  1.0000
  C   C35       1.0  0.16736080915689663  0.668574763228513  0.6088704812382488  1.0000
  C   C36       1.0  0.08142432853158968  0.5825597281044496  0.6410839250637679  1.0000
  C   C37       1.0  0.30258503316726154  0.45399844456520816  0.40115260748262205  1.0000
  C   C38       1.0  0.4463253188935923  0.29615001549432657  0.349329776633418  1.0000
  C   C39       1.0  0.2580484303531989  0.4139456188751183  0.4137892866726958  1.0000
  C   C40       1.0  0.49070763856399685  0.3363448498187723  0.33658331433827726  1.0000
  C   C41       1.0  0.3777080323225234  0.3389732229417461  0.3727321822006004  1.0000
  C   C42       1.0  0.37102236866486754  0.41133516374666373  0.377585279867958  1.0000
  C   C43       1.0  0.726814666702893  0.5756612127596837  0.628374215570375  1.0000
  C   C44       1.0  0.5240081546524848  0.6740713466557084  0.6211625213367  1.0000
  C   C45       1.0  0.741659830528036  0.5859913788285737  0.586081042896744  1.0000
  C   C46       1.0  0.5091873693593812  0.6635510848142943  0.6634498057000898  1.0000
  C   C47       1.0  0.603183118103523  0.6419103570028212  0.6083258964658923  1.0000
  C   C48       1.0  0.6476212720742183  0.6074532252120479  0.641199935193839  1.0000
  C   C49       1.0  0.0760081604136715  0.22567569714209415  0.6289030194517977  1.0000
  C   C50       1.0  0.1744522534559607  0.023116083374524986  0.621607271522656  1.0000
  C   C51       1.0  0.08654160213147583  0.24068349778590914  0.5866191659580977  1.0000
  C   C52       1.0  0.1641224700741049  0.008098937648036014  0.6638936031828494  1.0000
  C   C53       1.0  0.1426399476123237  0.1022788604967744  0.6088014626826704  1.0000
  C   C54       1.0  0.1081617968960842  0.1465175165841828  0.6417027476564385  1.0000
  C   C55       1.0  0.8446727526185854  0.8008152125689987  0.39780894831678637  1.0000
  C   C56       1.0  0.9050088180444648  0.9505189897996759  0.35202040469856405  1.0000
  C   C57       1.0  0.9134508162212928  0.7594123486149155  0.4136214139904909  1.0000
  C   C58       1.0  0.8363488997484156  0.9917867621400733  0.3360773340597305  1.0000
  C   C59       1.0  0.9082809910265797  0.8808601370352137  0.37438943583335776  1.0000
  C   C60       1.0  0.8416099714715203  0.8702693490719182  0.37526820833312513  1.0000
  C   C61       1.0  0.652350741042561  0.15204746390809018  0.1522719823570711  1.0000
  C   C62       1.0  0.5976782541413641  0.09789173043213138  0.09769733770949782  1.0000
  C   C63       1.0  0.6674319714535599  0.16854321641897485  0.10888138069690714  1.0000
  C   C64       1.0  0.5812750223166959  0.08271845337772271  0.14108650238724607  1.0000
  C   C65       1.0  0.6417558648007785  0.14060779100552176  0.08200772105818999  1.0000
  C   C66       1.0  0.6095300352063829  0.10806315550313884  0.16796005703528044  1.0000
  C   C67       1.0  0.674552722267805  0.5230448164129767  0.12160215351095623  1.0000
  C   C68       1.0  0.5759803393763647  0.7256264776581605  0.1288626708911593  1.0000
  C   C69       1.0  0.6641403851857676  0.5080433068174911  0.16388789364049222  1.0000
  C   C70       1.0  0.5866282640237088  0.7406109477612901  0.08657611574169274  1.0000
  C   C71       1.0  0.6081367493874411  0.6464628487643368  0.1416716346585858  1.0000
  C   C72       1.0  0.6427155381004752  0.6022059009711499  0.10878322202668045  1.0000
  C   C73       1.0  0.0800183459590258  0.12412586673291058  0.1773090589991071  1.0000
  C   C74       1.0  0.1709687482971418  0.12448440613604826  0.07240964199181832  1.0000
  C   C75       1.0  0.0092271178307399  0.1632909913559786  0.163501132316469  1.0000
  C   C76       1.0  0.2417838869320335  0.08565999674355848  0.08620868417992969  1.0000
  C   C77       1.0  0.1120072233273959  0.1386786682021963  0.10551702218627669  1.0000
  C   C78       1.0  0.13897741610706055  0.11006506810990399  0.14420639204549704  1.0000
  C   C79       1.0  0.3478735222593841  0.8480116228291126  0.8475837947393289  1.0000
  C   C80       1.0  0.40230866199809884  0.9023636490570939  0.9021828969715103  1.0000
  C   C81       1.0  0.3028793564146639  0.9212200828957511  0.8610850471149404  1.0000
  C   C82       1.0  0.4479661301616177  0.8298263898733824  0.8880302267382164  1.0000
  C   C83       1.0  0.3290751641997219  0.9473281755665184  0.8886027937710921  1.0000
  C   C84       1.0  0.4205013114909235  0.8024406200740019  0.8617703883177794  1.0000
  C   C85       1.0  0.4050701788383648  0.45049898330063337  0.851937275388245  1.0000
  C   C86       1.0  0.3446991038462102  0.3008209851417122  0.8977423261482331  1.0000
  C   C87       1.0  0.33641369227257206  0.4917726102179004  0.8359895936584252  1.0000
  C   C88       1.0  0.4134593762119819  0.2594124112285884  0.9135723050439567  1.0000
  C   C89       1.0  0.3416472725503397  0.37026602889140037  0.8751927449588165  1.0000
  C   C90       1.0  0.4083274053540294  0.3808477739488654  0.8743172443273153  1.0000
  C   C91       1.0  0.9462854820846688  0.7961909847522081  0.8493404859625714  1.0000
  C   C92       1.0  0.8025446202452713  0.9540505649586064  0.9011585601620526  1.0000
  C   C93       1.0  0.9906690634150053  0.8363823635800929  0.836584142491077  1.0000
  C   C94       1.0  0.7580091552729656  0.9139988170759777  0.9137946942256431  1.0000
  C   C95       1.0  0.8709854141049007  0.9113786119768151  0.8775912210069449  1.0000
  C   C96       1.0  0.8776716025716098  0.8390158581870961  0.8727426235027947  1.0000
  S   S1        1.0  0.298890602975483  0.3245492340205587  0.39716722253896813  1.0000
  S   S2        1.0  0.4496018848184207  0.42597649698277723  0.35295199763000074  1.0000
  S   S3        1.0  0.6598441071590742  0.6341929368260537  0.561739785628987  1.0000
  S   S4        1.0  0.5909890263010597  0.6148003287467249  0.6877792675129868  1.0000
  S   S5        1.0  0.13530013237253508  0.15909606702753368  0.5622504744936593  1.0000
  S   S6        1.0  0.11587679492126311  0.0897067505734483  0.6882725685857806  1.0000
  S   S7        1.0  0.9744748574251576  0.8044637118646988  0.40132964384874736  1.0000
  S   S8        1.0  0.7756096697563848  0.9464220452577053  0.3481129732990522  1.0000
  S   S9        1.0  0.6157906699691581  0.5896791899095176  0.1882482091384432  1.0000
  S   S10       1.0  0.6354680661897235  0.6589957145974666  0.06222738976455129  1.0000
  S   S11       1.0  0.013808137740362304  0.1830752864846374  0.11043241113866031  1.0000
  S   S12       1.0  0.237200544126857  0.06620091170507442  0.13928241064481028  1.0000
  S   S13       1.0  0.27566303235510503  0.44640433356416764  0.8480319678825551  1.0000
  S   S14       1.0  0.4744948889953733  0.3044554249085395  0.9012757223810082  1.0000
  S   S15       1.0  0.9495610155015017  0.9260211921383003  0.8529510871638093  1.0000
  S   S16       1.0  0.7988518713925857  0.8245954020750117  0.8971784189205467  1.0000
  N   N1        1.0  0.779704280783875  0.5191537291776241  0.39988528273605073  1.0000
  N   N2        1.0  0.9698460287044811  0.23073992220620448  0.35053545830520966  1.0000
  N   N3        1.0  0.7308377312075648  0.4703848455599625  0.3500539412301009  1.0000
  N   N4        1.0  0.019623529977700102  0.2803618414679434  0.3994706389492464  1.0000
  N   N5        1.0  0.1604439565200124  0.6600600905227697  0.5404630783842705  1.0000
  N   N6        1.0  0.09035126076757649  0.5890155478845716  0.7094981219311194  1.0000
  N   N7        1.0  0.2090437031741317  0.7100164666946044  0.589824143221314  1.0000
  N   N8        1.0  0.0400474842515237  0.5408127321237045  0.6601174844099446  1.0000
  N   N9        1.0  0.7092658259075151  0.20980989364888797  0.08984642677268079  1.0000
  N   N10       1.0  0.5398112984339463  0.04106012619290303  0.16011595742832438  1.0000
  N   N11       1.0  0.6604893872349394  0.16006627164854598  0.040468159412938576  1.0000
  N   N12       1.0  0.5902768638396979  0.08910415650367294  0.209498106301261  1.0000
  N   N13       1.0  0.23087668305439737  0.9703545228296093  0.8499891395461106  1.0000
  N   N14       1.0  0.5196423038918354  0.7803685155796743  0.8994429096469575  1.0000
  N   N15       1.0  0.2797491308964553  0.0191864517246998  0.8997778444603881  1.0000
  N   N16       1.0  0.4699441024175002  0.7307936677577376  0.8504329275546  1.0000
  O   O1        1.0  0.9999718407234968  0.49999147124703547  0.500048271900532  1.0000
  O   O2        1.0  0.0790206865164649  0.3161685293773362  0.5230296529716156  1.0000
  O   O3        1.0  0.0353600529957916  0.5264479792089676  0.5848868575241112  1.0000
  O   O4        1.0  0.15762560736365572  0.5037737872111875  0.4519526792085671  1.0000
  O   O5        1.0  0.0240690352443877  0.373953603692364  0.5812158847026367  1.0000
  O   O6        1.0  0.15044002320290426  0.3941324968354608  0.44518278908560655  1.0000
  O   O7        1.0  0.0805684906849748  0.5894373945459394  0.5307726588733105  1.0000
  O   O8        1.0  0.005230034130775601  0.6558742971136269  0.4490429623225225  1.0000
  O   O9        1.0  0.8902701071517073  0.4984155731218109  0.43986207752389106  1.0000
  O   O10       1.0  0.89048785551028  0.6544238567132934  0.4474016876080142  1.0000
  O   O11       1.0  0.9937825491397092  0.38568215939550043  0.4445517052879496  1.0000
  O   O12       1.0  0.8750616508822588  0.5288623068222835  0.5808090847192061  1.0000
  O   O13       1.0  0.8168430571968486  0.5735684096350441  0.5223855622848886  1.0000
  O   O14       1.0  0.7498964178809048  0.2500277400311859  0.2500477914927756  1.0000
  O   O15       1.0  0.5956202979446845  0.3587155612605881  0.3025757298916432  1.0000
  O   O16       1.0  0.6605431035647201  0.16931511601009674  0.2192018991466469  1.0000
  O   O17       1.0  0.7210204818858372  0.37471779261343846  0.16920030307686315  1.0000
  O   O18       1.0  0.5938835131815524  0.24418530180828674  0.30099041569275187  1.0000
  O   O19       1.0  0.6767463390238149  0.43280348568198684  0.22758632431051506  1.0000
  O   O20       1.0  0.7238123351555076  0.2142939137125525  0.16514002146079323  1.0000
  O   O21       1.0  0.8761384718154519  0.2256497922935807  0.16929930910379196  1.0000
  O   O22       1.0  0.8643088181225667  0.2564602360974035  0.305556813390524  1.0000
  O   O23       1.0  0.9343992712405084  0.1708797854784621  0.22742098843434624  1.0000
  O   O24       1.0  0.751454369187144  0.35978974547654713  0.31020551668949986  1.0000
  O   O25       1.0  0.7469064881832211  0.09257533566568553  0.2980384933200071  1.0000
  O   O26       1.0  0.8568190944642495  0.09937844269854416  0.304874706463913  1.0000
  O   O27       1.0  0.2498573041503676  0.7500434142975011  0.7500264578715771  1.0000
  O   O28       1.0  0.3758487100504126  0.7259566235709726  0.6689052110388829  1.0000
  O   O29       1.0  0.3644249399510642  0.7565059564953741  0.805419511754117  1.0000
  O   O30       1.0  0.17673120134167417  0.9327883366711234  0.7275720199224764  1.0000
  O   O31       1.0  0.4339529493188651  0.6712159772392354  0.7270782838401287  1.0000
  O   O32       1.0  0.22094603474835856  0.8747998111020648  0.6691528528843519  1.0000
  O   O33       1.0  0.2514706987596185  0.8596903189463349  0.8102152967556933  1.0000
  O   O34       1.0  0.09557249097683503  0.8587590992965132  0.802555824077608  1.0000
  O   O35       1.0  0.1604774735860275  0.6693861824010554  0.719186263014123  1.0000
  O   O36       1.0  0.0938525825216061  0.7442068259807825  0.8009987905543099  1.0000
  O   O37       1.0  0.2236007630644394  0.7144824764436777  0.6650974284183847  1.0000
  O   O38       1.0  0.3568034487795444  0.5994066335928564  0.8047805552633561  1.0000
  O   O39       1.0  0.24692930744446073  0.5925071996011226  0.7979582713252001  1.0000
  O   O40       1.0  0.49995264971087044  0.9999865603313721  5.329672396214416e-05  1.0000
  O   O41       1.0  0.5051975072320759  0.15583140367539977  0.9490040690335418  1.0000
  O   O42       1.0  0.3901973699410349  0.9983934053860324  0.9398651026685272  1.0000
  O   O43       1.0  0.6503834371888504  0.8941925103320755  0.9451548129614193  1.0000
  O   O44       1.0  0.39039371358580155  0.15448995415889036  0.947402806526888  1.0000
  O   O45       1.0  0.657573324025023  0.0038063192325523435  0.9519689121994757  1.0000
  O   O46       1.0  0.4937821920212215  0.8857179238030427  0.9445133825183659  1.0000
  O   O47       1.0  0.5790780014409052  0.8160734352687631  0.02297601127034446  1.0000
  O   O48       1.0  0.5352915291841712  0.02654791315704589  0.08486407186421017  1.0000
  O   O49       1.0  0.5242951539225587  0.873892804228035  0.08115806694996047  1.0000
  O   O50       1.0  0.5804367914445621  0.08962292966131005  0.030764617998897802  1.0000
  O   O51       1.0  0.3164733427583641  0.07379606412465725  0.02219119427249441  1.0000
  O   O52       1.0  0.3749600548936982  0.028696273718381276  0.08052222382816152  1.0000
