data_image0
_chemical_formula_structural       Ag4H12C24N4Cl4O8
_chemical_formula_sum              "Ag4 H12 C24 N4 Cl4 O8"
_cell_length_a       3.739413805855548
_cell_length_b       12.130897624110748
_cell_length_c       14.482453673238988
_cell_angle_alpha    89.99966649598765
_cell_angle_beta     89.63878855746158
_cell_angle_gamma    90.00036942978073

_space_group_name_H-M_alt    "P 1"
_space_group_IT_number       1

loop_
  _space_group_symop_operation_xyz
  'x, y, z'

loop_
  _atom_site_type_symbol
  _atom_site_label
  _atom_site_symmetry_multiplicity
  _atom_site_fract_x
  _atom_site_fract_y
  _atom_site_fract_z
  _atom_site_occupancy
  Ag  Ag1       1.0  0.5310613344798655  0.4411506268639301  0.0824065792546307  1.0000
  Ag  Ag2       1.0  0.9689513257955582  0.9411557701496494  0.4175930686545186  1.0000
  Ag  Ag3       1.0  0.46894890356431773  0.5588454438361411  0.9175948867001156  1.0000
  Ag  Ag4       1.0  0.031034762697984795  0.05884936827045813  0.5824111508751457  1.0000
  H   H1        1.0  0.8666929112872738  0.14987766753097287  0.0026615661166716  1.0000
  H   H2        1.0  0.6332923654651026  0.649882390415556  0.49734087500544893  1.0000
  H   H3        1.0  0.13331193748767586  0.8501258222305169  0.9973412789569025  1.0000
  H   H4        1.0  0.36670999342221217  0.35011780199990744  0.5026557546064438  1.0000
  H   H5        1.0  0.6214618367302619  0.9754033538978395  0.9301026521472693  1.0000
  H   H6        1.0  0.8784982176332932  0.47540642802766825  0.5698989569702422  1.0000
  H   H7        1.0  0.37849746892677427  0.024605081855305907  0.06990293902837412  1.0000
  H   H8        1.0  0.12150961254327798  0.5245954130905022  0.4300935314854543  1.0000
  H   H9        1.0  0.6691729071742144  0.9552216577556227  0.7577063929654317  1.0000
  H   H10       1.0  0.830781386573598  0.4552209547110594  0.7422953126577243  1.0000
  H   H11       1.0  0.3307837242585023  0.0447834806295546  0.24229919728288965  1.0000
  H   H12       1.0  0.169231791933754  0.54477594036473  0.25769717768073974  1.0000
  C   C1        1.0  0.1813726084024978  0.3198117203557161  0.9190077930213578  1.0000
  C   C2        1.0  0.31862190011758423  0.8198139658435442  0.5809914504281155  1.0000
  C   C3        1.0  0.8186483673932371  0.6801868233840769  0.0809922956611686  1.0000
  C   C4        1.0  0.6813884403947978  0.18018787525785743  0.41900656299348077  1.0000
  C   C5        1.0  0.8836757712563353  0.13515583072771883  0.9285937424171423  1.0000
  C   C6        1.0  0.6163068113564449  0.6351593781192479  0.5714074638697967  1.0000
  C   C7        1.0  0.1163157270388098  0.8648468346812453  0.0714084074778185  1.0000
  C   C8        1.0  0.38369289383049227  0.3648416386372376  0.4285884743009092  1.0000
  C   C9        1.0  0.748537672839774  0.03957757871438622  0.8888637323235572  1.0000
  C   C10       1.0  0.7514268920337487  0.5395811244767473  0.6111386247109182  1.0000
  C   C11       1.0  0.25143235005328524  0.960430032710811  0.1111411720917275  1.0000
  C   C12       1.0  0.24857816151764212  0.46041824360258243  0.3888573153345263  1.0000
  C   C13       1.0  0.040485836223687996  0.21716558071855738  0.8733850402576878  1.0000
  C   C14       1.0  0.45951180133332775  0.7171694437879242  0.6266188483867906  1.0000
  C   C15       1.0  0.9595244018373351  0.7828321386641267  0.1266164256930367  1.0000
  C   C16       1.0  0.5404931497919562  0.28282827559660734  0.37338054418176375  1.0000
  C   C17       1.0  0.06217298626002329  0.194567443090243  0.7782886034930598  1.0000
  C   C18       1.0  0.43780820602471954  0.6945689475545651  0.7217133181786368  1.0000
  C   C19       1.0  0.9378185324832983  0.8054319249559259  0.2217128559061194  1.0000
  C   C20       1.0  0.5621914991032924  0.305426298812769  0.27828262000613085  1.0000
  C   C21       1.0  0.7774693123696325  0.026585498051915107  0.7936793491076486  1.0000
  C   C22       1.0  0.722489659226788  0.5265866697802012  0.70632237888249  1.0000
  C   C23       1.0  0.22249270837441062  0.9734163429783751  0.20632486201179742  1.0000
  C   C24       1.0  0.27751810946212874  0.473411049624126  0.2936721810946992  1.0000
  N   N1        1.0  0.9376340712333826  0.10233292418369193  0.7398663524425403  1.0000
  N   N2        1.0  0.5623291216556296  0.60233586467605  0.7601350072797645  1.0000
  N   N3        1.0  0.06233870771881562  0.8976689168648453  0.2601357909068938  1.0000
  N   N4        1.0  0.43767591138023937  0.39766020603561725  0.23986162327754101  1.0000
  Cl  Cl1       1.0  0.26965778908629556  0.28341790309792714  0.7014988009755143  1.0000
  Cl  Cl2       1.0  0.23032252322798294  0.7834192700275866  0.7985033772008734  1.0000
  Cl  Cl3       1.0  0.7303391394502157  0.716578167595792  0.2985005887909651  1.0000
  Cl  Cl4       1.0  0.7696876943006712  0.2165735033048152  0.2014987792657266  1.0000
  O   O1        1.0  0.3268130159081792  0.30419032820658753  0.9970650374726021  1.0000
  O   O2        1.0  0.17318901183667634  0.8041969441572341  0.5029404994465523  1.0000
  O   O3        1.0  0.6732132262993461  0.6958040938223891  0.002937815105966001  1.0000
  O   O4        1.0  0.8268454988176401  0.19580654566355807  0.4970540698701883  1.0000
  O   O5        1.0  0.14192855381615027  0.41075645732760796  0.8770038017686235  1.0000
  O   O6        1.0  0.3580810398184013  0.9107642599231981  0.622999836599071  1.0000
  O   O7        1.0  0.8581083851707944  0.5892396133949094  0.12299905454737113  1.0000
  O   O8        1.0  0.6418997616804775  0.08923510810960522  0.3770023095624779  1.0000
