data_image0
_chemical_formula_structural       Zr6H20C52Cl10O36
_chemical_formula_sum              "Zr6 H20 C52 Cl10 O36"
_cell_length_a       14.793766939017816
_cell_length_b       14.788140052461848
_cell_length_c       14.803790778805665
_cell_angle_alpha    60.24017494069547
_cell_angle_beta     59.91115581413078
_cell_angle_gamma    60.10683009017029

_space_group_name_H-M_alt    "P 1"
_space_group_IT_number       1

loop_
  _space_group_symop_operation_xyz
  'x, y, z'

loop_
  _atom_site_type_symbol
  _atom_site_label
  _atom_site_symmetry_multiplicity
  _atom_site_fract_x
  _atom_site_fract_y
  _atom_site_fract_z
  _atom_site_occupancy
  Zr  Zr1       1.0  0.8783217501843625  0.8828605085666721  0.6165948735436119  1.0000
  Zr  Zr2       1.0  0.12278364001072357  0.11660927466101609  0.38220871061485445  1.0000
  Zr  Zr3       1.0  0.11723466023831  0.8795980395131766  0.6207529123424964  1.0000
  Zr  Zr4       1.0  0.883412244067493  0.12109431103195334  0.37805255954973666  1.0000
  Zr  Zr5       1.0  0.11974394103705778  0.880511526778662  0.3798429697068428  1.0000
  Zr  Zr6       1.0  0.880178892007585  0.1198405383864554  0.6191148427748132  1.0000
  H   H1        1.0  0.09085953012652222  0.7182470417613303  0.5931494259427765  1.0000
  H   H2        1.0  0.09900075346751437  0.09216926282697809  0.21742317509456652  1.0000
  H   H3        1.0  0.09341378471660276  0.09093581993026587  0.5978236151744624  1.0000
  H   H4        1.0  0.7177799197194543  0.09874025958088589  0.5899262833184197  1.0000
  H   H5        1.0  0.1669715140991456  0.5416074759068294  0.4363808335065898  1.0000
  H   H6        1.0  0.8264891286922093  0.47021328505249477  0.5457387782462606  1.0000
  H   H7        1.0  0.6442854009646195  0.07016450774484898  0.9561329777344412  1.0000
  H   H8        1.0  0.36502753415088307  0.9168372167577061  0.05235359233690671  1.0000
  H   H9        1.0  0.8430766374087638  0.11780819128672  0.11335577525627366  1.0000
  H   H10       1.0  0.1367888028301747  0.8624418127350708  0.9057948835373042  1.0000
  H   H11       1.0  0.5946863844544267  0.4071130559341683  0.36130674480680375  1.0000
  H   H12       1.0  0.4290840052056949  0.6175201098495506  0.6132245835330183  1.0000
  H   H13       1.0  0.7374097234838286  0.63602002234515  0.9705959601500354  1.0000
  H   H14       1.0  0.8209210264415031  0.5511279887164949  0.8851266099845817  1.0000
  H   H15       1.0  0.8224515401930219  0.38041304205457765  0.054895722904277085  1.0000
  H   H16       1.0  0.7395271098901973  0.4651259095415981  0.1407452979284969  1.0000
  H   H17       1.0  0.5994309761183912  0.8619783163246808  0.6311121819097353  1.0000
  H   H18       1.0  0.40798818857098945  0.1316780628958228  0.36030605973358826  1.0000
  H   H19       1.0  0.12465285630720031  0.4673496717417295  0.18185285286866562  1.0000
  H   H20       1.0  0.26982787490031496  0.5059187838328398  0.8392802185155832  1.0000
  C   C1        1.0  0.990217777901435  0.7045068238313803  0.4933889719021424  1.0000
  C   C2        1.0  0.31155174126977403  0.9938480738940499  0.20419770550579133  1.0000
  C   C3        1.0  0.0036169805986644176  0.3036583343203958  0.496049137168882  1.0000
  C   C4        1.0  0.6953106208184675  0.9974091906133966  0.8019925721492953  1.0000
  C   C5        1.0  0.9929481619641365  0.7027774092407101  0.8079208034920173  1.0000
  C   C6        1.0  0.7003502377424196  0.00519308683318808  0.4880192496758512  1.0000
  C   C7        1.0  0.00027557849933394535  0.3050381011656286  0.19902870621829996  1.0000
  C   C8        1.0  0.306470460048871  0.9892362901396295  0.5041446425853807  1.0000
  C   C9        1.0  0.3071495817004997  0.7008934094908384  0.4917336493742611  1.0000
  C   C10       1.0  0.9869748824432771  0.9972466915309754  0.8104894600011504  1.0000
  C   C11       1.0  0.7067013583150014  0.3131752671330689  0.4937716000053528  1.0000
  C   C12       1.0  0.000711895728755598  0.9932152709991373  0.19924847796076525  1.0000
  C   C13       1.0  0.004152415337657114  0.40601778016875295  0.49322981372064595  1.0000
  C   C14       1.0  0.9891635609328941  0.6051523261994874  0.4905701500020642  1.0000
  C   C15       1.0  0.10088885378129203  0.4265276174450747  0.46215747457703327  1.0000
  C   C16       1.0  0.8926752084512513  0.5851370098368066  0.520159519469189  1.0000
  C   C17       1.0  0.09229120407893267  0.5255076780241197  0.46051002387855544  1.0000
  C   C18       1.0  0.9011395081111144  0.48625858407341865  0.5218255910673407  1.0000
  C   C19       1.0  0.4138758610038307  0.9930764146960914  0.104088123607177  1.0000
  C   C20       1.0  0.5952356988278495  0.9944085936312349  0.9042241642247291  1.0000
  C   C21       1.0  0.4940285579519638  0.0360032283406256  0.07679565535933361  1.0000
  C   C22       1.0  0.5155814586892477  0.9505545845758263  0.9319944134584901  1.0000
  C   C23       1.0  0.5824889238155251  0.03662589977343342  0.9776777219561269  1.0000
  C   C24       1.0  0.4269707314069464  0.9501586263622599  0.03092703254056059  1.0000
  C   C25       1.0  0.9830301059885894  0.9964222314383094  0.9140962801060938  1.0000
  C   C26       1.0  0.9994568873013137  0.9876393622090164  0.10159705581292407  1.0000
  C   C27       1.0  0.8983401587526815  0.06846290871317966  0.9747498125127834  1.0000
  C   C28       1.0  0.08312621614492605  0.9143471216628286  0.04211621690021871  1.0000
  C   C29       1.0  0.9080455863840199  0.06253856076452284  0.06647973121999225  1.0000
  C   C30       1.0  0.07314185483750169  0.9198154370100371  0.9506536714685794  1.0000
  C   C31       1.0  0.41327706627910726  0.604878243913781  0.4842427783510743  1.0000
  C   C32       1.0  0.609205588519778  0.41814434342794726  0.4917721894908881  1.0000
  C   C33       1.0  0.4622816120114093  0.5457138705281256  0.41065735927030295  1.0000
  C   C34       1.0  0.5623003587123134  0.4796175986468258  0.5627400688928503  1.0000
  C   C35       1.0  0.5581433783478145  0.4543758852793119  0.41608500410664817  1.0000
  C   C36       1.0  0.46605935941456494  0.5707473952042008  0.5578002280351059  1.0000
  C   C37       1.0  0.9926465344266261  0.6054137687013538  0.9110128153273183  1.0000
  C   C38       1.0  0.99851968412203  0.40714166303638444  0.10096519123457158  1.0000
  C   C39       1.0  0.9127007464981319  0.5552943296629351  0.9630689467930013  1.0000
  C   C40       1.0  0.08237091654761014  0.45540083367502876  0.04805012778400909  1.0000
  C   C41       1.0  0.9144123887828639  0.4603144901660841  0.05625708957683166  1.0000
  C   C42       1.0  0.07742840887047457  0.5544690986789008  0.9575955379415005  1.0000
  C   C43       1.0  0.8091762588319469  0.5616183413428291  0.9591663743557677  1.0000
  C   C44       1.0  0.8104637442358538  0.4546462776486352  0.06533039771571236  1.0000
  C   C45       1.0  0.4086473683355575  0.9876785569025232  0.5038089872122171  1.0000
  C   C46       1.0  0.5998559911657748  0.004924292031105875  0.48669192280369344  1.0000
  C   C47       1.0  0.4637163201156085  0.9100471328972406  0.5813316453724227  1.0000
  C   C48       1.0  0.5450020678817608  0.08211338604515828  0.40894219981296953  1.0000
  C   C49       1.0  0.5569570463538865  0.9207415505280423  0.5713291482179271  1.0000
  C   C50       1.0  0.45121721141859433  0.07214339393632227  0.41936822508222354  1.0000
  C   C51       1.0  0.18822204730472686  0.39464413723759156  0.07571115049405822  1.0000
  C   C52       1.0  0.16062899060202063  0.608615168949804  0.918291192332248  1.0000
  Cl  Cl1       1.0  0.23180882098445466  0.330884914784555  0.43139788138277174  1.0000
  Cl  Cl2       1.0  0.7621775909375896  0.6811552690926562  0.5501639249562872  1.0000
  Cl  Cl3       1.0  0.4919222461988681  0.08447095014695088  0.162470423243029  1.0000
  Cl  Cl4       1.0  0.5178568556298018  0.9011089003877046  0.846467244409766  1.0000
  Cl  Cl5       1.0  0.7799429172347485  0.16599769860994945  0.9438322314684273  1.0000
  Cl  Cl6       1.0  0.20141180478333331  0.8169077996738567  0.07288370322880415  1.0000
  Cl  Cl7       1.0  0.4104737170655497  0.5762456900290404  0.3132764528161687  1.0000
  Cl  Cl8       1.0  0.6160902269678628  0.4500588250909773  0.6579802279479807  1.0000
  Cl  Cl9       1.0  0.42373976754107895  0.8005482606808129  0.6902253154033389  1.0000
  Cl  Cl10      1.0  0.585483106566734  0.19103233830932712  0.29893828107507403  1.0000
  O   O1        1.0  0.9153895163140429  0.7416210194369627  0.5723577284960017  1.0000
  O   O2        1.0  0.27019928572106267  0.071130040209539  0.24341474707321004  1.0000
  O   O3        1.0  0.07990250595425857  0.2633136444997319  0.4197233052855154  1.0000
  O   O4        1.0  0.736252922162265  0.9216082111813435  0.7607545134672549  1.0000
  O   O5        1.0  0.0732080614581744  0.7390334441903549  0.7642770124635306  1.0000
  O   O6        1.0  0.7400688632506912  0.08234415555101303  0.4144489492357125  1.0000
  O   O7        1.0  0.9245086822313908  0.26519656390063057  0.23525919352267283  1.0000
  O   O8        1.0  0.26353049817396346  0.9152646231455178  0.580669434485742  1.0000
  O   O9        1.0  0.2635831333999118  0.7390572408711691  0.41900367225701274  1.0000
  O   O10       1.0  0.9137070110667052  0.07510044132278881  0.7672892418887685  1.0000
  O   O11       1.0  0.743249501251867  0.26876376243089334  0.5731885791960637  1.0000
  O   O12       1.0  0.07752277607560369  0.9195484974847475  0.2389385472383907  1.0000
  O   O13       1.0  0.06561120744378694  0.921640256264837  0.7703792895236391  1.0000
  O   O14       1.0  0.7439566316822024  0.27391172299724076  0.4173492413797747  1.0000
  O   O15       1.0  0.9250438574653685  0.07252012530797469  0.23561867567133285  1.0000
  O   O16       1.0  0.26711585588693487  0.7364657413297736  0.5714785693929089  1.0000
  O   O17       1.0  0.9166301825387035  0.7398969611563047  0.7692842459283683  1.0000
  O   O18       1.0  0.26838403021355356  0.06678075571990412  0.4274102944045879  1.0000
  O   O19       1.0  0.07620131715954405  0.2655776952750841  0.23906621400353606  1.0000
  O   O20       1.0  0.7383601448681032  0.9278535041545625  0.5648615031974558  1.0000
  O   O21       1.0  0.733257915044007  0.07460496911747315  0.7646712990093931  1.0000
  O   O22       1.0  0.06978024806870299  0.740416262004402  0.4191519392580788  1.0000
  O   O23       1.0  0.27062858580988064  0.9192145384232334  0.23998477262638582  1.0000
  O   O24       1.0  0.9257104030277148  0.2666351392270912  0.5732355561307685  1.0000
  O   O25       1.0  0.7980738481485117  0.0707751109447443  0.5639417766771757  1.0000
  O   O26       1.0  0.06677983998272193  0.06576493300362779  0.5693324878575013  1.0000
  O   O27       1.0  0.07053076235033012  0.0666827623548514  0.2975598817307841  1.0000
  O   O28       1.0  0.0646072389572366  0.7982854444751979  0.5668528607033567  1.0000
  O   O29       1.0  0.1488323833329444  0.9486723337637815  0.4519220147288364  1.0000
  O   O30       1.0  0.950344455537973  0.9522035284721185  0.44838568779257343  1.0000
  O   O31       1.0  0.9528903722376113  0.14863833736135504  0.4497330023102465  1.0000
  O   O32       1.0  0.9482808384933957  0.9508918024102403  0.6478903725716377  1.0000
  O   O33       1.0  0.1961757989868288  0.41901374721815193  0.14767796328096236  1.0000
  O   O34       1.0  0.2676198911784481  0.3327334202455178  0.026344126594573056  1.0000
  O   O35       1.0  0.26371369075623335  0.5692747744918876  0.8498185969269157  1.0000
  O   O36       1.0  0.13912560545786318  0.678862944513874  0.9528541020787672  1.0000
