data_image0
_chemical_formula_structural       Cd4H12C24S4N12O12
_chemical_formula_sum              "Cd4 H12 C24 S4 N12 O12"
_cell_length_a       6.192233365273332
_cell_length_b       10.44374641945838
_cell_length_c       13.151518295829028
_cell_angle_alpha    96.9543375493249
_cell_angle_beta     90.00084446336486
_cell_angle_gamma    90.00052852586417

_space_group_name_H-M_alt    "P 1"
_space_group_IT_number       1

loop_
  _space_group_symop_operation_xyz
  'x, y, z'

loop_
  _atom_site_type_symbol
  _atom_site_label
  _atom_site_symmetry_multiplicity
  _atom_site_fract_x
  _atom_site_fract_y
  _atom_site_fract_z
  _atom_site_occupancy
  Cd  Cd1       1.0  0.31559776209455487  0.5213450571447638  0.7444541185258233  1.0000
  Cd  Cd2       1.0  0.8155958306324036  0.9786585905834002  0.7555455416344616  1.0000
  Cd  Cd3       1.0  0.6844038162330789  0.47865395266639876  0.2555505300282022  1.0000
  Cd  Cd4       1.0  0.18441059237833457  0.021337538157943897  0.24445426270682455  1.0000
  H   H1        1.0  0.8993995775490188  0.5538863523060442  0.913067674500951  1.0000
  H   H2        1.0  0.3993942877571541  0.9461081636169975  0.5869355080397796  1.0000
  H   H3        1.0  0.10059231118171398  0.44610976578113787  0.0869359305958  1.0000
  H   H4        1.0  0.6006202099156609  0.0538956904775247  0.41306201103275003  1.0000
  H   H5        1.0  0.7750584273646195  0.7219977906414528  0.0571907087616736  1.0000
  H   H6        1.0  0.275044666533624  0.7779996034688138  0.442807774442521  1.0000
  H   H7        1.0  0.22494476593571014  0.2780002439609959  0.9428176461932483  1.0000
  H   H8        1.0  0.7249552968066909  0.22200231712649549  0.5571910760601214  1.0000
  H   H9        1.0  0.3144810523168787  0.9477911527806668  0.010139297611417004  1.0000
  H   H10       1.0  0.8144788886765822  0.5522113325195407  0.4898523693010689  1.0000
  H   H11       1.0  0.6855205259419036  0.052208836487722  0.9898601242228511  1.0000
  H   H12       1.0  0.18552753429887048  0.44778576931384606  0.510144488808372  1.0000
  C   C1        1.0  0.9944584249143841  0.6408191468818742  0.9356236112919875  1.0000
  C   C2        1.0  0.4944493993007341  0.8591730833144808  0.564375482201733  1.0000
  C   C3        1.0  0.0055366936541574  0.3591789067908521  0.0643779021671023  1.0000
  C   C4        1.0  0.5055570237366992  0.1408269059690781  0.4356239396517766  1.0000
  C   C5        1.0  0.9217949014928594  0.7317088299972951  0.0132381257602532  1.0000
  C   C6        1.0  0.42178388892622104  0.7682827287999102  0.4867616224418186  1.0000
  C   C7        1.0  0.07820667677108158  0.26828825909053927  0.9867632933057849  1.0000
  C   C8        1.0  0.5782241490391441  0.23171629376185615  0.5132384651620258  1.0000
  C   C9        1.0  0.2940106852467679  0.7638725319679266  0.9110449576091499  1.0000
  C   C10       1.0  0.7940062401075278  0.7361242240694493  0.5889553904357855  1.0000
  C   C11       1.0  0.7059795884527417  0.23611974042408684  0.0889537088304806  1.0000
  C   C12       1.0  0.2059937232646263  0.26387865688751333  0.4110450748108577  1.0000
  C   C13       1.0  0.08499272518107401  0.2394967054857418  0.6832110406315196  1.0000
  C   C14       1.0  0.5850147853051196  0.26051079430722973  0.8167872542095723  1.0000
  C   C15       1.0  0.9149700948476464  0.7605100486275019  0.3167844810039711  1.0000
  C   C16       1.0  0.41498840778174884  0.7394814823687028  0.1832098919560963  1.0000
  C   C17       1.0  0.22748572003018097  0.8584879751199139  0.9875614992823929  1.0000
  C   C18       1.0  0.7274742044737437  0.6415122311453701  0.5124356572478135  1.0000
  C   C19       1.0  0.7725110134215355  0.14150912031794147  0.0124376392764773  1.0000
  C   C20       1.0  0.2725241439549748  0.35848775386944703  0.48756528489889933  1.0000
  C   C21       1.0  0.49910880859281537  0.7823869131918357  0.8506079604175272  1.0000
  C   C22       1.0  0.9991106803012143  0.71761692142627  0.6493923030892932  1.0000
  C   C23       1.0  0.5008911547053144  0.21760728419730666  0.14939241522329647  1.0000
  C   C24       1.0  0.0008989725920826999  0.2823811344137042  0.3506084502648932  1.0000
  S   S1        1.0  0.058622067957202297  0.09654402941519892  0.6191091020916846  1.0000
  S   S2        1.0  0.5586241881791948  0.4034652237529313  0.8808929728178114  1.0000
  S   S3        1.0  0.9413665910114871  0.903470433133016  0.3808902156467298  1.0000
  S   S4        1.0  0.4413838497276359  0.5965289779049527  0.11910588252981573  1.0000
  N   N1        1.0  0.17837583740646318  0.6559670957338852  0.885100864076378  1.0000
  N   N2        1.0  0.6783691193983258  0.8440279672067419  0.614899991199195  1.0000
  N   N3        1.0  0.8216208961184178  0.34403288503241214  0.11490159838920283  1.0000
  N   N4        1.0  0.32164053347259614  0.15597009287669283  0.3850992418297139  1.0000
  N   N5        1.0  0.1011338283993055  0.3449075447666984  0.7271663211465624  1.0000
  N   N6        1.0  0.6011609020786963  0.155114525213321  0.7728335182290069  1.0000
  N   N7        1.0  0.8988354517637943  0.6551281199379488  0.2728419151903978  1.0000
  N   N8        1.0  0.39884713573690067  0.8448806601452572  0.22715859007357864  1.0000
  N   N9        1.0  0.03876422250523599  0.8416365665865368  0.038080836811388984  1.0000
  N   N10       1.0  0.5387549380299531  0.6583622371581795  0.4619175727407524  1.0000
  N   N11       1.0  0.9612357408385178  0.15836342055506947  0.9619193451790978  1.0000
  N   N12       1.0  0.46124987008297313  0.3416367853934759  0.5380825148502666  1.0000
  O   O1        1.0  0.965596368743263  0.9297707216113976  0.10786007606529319  1.0000
  O   O2        1.0  0.4655840943263668  0.5702307702996164  0.3921364033260701  1.0000
  O   O3        1.0  0.03440682446238699  0.07023023014544089  0.8921402003567425  1.0000
  O   O4        1.0  0.5344142541135425  0.4297692125934631  0.6078652989832847  1.0000
  O   O5        1.0  0.5543488299364512  0.6932977980323258  0.7818413835221494  1.0000
  O   O6        1.0  0.05435960927138689  0.8067100138494965  0.7181522067197292  1.0000
  O   O7        1.0  0.4456430586875583  0.30669544109159824  0.21815661717997162  1.0000
  O   O8        1.0  0.9456516585154303  0.19329384660009905  0.2818430318520555  1.0000
  O   O9        1.0  0.5993420605106436  0.8879031174691643  0.8748840731969595  1.0000
  O   O10       1.0  0.09934037797638239  0.6120991694477239  0.6251161493978756  1.0000
  O   O11       1.0  0.40065467295399065  0.11209300912010889  0.12511649126847862  1.0000
  O   O12       1.0  0.9006660450774006  0.38789791753355013  0.37488602985004604  1.0000
