data_image0
_chemical_formula_structural       Zr12H44C96O64F12
_chemical_formula_sum              "Zr12 H44 C96 O64 F12"
_cell_length_a       14.784421981218017
_cell_length_b       14.784507777107079
_cell_length_c       20.950390509420924
_cell_angle_alpha    90.00297169131197
_cell_angle_beta     90.00234710521455
_cell_angle_gamma    90.04164044994434

_space_group_name_H-M_alt    "P 1"
_space_group_IT_number       1

loop_
  _space_group_symop_operation_xyz
  'x, y, z'

loop_
  _atom_site_type_symbol
  _atom_site_label
  _atom_site_symmetry_multiplicity
  _atom_site_fract_x
  _atom_site_fract_y
  _atom_site_fract_z
  _atom_site_occupancy
  Zr  Zr1       1.0  0.3806357212455538  0.38039937906771826  0.5015931047099471  1.0000
  Zr  Zr2       1.0  0.6199569032729498  0.6198503188685863  0.4985045927777421  1.0000
  Zr  Zr3       1.0  0.50170579018215  0.5014432852585173  0.6195270958742397  1.0000
  Zr  Zr4       1.0  0.4984233466255645  0.4983605072132846  0.3805662908738512  1.0000
  Zr  Zr5       1.0  0.380965517147409  0.6198595793534452  0.5000948994325184  1.0000
  Zr  Zr6       1.0  0.6200953159278626  0.3808022045778614  0.49995269398326053  1.0000
  Zr  Zr7       1.0  0.12011849812398617  0.8808745202232371  1.6445171389999997e-05  1.0000
  Zr  Zr8       1.0  0.8789261068991506  0.1181645588646916  0.9999227381340673  1.0000
  Zr  Zr9       1.0  0.11834585746800738  0.1202812270954468  0.9999575927330896  1.0000
  Zr  Zr10      1.0  0.8810999986248758  0.8791543701850985  0.0002952016171207  1.0000
  Zr  Zr11      1.0  3.672334555200008e-05  0.9998733941201294  0.11935881590255798  1.0000
  Zr  Zr12      1.0  0.9997988710696146  0.9995030346166657  0.8807547894168122  1.0000
  H   H1        1.0  0.31264230876451643  0.5007953657478765  0.5947496307677793  1.0000
  H   H2        1.0  0.49919079625590956  0.687409600137357  0.4053912599994192  1.0000
  H   H3        1.0  0.6895011375756465  0.5008564894832119  0.593012397308982  1.0000
  H   H4        1.0  0.499349495100752  0.31059295367664663  0.40700676262293456  1.0000
  H   H5        1.0  0.1882147421819766  0.0010586878958847  0.0939828529718767  1.0000
  H   H6        1.0  0.8118935000261088  0.9985955688815978  0.09427649825518358  1.0000
  H   H7        1.0  0.9987700432544101  0.18769902265704266  0.9057995772585911  1.0000
  H   H8        1.0  0.0008108472387248998  0.8114349965132487  0.9060877270452962  1.0000
  H   H9        1.0  0.08250219989898258  0.35451047123433455  0.49597744202217336  1.0000
  H   H10       1.0  0.08832363162753858  0.6460076379770997  0.49702342029326013  1.0000
  H   H11       1.0  0.9124600262648028  0.35939656091571953  0.49520483134357113  1.0000
  H   H12       1.0  0.35439255722243956  0.08240298271422118  0.5038793466101408  1.0000
  H   H13       1.0  0.6458934233326941  0.08828521866835358  0.5037046785505765  1.0000
  H   H14       1.0  0.3593483454203222  0.9123424841968201  0.5030975027818555  1.0000
  H   H15       1.0  0.7143157282849941  0.27623691029568676  0.863793092586448  1.0000
  H   H16       1.0  0.8635336783313434  0.12963370651701206  0.7206257835038626  1.0000
  H   H17       1.0  0.6318667361538387  0.35938948314873187  0.7767062633446075  1.0000
  H   H18       1.0  0.27835997322701184  0.7152507371501854  0.1361897734616022  1.0000
  H   H19       1.0  0.12987638501360976  0.8632042577389998  0.279030632349901  1.0000
  H   H20       1.0  0.36010613354228127  0.6319051460035824  0.2234527193646372  1.0000
  H   H21       1.0  0.28510759240330685  0.722251395086971  0.8638833567554939  1.0000
  H   H22       1.0  0.13675226578400404  0.869988170450796  0.7208956510220332  1.0000
  H   H23       1.0  0.3682526237037535  0.640078167661514  0.7767023405646042  1.0000
  H   H24       1.0  0.7253061858557075  0.28732378987500345  0.1361468745482881  1.0000
  H   H25       1.0  0.8688473460794056  0.13498856485322358  0.2792327538865748  1.0000
  H   H26       1.0  0.6424961419237291  0.36998413337567365  0.223274922205583  1.0000
  H   H27       1.0  0.8673955360062635  0.8581086192271457  0.281365750989508  1.0000
  H   H28       1.0  0.7233562341747157  0.717801962659699  0.13236482779083047  1.0000
  H   H29       1.0  0.7790948266326863  0.7706352940045419  0.363181870509024  1.0000
  H   H30       1.0  0.14088617534419254  0.1325602060577182  0.7191271015994188  1.0000
  H   H31       1.0  0.2827675917093656  0.27606399824572486  0.8675132664695157  1.0000
  H   H32       1.0  0.22854977991821093  0.22020103219396248  0.6370183799507741  1.0000
  H   H33       1.0  0.7136206135930719  0.7235481621399913  0.8637511594875773  1.0000
  H   H34       1.0  0.8645066784523153  0.8695383631132287  0.7209877958492257  1.0000
  H   H35       1.0  0.6309112656116866  0.641209820314998  0.776380631430257  1.0000
  H   H36       1.0  0.27684715840134533  0.2859636509890251  0.1367140960887241  1.0000
  H   H37       1.0  0.12958425031302304  0.13559854486778278  0.2789619284874476  1.0000
  H   H38       1.0  0.35925210587541295  0.36821531197001184  0.22427220415509905  1.0000
  H   H39       1.0  0.4182516040618862  0.1453425230513758  0.995709487946847  1.0000
  H   H40       1.0  0.4110019549444103  0.8541122911852594  0.9964493240954367  1.0000
  H   H41       1.0  0.5882933223772467  0.13943523363278842  0.9959147006518235  1.0000
  H   H42       1.0  0.1455806891325792  0.5815678848985114  0.004112446811682  1.0000
  H   H43       1.0  0.8543607651267777  0.5877688011096751  0.0034765288429099003  1.0000
  H   H44       1.0  0.1401023485116824  0.4114350863329646  0.003956031363799199  1.0000
  C   C1        1.0  0.19670260607013285  0.4989619977080153  0.49790676500541753  1.0000
  C   C2        1.0  0.5024190047452066  0.8038869241405565  0.5020030958307018  1.0000
  C   C3        1.0  0.8039281223775844  0.5024494932637965  0.49543451701028113  1.0000
  C   C4        1.0  0.49896661664137537  0.19659867744701393  0.5044663363979325  1.0000
  C   C5        1.0  0.35397480861051617  0.34660721690039514  0.6540885413170087  1.0000
  C   C6        1.0  0.34287780031147  0.3498805938474163  0.3499146354139384  1.0000
  C   C7        1.0  0.6524264698739939  0.6457809391146583  0.34559239751933285  1.0000
  C   C8        1.0  0.6495302021706592  0.6568716031529006  0.6505744635839861  1.0000
  C   C9        1.0  0.35189612144193916  0.6572944254122676  0.6509811349872479  1.0000
  C   C10       1.0  0.6504955647920596  0.34457138908732793  0.6508995372081756  1.0000
  C   C11       1.0  0.6556752490497288  0.34979604523225305  0.3490394632978848  1.0000
  C   C12       1.0  0.3425167434512203  0.6481257580270422  0.349171182396013  1.0000
  C   C13       1.0  0.14950363468894068  0.8450079234525704  0.15141959645595185  1.0000
  C   C14       1.0  0.8510083857138966  0.15472915192589906  0.15153738555928697  1.0000
  C   C15       1.0  0.8438244075695776  0.14733422424067297  0.848305542929168  1.0000
  C   C16       1.0  0.15576242230438445  0.85126664135489  0.8485495282965375  1.0000
  C   C17       1.0  0.3033906760883552  0.001531388474092  0.9964087577602072  1.0000
  C   C18       1.0  0.0016192713628058  0.6958582243002167  0.0035864529190306  1.0000
  C   C19       1.0  0.6960535846465771  0.9961665098722958  0.9967386241397519  1.0000
  C   C20       1.0  0.9968371619398012  0.30318408752396664  0.0033497513217283998  1.0000
  C   C21       1.0  0.1481662773439325  0.1559205363815792  0.15147043537628235  1.0000
  C   C22       1.0  0.15471496412824587  0.14843252320275718  0.8482383124545193  1.0000
  C   C23       1.0  0.8451885153439914  0.8504444218300121  0.8486115179129357  1.0000
  C   C24       1.0  0.8524926337394659  0.8440783774525257  0.1521557534988602  1.0000
  C   C25       1.0  0.9049545989859809  0.5039370447594393  0.4953663178276385  1.0000
  C   C26       1.0  0.0955700408658231  0.49973347840763443  0.4965874404060955  1.0000
  C   C27       1.0  0.956575188311767  0.584036272365971  0.49582628041275706  1.0000
  C   C28       1.0  0.04623796823896239  0.41860021096656647  0.49601007174844364  1.0000
  C   C29       1.0  0.050433086287291894  0.5828067569054483  0.49648282193083293  1.0000
  C   C30       1.0  0.9523637315390516  0.421392170978713  0.49546381909468806  1.0000
  C   C31       1.0  0.5038693927779432  0.9049074279776902  0.5029858562926178  1.0000
  C   C32       1.0  0.4996414314233632  0.09548901868890879  0.5043513693122677  1.0000
  C   C33       1.0  0.5839677112999407  0.9565155289939753  0.50298939291892  1.0000
  C   C34       1.0  0.4185097324154511  0.046157912074214415  0.5039626637650085  1.0000
  C   C35       1.0  0.5827104485548844  0.050364480708765286  0.5037684620156212  1.0000
  C   C36       1.0  0.42131592056848877  0.9522858574347024  0.5033922046577145  1.0000
  C   C37       1.0  0.7007463793114963  0.29206013080888477  0.7005986146249298  1.0000
  C   C38       1.0  0.7934773591600147  0.19754908835009385  0.7976150324111374  1.0000
  C   C39       1.0  0.7667308270774027  0.22654605333288907  0.6861986376130744  1.0000
  C   C40       1.0  0.7282341127919165  0.26260220224914127  0.8136708280955247  1.0000
  C   C41       1.0  0.8127365900803126  0.17969111539370894  0.7335259637295266  1.0000
  C   C42       1.0  0.6828990094048846  0.308648399740754  0.7655482849593296  1.0000
  C   C43       1.0  0.29119477818820616  0.6994617459906748  0.2994033341431929  1.0000
  C   C44       1.0  0.19885878549949607  0.7939262534922873  0.2021687868615487  1.0000
  C   C45       1.0  0.22583554879459908  0.7656375485232375  0.31365536372427977  1.0000
  C   C46       1.0  0.2639944286977637  0.7287019813123267  0.1862738426743817  1.0000
  C   C47       1.0  0.18000088601598918  0.8124296411282329  0.2662239835927878  1.0000
  C   C48       1.0  0.3089879408227389  0.6826056107668138  0.23449088892626688  1.0000
  C   C49       1.0  0.30053038439693575  0.7086685454903402  0.7006887595932625  1.0000
  C   C50       1.0  0.20636099840672975  0.8014593852515689  0.7977965947180152  1.0000
  C   C51       1.0  0.23430760479084964  0.7739454231593895  0.6863479757413841  1.0000
  C   C52       1.0  0.27155510169995256  0.7363519665479146  0.8137836368184566  1.0000
  C   C53       1.0  0.18762925721050286  0.8199838172497067  0.7337353272750207  1.0000
  C   C54       1.0  0.31749374556396487  0.6911039673571793  0.7656091915606211  1.0000
  C   C55       1.0  0.708271761121729  0.2995918408083824  0.29935717579527926  1.0000
  C   C56       1.0  0.8019166970444899  0.2061115765805468  0.2022803461244322  1.0000
  C   C57       1.0  0.7730952651997995  0.23292245716163507  0.3137041190198886  1.0000
  C   C58       1.0  0.7380663728523088  0.27252355035063397  0.1862637536512395  1.0000
  C   C59       1.0  0.8194717877838399  0.18645106937781716  0.2663597138118377  1.0000
  C   C60       1.0  0.6923530862107439  0.3181037351119755  0.23441816089739825  1.0000
  C   C61       1.0  0.7028758010417774  0.6953039504802092  0.2945009538629506  1.0000
  C   C62       1.0  0.8013676228275628  0.7928837289818774  0.2019574433199409  1.0000
  C   C63       1.0  0.688500558478772  0.6820026679784873  0.2287871685268357  1.0000
  C   C64       1.0  0.8170659288331733  0.8082281497721198  0.2670889571880153  1.0000
  C   C65       1.0  0.7365062101760742  0.7295553502408934  0.1828249134093056  1.0000
  C   C66       1.0  0.7682347616800269  0.7598472465661814  0.31230847826495267  1.0000
  C   C67       1.0  0.30467161282432187  0.2961329551063371  0.7053164971000285  1.0000
  C   C68       1.0  0.20658229778081955  0.19867508685495494  0.7982662133807351  1.0000
  C   C69       1.0  0.31841683074393495  0.3104526407955603  0.7709816055339686  1.0000
  C   C70       1.0  0.1910947901658844  0.1826820920770231  0.733173353444286  1.0000
  C   C71       1.0  0.2705904640018844  0.2630041922806967  0.8170937430303269  1.0000
  C   C72       1.0  0.23962294606242546  0.23110008240747953  0.6878483413679105  1.0000
  C   C73       1.0  0.700134140095116  0.7087183735328819  0.7004334503755629  1.0000
  C   C74       1.0  0.7939822523521441  0.8014645864491214  0.797750206979842  1.0000
  C   C75       1.0  0.7666483392671707  0.7738730391575286  0.6861704787575744  1.0000
  C   C76       1.0  0.7279695674172897  0.7370345703739004  0.8136561279358574  1.0000
  C   C77       1.0  0.8132046009206061  0.8198445379076416  0.7337310128135995  1.0000
  C   C78       1.0  0.6822617195909686  0.6917377073441243  0.7653557755062934  1.0000
  C   C79       1.0  0.2911622936825679  0.29917380046465775  0.2999993298897792  1.0000
  C   C80       1.0  0.19793570443025738  0.20623638694902977  0.2024143260203317  1.0000
  C   C81       1.0  0.22586310258299133  0.2327743434724354  0.3139787693496672  1.0000
  C   C82       1.0  0.2629369175030405  0.2717584044180654  0.18675900242159568  1.0000
  C   C83       1.0  0.17956382825772715  0.1866947158314503  0.2663943711279586  1.0000
  C   C84       1.0  0.30840872406707825  0.3170998253331162  0.23512283555523075  1.0000
  C   C85       1.0  0.595038708257185  0.9950157754060597  0.9960908525532304  1.0000
  C   C86       1.0  0.4044824272000013  0.0002775610058237  0.995812595508724  1.0000
  C   C87       1.0  0.5430584265993517  0.91526815959849  0.9962561778791611  1.0000
  C   C88       1.0  0.45418773111605754  0.08109439152426749  0.9957102628355087  1.0000
  C   C89       1.0  0.44927318329319377  0.9170420494083802  0.9961374329229855  1.0000
  C   C90       1.0  0.5480048668914248  0.0777371005444678  0.9958719378696087  1.0000
  C   C91       1.0  0.9956604492204658  0.4042049753162118  0.0039463234524248  1.0000
  C   C92       1.0  0.0005355019040677998  0.5947662107420869  0.004067153661196699  1.0000
  C   C93       1.0  0.9158039412735802  0.4559199837671883  0.0037862137472047  1.0000
  C   C94       1.0  0.08144394515894499  0.5453411393853572  0.0041151507973467  1.0000
  C   C95       1.0  0.9173693727580029  0.5497295673358662  0.0038151622521454  1.0000
  C   C96       1.0  0.0783119908243251  0.4515100171715288  0.004045129873709599  1.0000
  O   O1        1.0  0.2356467462130283  0.4218650861085891  0.4996824939268549  1.0000
  O   O2        1.0  0.5782358958974001  0.7628484532863666  0.5004039482722148  1.0000
  O   O3        1.0  0.762783945914677  0.578268644421776  0.4950615706543359  1.0000
  O   O4        1.0  0.4218374373687438  0.23562843431360384  0.5046000616822467  1.0000
  O   O5        1.0  0.41201051431107766  0.4056041861771432  0.6712271355055179  1.0000
  O   O6        1.0  0.40161103625526096  0.40674584061034125  0.3298171405264227  1.0000
  O   O7        1.0  0.5932987317121672  0.5877054824767709  0.3284108457844042  1.0000
  O   O8        1.0  0.5927191528298366  0.5978541236044347  0.670622305777016  1.0000
  O   O9        1.0  0.3337679296088466  0.6740776011832993  0.59270971258956  1.0000
  O   O10       1.0  0.6683923574130474  0.3275789053496325  0.5926146524224619  1.0000
  O   O11       1.0  0.6731044964453686  0.33236058288548515  0.4073471398034981  1.0000
  O   O12       1.0  0.32637788025689224  0.6669775813259732  0.4074083948800152  1.0000
  O   O13       1.0  0.5941305868941241  0.4037534734312089  0.6706879811318274  1.0000
  O   O14       1.0  0.5959854884111094  0.4056226349131506  0.3292738809579275  1.0000
  O   O15       1.0  0.39986281498842396  0.589852415203069  0.3294276372183944  1.0000
  O   O16       1.0  0.40955257096477027  0.5993588090122229  0.6707538090330017  1.0000
  O   O17       1.0  0.3329811799818358  0.3272549295589897  0.5965433708244418  1.0000
  O   O18       1.0  0.6669719217959906  0.6737522541541024  0.5923551080729581  1.0000
  O   O19       1.0  0.671804033318132  0.6665171947300906  0.403083155721056  1.0000
  O   O20       1.0  0.3259208331357185  0.33239746288768407  0.4081831506632057  1.0000
  O   O21       1.0  0.57561912460514  0.23631195954924072  0.5035140144486902  1.0000
  O   O22       1.0  0.23650408623795727  0.5756039819310175  0.49810587754185315  1.0000
  O   O23       1.0  0.4248748282571454  0.7655923347459179  0.5019649958692085  1.0000
  O   O24       1.0  0.7657354832270824  0.42490179500475017  0.496748509450434  1.0000
  O   O25       1.0  0.49927718313857367  0.36450167808926176  0.43333279556507875  1.0000
  O   O26       1.0  0.6355408369678983  0.5007567798777045  0.5667390732785333  1.0000
  O   O27       1.0  0.49923968213994374  0.6336874600188834  0.4319029087521288  1.0000
  O   O28       1.0  0.36629657660094483  0.5005500969145302  0.5681680819830319  1.0000
  O   O29       1.0  0.5007890003314657  0.5993475896156326  0.549117300958592  1.0000
  O   O30       1.0  0.40042932456489666  0.49926969001479904  0.4510838613697388  1.0000
  O   O31       1.0  0.5982605663454662  0.49943622612670413  0.44985047352382407  1.0000
  O   O32       1.0  0.5007090135166975  0.40148776744849357  0.5501198612324529  1.0000
  O   O33       1.0  0.16946782169492985  0.8271037601633606  0.0934306620898937  1.0000
  O   O34       1.0  0.8304061100438744  0.17187736441493934  0.0935967154698361  1.0000
  O   O35       1.0  0.8247918811195587  0.165993570733427  0.9063054829293832  1.0000
  O   O36       1.0  0.17431241300286618  0.8319106443475377  0.9065278363644396  1.0000
  O   O37       1.0  0.2644310100849694  0.0785073167141377  0.9972196130296352  1.0000
  O   O38       1.0  0.924790463296574  0.7352825567598485  0.003012479008909  1.0000
  O   O39       1.0  0.737189016805594  0.9204596452799622  0.997385075681656  1.0000
  O   O40       1.0  0.07461748157449219  0.26527785385095376  0.0025051775053271  1.0000
  O   O41       1.0  0.09083698952760949  0.09668974685851592  0.1698629270878342  1.0000
  O   O42       1.0  0.09617717543937229  0.09088141363412211  0.8292945205419926  1.0000
  O   O43       1.0  0.9039945525490508  0.9083500361925727  0.8302285696545226  1.0000
  O   O44       1.0  0.9095848748129993  0.903196818828711  0.17108809757413468  1.0000
  O   O45       1.0  0.17208934175548043  0.1680074018332078  0.9064216089116286  1.0000
  O   O46       1.0  0.8276319048391796  0.8301263359750519  0.9065329623058673  1.0000
  O   O47       1.0  0.8342231231777433  0.8256171771140685  0.09396005422210857  1.0000
  O   O48       1.0  0.1672652189576027  0.17484109583138965  0.0935036424817071  1.0000
  O   O49       1.0  0.2638206249098545  0.9246597640742136  0.9970126766528011  1.0000
  O   O50       1.0  0.9211715782546503  0.26193030882105006  0.0028567402072071  1.0000
  O   O51       1.0  0.7340290652301459  0.0739026969266021  0.9974225021695985  1.0000
  O   O52       1.0  0.07859556631556329  0.7349892688934433  0.0029400858722184  1.0000
  O   O53       1.0  0.09684712172725797  0.9088359267293739  0.8301390950991275  1.0000
  O   O54       1.0  0.09182763070933929  0.9037836516247423  0.1698591130906664  1.0000
  O   O55       1.0  0.9090893876966104  0.09629447094656028  0.17001222876764638  1.0000
  O   O56       1.0  0.9031716855808297  0.090203390688032  0.8298235993085824  1.0000
  O   O57       1.0  0.0008255937018191001  0.8647580260789597  0.933008488834261  1.0000
  O   O58       1.0  0.998967181807721  0.1342914668198887  0.9326372421635297  1.0000
  O   O59       1.0  0.8652895546182788  0.9988304290179145  0.0674319522726705  1.0000
  O   O60       1.0  0.1348124063183107  0.0008529678352076  0.0671386626596373  1.0000
  O   O61       1.0  0.9991721870344177  0.09886124123313067  0.0493036575627883  1.0000
  O   O62       1.0  0.0008069002180377999  0.9005712179857425  0.0496599774593278  1.0000
  O   O63       1.0  0.9007937356254485  0.9988351778047574  0.9506813966137386  1.0000
  O   O64       1.0  0.09918276325023356  0.0003976356596381999  0.9505493573046878  1.0000
  F   F1        1.0  0.9166144002221941  0.6664661686274371  0.49591074301310556  1.0000
  F   F2        1.0  0.6663703334714838  0.9165880657127661  0.5019760302951823  1.0000
  F   F3        1.0  0.788976242142887  0.20640445015887823  0.6250765794422009  1.0000
  F   F4        1.0  0.2046166886520098  0.7870910304152118  0.3747125455285456  1.0000
  F   F5        1.0  0.2126575252771801  0.7948484222107908  0.6252694702762439  1.0000
  F   F6        1.0  0.7930064225316968  0.21035018842813002  0.3748069119586148  1.0000
  F   F7        1.0  0.6262551166483447  0.6217763692122131  0.2072017957355499  1.0000
  F   F8        1.0  0.3792721529694845  0.37215768070161903  0.7924319042863742  1.0000
  F   F9        1.0  0.788746850969801  0.7943150907356936  0.6252486809633168  1.0000
  F   F10       1.0  0.20532497490630416  0.21034564754220503  0.37501129111961967  1.0000
  F   F11       1.0  0.5825530742545836  0.8324877500097326  0.9967936475589951  1.0000
  F   F12       1.0  0.8331355755884217  0.41614155857303803  0.0032850139154021  1.0000
