data_image0
_chemical_formula_structural       Cu2H28C32N4O8
_chemical_formula_sum              "Cu2 H28 C32 N4 O8"
_cell_length_a       8.608004290773447
_cell_length_b       9.727802423449782
_cell_length_c       10.197943196083386
_cell_angle_alpha    92.21688237858491
_cell_angle_beta     113.3245955230537
_cell_angle_gamma    111.68855416686584

_space_group_name_H-M_alt    "P 1"
_space_group_IT_number       1

loop_
  _space_group_symop_operation_xyz
  'x, y, z'

loop_
  _atom_site_type_symbol
  _atom_site_label
  _atom_site_symmetry_multiplicity
  _atom_site_fract_x
  _atom_site_fract_y
  _atom_site_fract_z
  _atom_site_occupancy
  Cu  Cu1       1.0  0.5529870808049964  0.6209484243117698  0.9014830330121628  1.0000
  Cu  Cu2       1.0  0.4470155230913803  0.3790571195732325  0.09851689951103279  1.0000
  H   H1        1.0  0.49331103437173596  0.902349059878723  0.9290540503401203  1.0000
  H   H2        1.0  0.5066922825038418  0.09765542173526137  0.07094116578861794  1.0000
  H   H3        1.0  0.2859015145684083  0.010603003391949495  0.7580878896744141  1.0000
  H   H4        1.0  0.7140994191250485  0.9893969299502954  0.24190728796040878  1.0000
  H   H5        1.0  0.10252632442101368  0.8789400075928667  0.4912367924691097  1.0000
  H   H6        1.0  0.8974676657418286  0.12105875423110038  0.5087609068477904  1.0000
  H   H7        1.0  0.11779407431035337  0.6409590727521958  0.41062525355390284  1.0000
  H   H8        1.0  0.882196207061938  0.3590374390572676  0.5893710945676391  1.0000
  H   H9        1.0  0.14030071697847996  0.4362313135635886  0.36409349364083715  1.0000
  H   H10       1.0  0.8596889343880535  0.5637640019568406  0.6359065080925818  1.0000
  H   H11       1.0  0.1778640692098605  0.19425863857033923  0.3376547715528417  1.0000
  H   H12       1.0  0.8221255730339436  0.8057366611578018  0.6623462070433279  1.0000
  H   H13       1.0  0.39183917239817845  0.13818850738602603  0.5566654556383668  1.0000
  H   H14       1.0  0.6081528530277538  0.8618113406138547  0.44333556145171843  1.0000
  H   H15       1.0  0.5473646679123902  0.3204641691844259  0.8001676754363558  1.0000
  H   H16       1.0  0.4526318257658488  0.6795345448297425  0.19983282112308134  1.0000
  H   H17       1.0  0.2363705351503  0.9037212829943256  0.26616366449400897  1.0000
  H   H18       1.0  0.7636377987477091  0.09628071810168848  0.7338438982393074  1.0000
  H   H19       1.0  0.22419299160529252  0.7190011375538248  0.2236578785366987  1.0000
  H   H20       1.0  0.7758161473681042  0.28099755850342223  0.7763429281568153  1.0000
  H   H21       1.0  0.2301818802039364  0.9487735051495106  0.02600567907106207  1.0000
  H   H22       1.0  0.7698176457765555  0.05122858431934669  0.9739969776271524  1.0000
  H   H23       1.0  0.2366413873150179  0.7699899710189583  0.991052386486729  1.0000
  H   H24       1.0  0.7633743268042821  0.23001886762757093  0.008954057106088023  1.0000
  H   H25       1.0  0.8977738320516266  0.6452877003332345  0.876934910371631  1.0000
  H   H26       1.0  0.1022435860524382  0.35470748408668834  0.12307143946074461  1.0000
  H   H27       1.0  0.8898433491100519  0.8256226787860681  0.9001001447298834  1.0000
  H   H28       1.0  0.11015978998683096  0.17436697621717195  0.0998972326290115  1.0000
  C   C1        1.0  0.4076564361786197  0.8504257004149379  0.8131718856337785  1.0000
  C   C2        1.0  0.5923432183889473  0.14957420945533068  0.1868248239680526  1.0000
  C   C3        1.0  0.2956278348184893  0.9103356840707374  0.7173012162324143  1.0000
  C   C4        1.0  0.7043725053601122  0.0896631161516481  0.28269370756324735  1.0000
  C   C5        1.0  0.19119555052812845  0.8353586937678301  0.5704604045972133  1.0000
  C   C6        1.0  0.8087997278833186  0.1646401073204018  0.4295347858899135  1.0000
  C   C7        1.0  0.20013320634153323  0.7026462891143621  0.5245298193110628  1.0000
  C   C8        1.0  0.7998539415096032  0.2973490742158659  0.4754673851798117  1.0000
  C   C9        1.0  0.3130119683888993  0.6477733301291481  0.6273909327461739  1.0000
  C   C10       1.0  0.6869782856152113  0.35222313430343627  0.37260834596364134  1.0000
  C   C11       1.0  0.3270273582657026  0.5051155565461656  0.5955323845206096  1.0000
  C   C12       1.0  0.6729660110141112  0.49488202478106286  0.40446799154540264  1.0000
  C   C13       1.0  0.23257939196562918  0.40851724359011843  0.4574285879387149  1.0000
  C   C14       1.0  0.7674145708290324  0.5914814708569763  0.5425720419664586  1.0000
  C   C15       1.0  0.25482429062912354  0.2747559258476285  0.44251030510898204  1.0000
  C   C16       1.0  0.7451646933718337  0.7252405309052746  0.5574895287050836  1.0000
  C   C17       1.0  0.3716305977305154  0.24165259386246152  0.5646407184837869  1.0000
  C   C18       1.0  0.6283670091267054  0.7583506607437653  0.4353603716738164  1.0000
  C   C19       1.0  0.4596231034563374  0.34171817913360764  0.6994769628817963  1.0000
  C   C20       1.0  0.5403745681288754  0.658282785327998  0.3005250182187424  1.0000
  C   C21       1.0  0.8553123324882961  0.5696787456279749  0.1101534441627621  1.0000
  C   C22       1.0  0.14468536646509725  0.4303222662105026  0.8898456063494964  1.0000
  C   C23       1.0  0.8705478764738147  0.8278798590598057  0.15346948412433653  1.0000
  C   C24       1.0  0.129458017767881  0.17212230039204704  0.8465284433271167  1.0000
  C   C25       1.0  0.9566733492459175  0.7344668722321968  0.10604496471340487  1.0000
  C   C26       1.0  0.043333815867846716  0.2655328942086754  0.8939601366160518  1.0000
  C   C27       1.0  0.17156229830742123  0.8021736647049876  0.179557178399854  1.0000
  C   C28       1.0  0.8284498456000479  0.1978283594300763  0.8204487190207176  1.0000
  C   C29       1.0  0.17235684358252007  0.8292691640908955  0.030999420597801478  1.0000
  C   C30       1.0  0.8276496541656684  0.17073174358244358  0.9690055128123165  1.0000
  C   C31       1.0  0.9567909250286915  0.7533321611415146  0.9536494011544651  1.0000
  C   C32       1.0  0.04322138482567074  0.24666534587346675  0.04635437070093217  1.0000
  N   N1        1.0  0.41644699215600406  0.7233817338663896  0.7690947727657048  1.0000
  N   N2        1.0  0.5835488615248465  0.2766181687571247  0.2309026252861131  1.0000
  N   N3        1.0  0.43734391562188085  0.46981005552723326  0.71388141271094  1.0000
  N   N4        1.0  0.5626487680468982  0.5301886354478853  0.28612074916124897  1.0000
  O   O1        1.0  0.6780880360125678  0.5032996074165439  0.017906562018694644  1.0000
  O   O2        1.0  0.3219126396378016  0.4967070858135401  0.9820927808266404  1.0000
  O   O3        1.0  0.9361996458419596  0.5033572188050498  0.19469055988938777  1.0000
  O   O4        1.0  0.06379805311143373  0.496643793033428  0.8053084906228706  1.0000
  O   O5        1.0  0.6964490516537225  0.7954779852873272  0.06796242984961516  1.0000
  O   O6        1.0  0.30356115401610845  0.20452757309118394  0.9320361257736068  1.0000
  O   O7        1.0  0.9647019269464963  0.9291564201821673  0.2672157348183505  1.0000
  O   O8        1.0  0.03530596939192068  0.07084231557227837  0.7327826963911336  1.0000
