data_image0
_chemical_formula_structural       Al4H52C76N8O40
_chemical_formula_sum              "Al4 H52 C76 N8 O40"
_cell_length_a       6.653033865032441
_cell_length_b       23.2688581826614
_cell_length_c       26.38637641957469
_cell_angle_alpha    78.75974225316287
_cell_angle_beta     89.87789136541788
_cell_angle_gamma    90.2362873065035

_space_group_name_H-M_alt    "P 1"
_space_group_IT_number       1

loop_
  _space_group_symop_operation_xyz
  'x, y, z'

loop_
  _atom_site_type_symbol
  _atom_site_label
  _atom_site_symmetry_multiplicity
  _atom_site_fract_x
  _atom_site_fract_y
  _atom_site_fract_z
  _atom_site_occupancy
  Al  Al1       1.0  0.7770788000751596  0.7498830359922907  0.2513157404834132  1.0000
  Al  Al2       1.0  0.2162471516418165  0.2509243016662238  0.7507027064703138  1.0000
  Al  Al3       1.0  0.2769673476860888  0.7515659051274496  0.24976363707183682  1.0000
  Al  Al4       1.0  0.7160028655758169  0.2509803763628042  0.7504136080095164  1.0000
  H   H1        1.0  0.2502134217845295  0.3200928945813004  0.8851616774512365  1.0000
  H   H2        1.0  0.7316004460744951  0.6130674255745489  0.16931426092324392  1.0000
  H   H3        1.0  0.7620923127868979  0.11747007744583017  0.6680498536866112  1.0000
  H   H4        1.0  0.22456773638160854  0.8856829304070857  0.3325433450540062  1.0000
  H   H5        1.0  0.24216006890080174  0.3821936406128612  0.952463432540725  1.0000
  H   H6        1.0  0.7379274778074179  0.5483369679693623  0.10388509254393338  1.0000
  H   H7        1.0  0.7623420074072983  0.05456424256794183  0.6012019048752107  1.0000
  H   H8        1.0  0.2253660992434732  0.9500187893489168  0.398248830620524  1.0000
  H   H9        1.0  0.6850626019938206  0.393048671821134  0.8258250501170394  1.0000
  H   H10       1.0  0.32348473909556935  0.6762120156429176  0.12069191298728302  1.0000
  H   H11       1.0  0.1614626000155397  0.1731259869409598  0.6233354884727973  1.0000
  H   H12       1.0  0.8236087927321025  0.8294808607603908  0.37829353147893124  1.0000
  H   H13       1.0  0.0292128799615554  0.5401219149142945  0.9076923327124504  1.0000
  H   H14       1.0  0.9719842169076857  0.45766388483535536  0.09533061663472608  1.0000
  H   H15       1.0  0.5724160261346043  0.963689584669751  0.5917919809890647  1.0000
  H   H16       1.0  0.41650423435218903  0.03999254225741571  0.4073930874196278  1.0000
  H   H17       1.0  0.2711491986083274  0.4274266851333408  0.5262847630331393  1.0000
  H   H18       1.0  0.7312873163187846  0.5738742213351102  0.47531128559617025  1.0000
  H   H19       1.0  0.7713777514315795  0.07382052565495206  0.974234511832435  1.0000
  H   H20       1.0  0.2333989729288888  0.9247865059266686  0.024170729603717703  1.0000
  H   H21       1.0  0.8040951150037687  0.6430799335043105  0.989785210924687  1.0000
  H   H22       1.0  0.8326619323093639  0.644782843202229  0.9223592285058401  1.0000
  H   H23       1.0  0.05754463467791741  0.7237686162958142  0.9842800386928375  1.0000
  H   H24       1.0  0.08645005462464893  0.7262022667269292  0.9173317711795403  1.0000
  H   H25       1.0  0.7196204180938822  0.7540384313671706  0.9031406929963592  1.0000
  H   H26       1.0  0.8480034551556984  0.8049144672566158  0.9337644522332625  1.0000
  H   H27       1.0  0.6889804423984034  0.7504912482591448  0.9704535952316746  1.0000
  H   H28       1.0  0.7398787135681532  0.31160782031417966  0.041926878015800605  1.0000
  H   H29       1.0  0.6673324042046932  0.3752970555481527  0.9961674731478565  1.0000
  H   H30       1.0  0.6504297928041114  0.3603610690268367  0.1142912647270791  1.0000
  H   H31       1.0  0.6002442985612576  0.42689019429362657  0.0705630695671076  1.0000
  H   H32       1.0  0.317086221600711  0.3822624038575667  0.03171680099908511  1.0000
  H   H33       1.0  0.277340825654143  0.37153762780039995  0.09886628256779771  1.0000
  H   H34       1.0  0.3626372970744498  0.3125532090260492  0.07095254541459889  1.0000
  H   H35       1.0  0.3225833236115179  0.8598487366471301  0.511412991544482  1.0000
  H   H36       1.0  0.3595936302690816  0.8552675765220811  0.5789064451023975  1.0000
  H   H37       1.0  0.5725977550204746  0.7799949378077145  0.5116452355803176  1.0000
  H   H38       1.0  0.6109791928509836  0.7745660180362748  0.5786484374978897  1.0000
  H   H39       1.0  0.24486458291246294  0.7465872301210509  0.5958112219652563  1.0000
  H   H40       1.0  0.36371768516082886  0.6974808068160384  0.5616419200763119  1.0000
  H   H41       1.0  0.20376639881298086  0.7534989378356368  0.5285141966872616  1.0000
  H   H42       1.0  0.12138999204699273  0.16269082950272915  0.4386969999413992  1.0000
  H   H43       1.0  0.1493602405128271  0.09333885108404157  0.42076858937368655  1.0000
  H   H44       1.0  0.42287520158770775  0.20105254267344463  0.38669498368781774  1.0000
  H   H45       1.0  0.45713410354499473  0.13322595001933024  0.3675673453949956  1.0000
  H   H46       1.0  0.11678966033767323  0.142965297131461  0.3238998654777419  1.0000
  H   H47       1.0  0.2725973653684619  0.20398255391993564  0.2986903626511577  1.0000
  H   H48       1.0  0.0795493428284999  0.21077811940723729  0.34366227921183423  1.0000
  H   H49       1.0  0.5217394206586549  0.6767628538985164  0.2784582447014116  1.0000
  H   H50       1.0  0.4659186565933454  0.32706597137924814  0.7264992259859467  1.0000
  H   H51       1.0  0.024067011654104  0.8249827712346233  0.222930374033254  1.0000
  H   H52       1.0  0.9656245694189138  0.1751387151027046  0.7755479325136464  1.0000
  C   C1        1.0  0.5311829459430086  0.8245508521625524  0.171841556773316  1.0000
  C   C2        1.0  0.4723725150835918  0.17649571494877145  0.8281992707649903  1.0000
  C   C3        1.0  0.027055191100188808  0.6763347243430003  0.32876991162170544  1.0000
  C   C4        1.0  0.9609241935048516  0.3249468377991462  0.6729347849558848  1.0000
  C   C5        1.0  0.5264207991211762  0.816754234536468  0.31094496801263466  1.0000
  C   C6        1.0  0.4579654380636314  0.18604442350903133  0.6901341664981968  1.0000
  C   C7        1.0  0.028258647952967002  0.6851291852172563  0.18976057020479692  1.0000
  C   C8        1.0  0.9737073280847427  0.31564712483015706  0.8112422002722895  1.0000
  C   C9        1.0  0.12496668532562442  0.3495517312232649  0.8873691254919578  1.0000
  C   C10       1.0  0.8624989263740092  0.6120901747068997  0.14460674144034869  1.0000
  C   C11       1.0  0.6306430900328837  0.11523234053987609  0.6439152155750419  1.0000
  C   C12       1.0  0.35598309112153004  0.8882019879900652  0.3566067954255132  1.0000
  C   C13       1.0  0.11970584338696001  0.38392796684605196  0.9248880282206997  1.0000
  C   C14       1.0  0.8671610967050896  0.5757882285623666  0.1085439613853225  1.0000
  C   C15       1.0  0.6298176596756662  0.07986274287470252  0.6070868844624969  1.0000
  C   C16       1.0  0.35751525705539683  0.9243581498665561  0.392767555848323  1.0000
  C   C17       1.0  0.9612520354149724  0.42294220821280953  0.9275326172485379  1.0000
  C   C18       1.0  0.0334135405339779  0.5746619670654951  0.07574260768159041  1.0000
  C   C19       1.0  0.46301009003823884  0.07691320721019677  0.5750518888002674  1.0000
  C   C20       1.0  0.5238067298317333  0.9273307730587275  0.42500338279540983  1.0000
  C   C21       1.0  0.8068262790022018  0.42496719847827086  0.8909327805847197  1.0000
  C   C22       1.0  0.19455577877619848  0.6124836637765583  0.08090498444728672  1.0000
  C   C23       1.0  0.2963142748895891  0.11166473903885084  0.5822561816291056  1.0000
  C   C24       1.0  0.6892162001079428  0.8916077507962611  0.41879318466979504  1.0000
  C   C25       1.0  0.8079878253154291  0.3904920027729729  0.853330820544315  1.0000
  C   C26       1.0  0.19418568332496733  0.6484186153012813  0.1173034639634096  1.0000
  C   C27       1.0  0.2938473954534686  0.14724072724813905  0.6187970067162213  1.0000
  C   C28       1.0  0.6916824112718133  0.8557627458241582  0.38233817160659106  1.0000
  C   C29       1.0  0.9682870961168818  0.35246720059118525  0.8514962935318735  1.0000
  C   C30       1.0  0.0276356873858035  0.6480640084480455  0.14968164362666414  1.0000
  C   C31       1.0  0.4618480468589326  0.1489706677326481  0.6502277971355852  1.0000
  C   C32       1.0  0.5244541382262328  0.8541324617671222  0.3507340329143673  1.0000
  C   C33       1.0  0.012968592399573703  0.5218019732852214  0.948815398438505  1.0000
  C   C34       1.0  0.983183618769381  0.4763227498520592  0.0541799491172767  1.0000
  C   C35       1.0  0.5394358933703245  0.9812298850302096  0.5512899370213092  1.0000
  C   C36       1.0  0.4464986686090883  0.023364340023732694  0.44815765417119025  1.0000
  C   C37       1.0  0.03979548760821672  0.5585271855851559  0.9841271952813881  1.0000
  C   C38       1.0  0.960524780402281  0.43923041072376634  0.0189923809677381  1.0000
  C   C39       1.0  0.5540282552088344  0.9441524639181793  0.5160213019253634  1.0000
  C   C40       1.0  0.42568071665773033  0.06002669620824721  0.48384358976653635  1.0000
  C   C41       1.0  0.023440824512022097  0.5360578022375933  0.03750466592263281  1.0000
  C   C42       1.0  0.9733040784763959  0.46198599283422936  0.9656228196417375  1.0000
  C   C43       1.0  0.5114283038054523  0.9653940704880382  0.4635562052235969  1.0000
  C   C44       1.0  0.4749231085829848  0.03920990789526259  0.5361987967618091  1.0000
  C   C45       1.0  0.17720131754941806  0.5038492001784148  0.47263546046245614  1.0000
  C   C46       1.0  0.8251270137754929  0.49745931945847127  0.528964844816926  1.0000
  C   C47       1.0  0.6777180424466354  0.9965696950969869  0.027352835821218894  1.0000
  C   C48       1.0  0.32709036085524446  0.0020645386226832026  0.9710738782761583  1.0000
  C   C49       1.0  0.0281479912956115  0.5467095168278392  0.4565836886182453  1.0000
  C   C50       1.0  0.9740099424481914  0.45450032387088146  0.5449774021709429  1.0000
  C   C51       1.0  0.5292523450444835  0.9529876617492758  0.0431189847411133  1.0000
  C   C52       1.0  0.47532366443987695  0.0457513506575182  0.9553494054334949  1.0000
  C   C53       1.0  0.8508884782919637  0.5422070051088993  0.4863540895824486  1.0000
  C   C54       1.0  0.1515103342372939  0.45907283414283023  0.5152358996249831  1.0000
  C   C55       1.0  0.35261761970216554  0.9569986013152768  0.013337161485367203  1.0000
  C   C56       1.0  0.6521231623359187  0.041629430884768254  0.9850722416411556  1.0000
  C   C57       1.0  0.0411414495666946  0.5918605093542553  0.4124375898851582  1.0000
  C   C58       1.0  0.9593805148298248  0.40915828687307243  0.5889201550705466  1.0000
  C   C59       1.0  0.542829190290675  0.9078526553317157  0.0871905717374233  1.0000
  C   C60       1.0  0.46141791848081243  0.09127087261798292  0.9115351356075082  1.0000
  C   C61       1.0  0.9651429919390752  0.3697393753339853  0.6266924524240237  1.0000
  C   C62       1.0  0.030972921052928405  0.6312298748231627  0.3747172314812488  1.0000
  C   C63       1.0  0.4690656078047511  0.1309778553361767  0.8739942001111486  1.0000
  C   C64       1.0  0.5351785272944198  0.8688461569620355  0.1252569914145383  1.0000
  C   C65       1.0  0.9095568154150444  0.6540120780021753  0.9570026387919127  1.0000
  C   C66       1.0  0.9771999845457489  0.7173676343482  0.9493417032552999  1.0000
  C   C67       1.0  0.7985950750081088  0.7590748494087265  0.9386090909336248  1.0000
  C   C68       1.0  0.7281196986778655  0.35961665883842636  0.0352591787234005  1.0000
  C   C69       1.0  0.5931276108433039  0.3788260866572556  0.0754084410563038  1.0000
  C   C70       1.0  0.37642966038350073  0.36004980145831667  0.0691374231290425  1.0000
  C   C71       1.0  0.4322052718930962  0.8479568712443494  0.5429948333229716  1.0000
  C   C72       1.0  0.49792557178231794  0.7848795822414941  0.547836768205414  1.0000
  C   C73       1.0  0.3177127307574636  0.7432397654219257  0.5590376542675698  1.0000
  C   C74       1.0  0.23163221276705312  0.13262758513135248  0.4268996247279376  1.0000
  C   C75       1.0  0.3420935150347191  0.1626484347827173  0.3782423559895349  1.0000
  C   C76       1.0  0.1949391785231072  0.18111781603606406  0.3336521588567365  1.0000
  N   N1        1.0  0.6301365957525676  0.4630245519523656  0.8917803216641502  1.0000
  N   N2        1.0  0.37959768026891544  0.6132414425615521  0.0498975751288455  1.0000
  N   N3        1.0  0.1090208430110096  0.10922514307807062  0.553072038487791  1.0000
  N   N4        1.0  0.8763728339470165  0.8931869606110396  0.4484203533811666  1.0000
  N   N5        1.0  0.37055447224211957  0.5058283555759004  0.4447139342824116  1.0000
  N   N6        1.0  0.6313651826900967  0.4956408021122556  0.5567298426060603  1.0000
  N   N7        1.0  0.8701582741340134  0.9952108455431483  0.05535197517505001  1.0000
  N   N8        1.0  0.1343177190372842  0.0034506441239799553  0.9431947978436382  1.0000
  O   O1        1.0  0.3561842253758414  0.803976553696252  0.2939004259051714  1.0000
  O   O2        1.0  0.623127382657053  0.19333216278602816  0.7126638156938369  1.0000
  O   O3        1.0  0.858492994488735  0.6963688006932357  0.20799385840384593  1.0000
  O   O4        1.0  0.1437282270021569  0.29447682307664275  0.8025719407841692  1.0000
  O   O5        1.0  0.7003943677257709  0.8064584892619845  0.19066875534646496  1.0000
  O   O6        1.0  0.30530970847017613  0.18830491327197044  0.8052573556906211  1.0000
  O   O7        1.0  0.1966015434404156  0.6937576184493464  0.30910154690317176  1.0000
  O   O8        1.0  0.7905819651593972  0.3018798890009933  0.6863065726812536  1.0000
  O   O9        1.0  0.6975781247066452  0.8013556779337774  0.29656759468957716  1.0000
  O   O10       1.0  0.28824644207888644  0.20708769607541905  0.6994352698631944  1.0000
  O   O11       1.0  0.1993684159787961  0.7017044502500625  0.2032073506309473  1.0000
  O   O12       1.0  0.8094248626934686  0.30881247611804946  0.7882730697464025  1.0000
  O   O13       1.0  0.8547209598955804  0.6939242404642127  0.31182389474435723  1.0000
  O   O14       1.0  0.1271816483472961  0.3134507580838957  0.6963762372554498  1.0000
  O   O15       1.0  0.35837150709479465  0.8084536811093199  0.18996105537480898  1.0000
  O   O16       1.0  0.6423890967719998  0.1998543915750233  0.814828939340977  1.0000
  O   O17       1.0  0.5256648141003667  0.7150504055676522  0.25592928919316904  1.0000
  O   O18       1.0  0.4669168040134295  0.28715451536172754  0.7459492823108889  1.0000
  O   O19       1.0  0.0262349241651236  0.7864829236107267  0.24508714221283162  1.0000
  O   O20       1.0  0.9652547389652071  0.21483784871182363  0.7556662989616784  1.0000
  O   O21       1.0  0.5607292528412202  0.4874416264660083  0.8495081896720506  1.0000
  O   O22       1.0  0.5596342994661825  0.46693294853098166  0.9345365994271903  1.0000
  O   O23       1.0  0.4680353849449973  0.6609300669954691  0.0370097284163151  1.0000
  O   O24       1.0  0.4396566503245867  0.5660336145720349  0.040511707068432705  1.0000
  O   O25       1.0  0.051166889256357706  0.06036192980069902  0.5466617335893033  1.0000
  O   O26       1.0  0.017008810290441503  0.15573441468873034  0.5384260583926235  1.0000
  O   O27       1.0  0.9684767228879495  0.8464548608601485  0.46171328313195664  1.0000
  O   O28       1.0  0.9347628479242402  0.9414786385677092  0.45599846124457605  1.0000
  O   O29       1.0  0.08585846804200513  0.6169000478057213  0.9671065042230466  1.0000
  O   O30       1.0  0.9332436060696665  0.3799554001102976  0.037421187591370114  1.0000
  O   O31       1.0  0.6070739337869427  0.8861954084237665  0.5325442794308018  1.0000
  O   O32       1.0  0.3628855369530157  0.11687492053852819  0.47085848865770435  1.0000
  O   O33       1.0  0.469320813957154  0.45985573734149904  0.4506807455814581  1.0000
  O   O34       1.0  0.4236621018081905  0.5532509130707125  0.4180090002323452  1.0000
  O   O35       1.0  0.5323583050630917  0.5415995672702748  0.550317377424527  1.0000
  O   O36       1.0  0.5781225816090655  0.4483432696107811  0.5835963586393832  1.0000
  O   O37       1.0  0.9646237663543431  0.0420492183481471  0.05103652467470711  1.0000
  O   O38       1.0  0.9267247523100722  0.9474584521895789  0.08041677341717698  1.0000
  O   O39       1.0  0.0407652034514285  0.9565221473490052  0.9471567097409804  1.0000
  O   O40       1.0  0.07671485476480912  0.05135823382472185  0.9186581380110397  1.0000
