data_image0
_chemical_formula_structural       Zn4H20C32N8O16
_chemical_formula_sum              "Zn4 H20 C32 N8 O16"
_cell_length_a       8.272472962112023
_cell_length_b       9.210909188972519
_cell_length_c       12.432691770197673
_cell_angle_alpha    104.62525580392288
_cell_angle_beta     90.00049917439932
_cell_angle_gamma    89.99953071199312

_space_group_name_H-M_alt    "P 1"
_space_group_IT_number       1

loop_
  _space_group_symop_operation_xyz
  'x, y, z'

loop_
  _atom_site_type_symbol
  _atom_site_label
  _atom_site_symmetry_multiplicity
  _atom_site_fract_x
  _atom_site_fract_y
  _atom_site_fract_z
  _atom_site_occupancy
  Zn  Zn1       1.0  0.0538782512620983  0.868957176299887  0.8796629127920498  1.0000
  Zn  Zn2       1.0  0.5538806507557298  0.6310408742337119  0.12033323082118842  1.0000
  Zn  Zn3       1.0  0.9461175409176121  0.1310456176678869  0.1203375661068762  1.0000
  Zn  Zn4       1.0  0.4461175591211983  0.3689562631881814  0.8796693652324451  1.0000
  H   H1        1.0  0.3350665053670951  0.6979949819083943  0.625787097675179  1.0000
  H   H2        1.0  0.8350756188326969  0.8020059998944479  0.3742071722216238  1.0000
  H   H3        1.0  0.6649329133326914  0.30200216718943557  0.3742146962785  1.0000
  H   H4        1.0  0.164928635083065  0.19800249730558764  0.6257879811363765  1.0000
  H   H5        1.0  0.7984190684853162  0.4963675532807059  0.5167233856680369  1.0000
  H   H6        1.0  0.29842189588144663  0.003638623501530001  0.4832779218996421  1.0000
  H   H7        1.0  0.2015815590557253  0.5036273402057179  0.48327877388646817  1.0000
  H   H8        1.0  0.7015799403996611  0.9963664844538587  0.516718180901421  1.0000
  H   H9        1.0  0.921339024412717  0.6585212318497542  0.6623257035280689  1.0000
  H   H10       1.0  0.421344008312964  0.8414679647516935  0.3376715841959381  1.0000
  H   H11       1.0  0.07866160307860781  0.34148379435325193  0.3376760139889541  1.0000
  H   H12       1.0  0.5786614545949222  0.15851901657397605  0.6623330581168076  1.0000
  H   H13       1.0  0.6801169194466751  0.018301697577278703  0.8798204513633721  1.0000
  H   H14       1.0  0.18011039762666317  0.4816961479313948  0.12018098477579292  1.0000
  H   H15       1.0  0.3198764550652697  0.9817011197562524  0.12017842332478779  1.0000
  H   H16       1.0  0.8198866034347817  0.5182987338860416  0.8798219768732309  1.0000
  H   H17       1.0  0.469253715180841  0.8732238568327021  0.7456615701341605  1.0000
  H   H18       1.0  0.9692567687900464  0.6267830393699471  0.25433782076446937  1.0000
  H   H19       1.0  0.5307420770246409  0.1267744259192085  0.2543396399609819  1.0000
  H   H20       1.0  0.0307402321794115  0.3732231788841817  0.7456593023806732  1.0000
  C   C1        1.0  0.4087675847637514  0.6121261664923809  0.5709247782540672  1.0000
  C   C2        1.0  0.9087754442986054  0.88787550230704  0.4290708432370494  1.0000
  C   C3        1.0  0.5912282074362167  0.3878721279389411  0.4290756297384064  1.0000
  C   C4        1.0  0.0912312272683877  0.11213300656546472  0.5709235080237107  1.0000
  C   C5        1.0  0.5779709927694938  0.6127272901238431  0.5823074544008267  1.0000
  C   C6        1.0  0.0779742256866385  0.887273999606251  0.41768865015088613  1.0000
  C   C7        1.0  0.4220296347605271  0.38726762672139614  0.4176931009483411  1.0000
  C   C8        1.0  0.9220276105962953  0.11273221863398673  0.5823084730051207  1.0000
  C   C9        1.0  0.6671414583801507  0.4985944201810996  0.5097028676481159  1.0000
  C   C10       1.0  0.16714319300561442  0.0014103016886294988  0.4902950070903529  1.0000
  C   C11       1.0  0.33285796031412934  0.5014027405961344  0.4902981242028943  1.0000
  C   C12       1.0  0.8328634785613787  0.9985982071838747  0.5096993441704143  1.0000
  C   C13       1.0  0.6617573731256103  0.7238367052566306  0.6676416093356607  1.0000
  C   C14       1.0  0.1617592603568099  0.776165225226194  0.3323550900348807  1.0000
  C   C15       1.0  0.33824325438966  0.2761626994456635  0.3323598190226278  1.0000
  C   C16       1.0  0.8382401582859559  0.22383761544879388  0.6676421804615273  1.0000
  C   C17       1.0  0.8229838087538113  0.7325749164342101  0.6971804806897381  1.0000
  C   C18       1.0  0.32298295694094054  0.7674204548947828  0.3028174562347985  1.0000
  C   C19       1.0  0.1770216540804128  0.2674278191087538  0.3028240087442526  1.0000
  C   C20       1.0  0.6770188794542449  0.23256992737231036  0.6971854345186372  1.0000
  C   C21       1.0  0.7031042298988056  0.9187533729332814  0.8131071786242856  1.0000
  C   C22       1.0  0.20310230819107747  0.5812471864468949  0.18689029041743055  1.0000
  C   C23       1.0  0.2968915622625019  0.08125168832183505  0.18689213257386683  1.0000
  C   C24       1.0  0.7968971105271052  0.41874769536359224  0.8131126712370289  1.0000
  C   C25       1.0  0.21724153681942943  0.5802104095529048  0.8325998656716252  1.0000
  C   C26       1.0  0.7172249908150763  0.9197868779719374  0.16738498057909368  1.0000
  C   C27       1.0  0.7827590906903268  0.4197890068287934  0.16740076058399472  1.0000
  C   C28       1.0  0.2827732190361587  0.08020808559787443  0.8326123663539705  1.0000
  C   C29       1.0  0.3144751037870179  0.6744258910490047  0.932916689571563  1.0000
  C   C30       1.0  0.8144604789344713  0.8255652398809803  0.06706670032602352  1.0000
  C   C31       1.0  0.685526732573159  0.3255734786115953  0.06708714509743882  1.0000
  C   C32       1.0  0.1855401485311887  0.17443426993597916  0.9329275091082536  1.0000
  N   N1        1.0  0.8468630673270424  0.8524588697730243  0.7876568356738007  1.0000
  N   N2        1.0  0.346862089552353  0.6475330802721972  0.2123349390979001  1.0000
  N   N3        1.0  0.15313393366631797  0.1475450695143509  0.21234225727479136  1.0000
  N   N4        1.0  0.6531397468594093  0.3524539244227044  0.7876680990013654  1.0000
  N   N5        1.0  0.5892046601151436  0.843720669005599  0.7425273067561662  1.0000
  N   N6        1.0  0.08920663359440792  0.6562838753842684  0.257472711448834  1.0000
  N   N7        1.0  0.4107923409113283  0.15627985767136474  0.2574743398462545  1.0000
  N   N8        1.0  0.9107915762218186  0.34372007557905004  0.7425255793998033  1.0000
  O   O1        1.0  0.0992279385057628  0.644235284258663  0.7995659082702957  1.0000
  O   O2        1.0  0.5992329825196805  0.8557592099913905  0.20042497179571228  1.0000
  O   O3        1.0  0.9007618095909041  0.35576627096813246  0.20044237338944274  1.0000
  O   O4        1.0  0.40076643617284463  0.14423015543304982  0.7995704817760085  1.0000
  O   O5        1.0  0.25730970797261676  0.4444375179590524  0.7914652191802674  1.0000
  O   O6        1.0  0.7572994977148326  0.05556227997500683  0.2085265730558135  1.0000
  O   O7        1.0  0.7426945460093678  0.5555641540201607  0.2085350414853906  1.0000
  O   O8        1.0  0.24269629449254643  0.9444304279938153  0.7914711394699268  1.0000
  O   O9        1.0  0.43211398190872796  0.6048229359090272  0.9646113765964658  1.0000
  O   O10       1.0  0.9320934485316315  0.8951923077238393  0.03537012463024781  1.0000
  O   O11       1.0  0.5678854368204825  0.39517192254264455  0.035393189263324125  1.0000
  O   O12       1.0  0.06790717893213133  0.10481277687620154  0.9646275823734316  1.0000
  O   O13       1.0  0.270642664408392  0.8064782587307991  0.9749572463466124  1.0000
  O   O14       1.0  0.7706359378700756  0.6935311103884135  0.025027032296648623  1.0000
  O   O15       1.0  0.7293640072744199  0.19352331980621074  0.025049431145823996  1.0000
  O   O16       1.0  0.22936589838169402  0.30646960314517463  0.9749617806739508  1.0000
