data_image0
_chemical_formula_structural       Yb2H16C20N4O16
_chemical_formula_sum              "Yb2 H16 C20 N4 O16"
_cell_length_a       6.6927747152952115
_cell_length_b       7.418664030692151
_cell_length_c       11.861936180773528
_cell_angle_alpha    87.0867723183672
_cell_angle_beta     77.3091208862013
_cell_angle_gamma    80.76735975214712

_space_group_name_H-M_alt    "P 1"
_space_group_IT_number       1

loop_
  _space_group_symop_operation_xyz
  'x, y, z'

loop_
  _atom_site_type_symbol
  _atom_site_label
  _atom_site_symmetry_multiplicity
  _atom_site_fract_x
  _atom_site_fract_y
  _atom_site_fract_z
  _atom_site_occupancy
  Yb  Yb1       1.0  0.8236016260017818  0.16682544538981145  0.9223375584104476  1.0000
  Yb  Yb2       1.0  0.17640104984335633  0.8331778310016276  0.0776626006426042  1.0000
  H   H1        1.0  0.7618207237540702  0.808014072170458  0.036627833286452506  1.0000
  H   H2        1.0  0.23817497467531015  0.19198645392209096  0.9633723361882858  1.0000
  H   H3        1.0  0.9047995721623822  0.7786708923605941  0.9123669592423198  1.0000
  H   H4        1.0  0.09519521167820948  0.22132827842672495  0.0876323510703756  1.0000
  H   H5        1.0  0.00900887652354493  0.35489738648746516  0.7073208872681394  1.0000
  H   H6        1.0  0.9909891393931853  0.6451004260817399  0.2926784278650629  1.0000
  H   H7        1.0  0.842519966168538  0.4999442772856638  0.780651855286095  1.0000
  H   H8        1.0  0.1574787192759644  0.5000562563319235  0.21934831401515711  1.0000
  H   H9        1.0  0.2887629562669786  0.7160348331636114  0.35356282114202037  1.0000
  H   H10       1.0  0.7112324526308098  0.2839533548767149  0.6464399860936825  1.0000
  H   H11       1.0  0.6267572670175096  0.5852435055169848  0.23325560750634375  1.0000
  H   H12       1.0  0.3732378968192548  0.4147460482664939  0.7667471947353663  1.0000
  H   H13       1.0  0.9219877289172015  0.6875989307908055  0.5717658409527928  1.0000
  H   H14       1.0  0.0780149451156689  0.31240165295315575  0.42823173544665144  1.0000
  H   H15       1.0  0.15610726379676976  0.8762278831232421  0.5959292159265814  1.0000
  H   H16       1.0  0.8438914003185826  0.12376714492039297  0.4040735660789566  1.0000
  C   C1        1.0  0.6090485493687082  0.6319523751366771  0.3204515723749637  1.0000
  C   C2        1.0  0.39094596808170917  0.3680426558198561  0.6795503456480247  1.0000
  C   C3        1.0  0.6696366950678722  0.7048197739687508  0.481852141040619  1.0000
  C   C4        1.0  0.33036256929540286  0.2951794081061294  0.5181471690118472  1.0000
  C   C5        1.0  0.7571975655093082  0.7305295339337475  0.5751069339434878  1.0000
  C   C6        1.0  0.2428056874423277  0.26946969826750683  0.4248897832071634  1.0000
  C   C7        1.0  0.6272455250690498  0.809976043870776  0.6740595496651595  1.0000
  C   C8        1.0  0.37275623618729975  0.19002587721544728  0.3259397502258494  1.0000
  C   C9        1.0  0.41102604936472176  0.8618749923789507  0.6811268485921931  1.0000
  C   C10       1.0  0.5889790327644988  0.13812695043275613  0.3188715868825511  1.0000
  C   C11       1.0  0.3223983096843313  0.8365579075362317  0.587927704011399  1.0000
  C   C12       1.0  0.6776022705930558  0.16343851841396873  0.41207334442786  1.0000
  C   C13       1.0  0.452974725623818  0.7555921823314904  0.48924765617859123  1.0000
  C   C14       1.0  0.5470258546535688  0.24440424361871027  0.5107533922606606  1.0000
  C   C15       1.0  0.7272658175646926  0.8481279908843573  0.7694683167910767  1.0000
  C   C16       1.0  0.27273547489875216  0.15188216726210865  0.2305283604076678  1.0000
  C   C17       1.0  0.2710170281627951  0.9244943074787739  0.7937350971021929  1.0000
  C   C18       1.0  0.7289881445754175  0.07551170792400087  0.2062650517894014  1.0000
  C   C19       1.0  0.41468682774590343  0.45516029301047917  0.9831764295516764  1.0000
  C   C20       1.0  0.585309032384572  0.5448455653377593  0.0168323621146413  1.0000
  N   N1        1.0  0.4215791783529711  0.7046003265678067  0.3845745774648178  1.0000
  N   N2        1.0  0.5784188162346168  0.2953919804274606  0.6154273503726629  1.0000
  N   N3        1.0  0.7622874287232406  0.6297181251400443  0.37513809811088816  1.0000
  N   N4        1.0  0.23771208070105837  0.3702796911916904  0.624861216935564  1.0000
  O   O1        1.0  0.6890939498211281  0.008978580638384394  0.8089571022525135  1.0000
  O   O2        1.0  0.3109128903935597  0.9910248131191466  0.19103614277159414  1.0000
  O   O3        1.0  0.8539160802397276  0.7185877778055528  0.8018681885502801  1.0000
  O   O4        1.0  0.14608601487437062  0.2814141574811087  0.19813024709794996  1.0000
  O   O5        1.0  0.1082037048640103  0.03849509625987219  0.7910839356340064  1.0000
  O   O6        1.0  0.8917989709811281  0.9615081801315667  0.20891622341904537  1.0000
  O   O7        1.0  0.32155987427864113  0.8531784603832689  0.885402940806138  1.0000
  O   O8        1.0  0.6784482180071263  0.14683168817489894  0.11459546444444872  1.0000
  O   O9        1.0  0.23347996163768414  0.5416208061065148  0.0023147192449926002  1.0000
  O   O10       1.0  0.7665218902276575  0.45838518757078356  0.9976862940628524  1.0000
  O   O11       1.0  0.47201802610635457  0.29788032159763833  0.9373828406255383  1.0000
  O   O12       1.0  0.5279801283700678  0.7021146250058407  0.0626251267499072  1.0000
  O   O13       1.0  0.8919811240815959  0.8449660757893296  0.9891812932794651  1.0000
  O   O14       1.0  0.10801359229141379  0.1550372206283441  0.010816273565708901  1.0000
  O   O15       1.0  0.8680827307294121  0.36560396420416197  0.7640798902027086  1.0000
  O   O16       1.0  0.13191412734978064  0.6343965514504574  0.23592114342806525  1.0000
