data_image0
_chemical_formula_structural       Er2H52C60N4O12
_chemical_formula_sum              "Er2 H52 C60 N4 O12"
_cell_length_a       9.367861959966364
_cell_length_b       13.149158208023566
_cell_length_c       16.313437650630448
_cell_angle_alpha    112.80667044041319
_cell_angle_beta     99.35809733971722
_cell_angle_gamma    91.65841421396331

_space_group_name_H-M_alt    "P 1"
_space_group_IT_number       1

loop_
  _space_group_symop_operation_xyz
  'x, y, z'

loop_
  _atom_site_type_symbol
  _atom_site_label
  _atom_site_symmetry_multiplicity
  _atom_site_fract_x
  _atom_site_fract_y
  _atom_site_fract_z
  _atom_site_occupancy
  Er  Er1       1.0  0.08584448583297899  0.46098796338425524  0.157262029215687  1.0000
  Er  Er2       1.0  0.9141583267437879  0.5390104668257294  0.8427345958839397  1.0000
  H   H1        1.0  0.3585449005676935  0.234187520655162  0.9601283087666347  1.0000
  H   H2        1.0  0.6414515927410491  0.7658126160991756  0.03987127250726986  1.0000
  H   H3        1.0  0.3950234918905409  0.22337368844568314  0.854020725772898  1.0000
  H   H4        1.0  0.6049792049142083  0.7766331122642782  0.1459876541488113  1.0000
  H   H5        1.0  0.2334515505932586  0.2766204949377454  0.8896525891178798  1.0000
  H   H6        1.0  0.7665576709479324  0.7233862675976326  0.11035459369436035  1.0000
  H   H7        1.0  0.3263505027325592  0.7328824750433254  0.006188590545562444  1.0000
  H   H8        1.0  0.6736569431342261  0.2671184421776758  0.993811101735986  1.0000
  H   H9        1.0  0.3766923914204625  0.7525218646105217  0.12109784906552071  1.0000
  H   H10       1.0  0.6233123985124962  0.24748320547435304  0.8789022394664842  1.0000
  H   H11       1.0  0.2177914477832772  0.6656616636093418  0.05240109925004072  1.0000
  H   H12       1.0  0.7822154799564842  0.33434340860980444  0.9476004302319938  1.0000
  H   H13       1.0  0.1174232503845403  0.19622643211928192  0.22124353543392059  1.0000
  H   H14       1.0  0.8825646250595582  0.8037754734347402  0.7787655343391507  1.0000
  H   H15       1.0  0.1937292712575243  0.073444228578893  0.2186353955976656  1.0000
  H   H16       1.0  0.8062570339805859  0.926553500030522  0.7813679427095224  1.0000
  H   H17       1.0  0.011023898147691096  0.0893383760499304  0.2315621421207581  1.0000
  H   H18       1.0  0.9889663745014161  0.9106568542733838  0.7684414394892728  1.0000
  H   H19       1.0  0.9926919361406944  0.22227628395943103  0.9332780243123083  1.0000
  H   H20       1.0  0.007311176056880715  0.7777255275675047  0.06672763887650034  1.0000
  H   H21       1.0  0.8488321442988891  0.1238430628136413  0.8568143522917353  1.0000
  H   H22       1.0  0.15116652392200075  0.876157061215835  0.14318482994568166  1.0000
  H   H23       1.0  0.029312750672041005  0.10734028776669649  0.8398515429790265  1.0000
  H   H24       1.0  0.970695764098153  0.8926606305214476  0.1601488697775295  1.0000
  H   H25       1.0  0.8729003878066877  0.3175973076845581  0.2751537049102311  1.0000
  H   H26       1.0  0.1270912952671495  0.6823995375921542  0.724845609622392  1.0000
  H   H27       1.0  0.7310308436654935  0.30989701747149206  0.3331811958905462  1.0000
  H   H28       1.0  0.2689631541600406  0.6901006344061001  0.666816759151466  1.0000
  H   H29       1.0  0.8821194431356219  0.23371063888561852  0.3381266831619598  1.0000
  H   H30       1.0  0.1178689675991365  0.7662853541456516  0.6618677504266871  1.0000
  H   H31       1.0  0.31139089277996856  0.6484745285305847  0.4968930678458037  1.0000
  H   H32       1.0  0.688611508859978  0.35152056493986095  0.5031000391242061  1.0000
  H   H33       1.0  0.1875812528803849  0.7489767643341738  0.5311506590208666  1.0000
  H   H34       1.0  0.8124120419607763  0.251015917105434  0.4688463121285976  1.0000
  H   H35       1.0  0.1748577313542157  0.6633822858903073  0.4147829716165603  1.0000
  H   H36       1.0  0.8251336806223434  0.33661204197260725  0.5852118643323223  1.0000
  H   H37       1.0  0.4078677679077458  0.361348720168408  0.13855093296241705  1.0000
  H   H38       1.0  0.5921443274041422  0.6386555529198218  0.8614569993353314  1.0000
  H   H39       1.0  0.6790030244700418  0.41626100251366444  0.18943543712772026  1.0000
  H   H40       1.0  0.32100843382553285  0.5837457225316243  0.8105682800038353  1.0000
  H   H41       1.0  0.7681623303989086  0.6105197032357808  0.28609359036531856  1.0000
  H   H42       1.0  0.23185123717994574  0.38948616004061887  0.7139070082108178  1.0000
  H   H43       1.0  0.7084324576395388  0.809289909386294  0.36289003685452315  1.0000
  H   H44       1.0  0.2915683686690542  0.1907185327939303  0.6371155945377608  1.0000
  H   H45       1.0  0.5244100832620475  0.9438318166442767  0.4018120463764418  1.0000
  H   H46       1.0  0.475593210006238  0.056178246509531994  0.5981906517422857  1.0000
  H   H47       1.0  0.2606414753537933  0.9801788240505475  0.3931468062547764  1.0000
  H   H48       1.0  0.7393573529875398  0.019830435321146905  0.6068564237333618  1.0000
  H   H49       1.0  0.997896371999694  0.9041474483682846  0.3348079012410707  1.0000
  H   H50       1.0  0.002094049070777299  0.09584772251847082  0.6651883204228852  1.0000
  H   H51       1.0  0.9380101872304891  0.7008053975108769  0.23698063162407126  1.0000
  H   H52       1.0  0.062002331716847395  0.2991864342810118  0.7630241352413876  1.0000
  C   C1        1.0  0.18640838590413011  0.46675387245888095  0.9654502284018848  1.0000
  C   C2        1.0  0.8135880008837758  0.5332445563013125  0.034542687176490006  1.0000
  C   C3        1.0  0.34992964222869466  0.48438988199848865  0.983481159775373  1.0000
  C   C4        1.0  0.6500630891374685  0.5156144214117191  0.016519937260497365  1.0000
  C   C5        1.0  0.42807201163469705  0.39100766738832254  0.9570080595623267  1.0000
  C   C6        1.0  0.5719231739835207  0.6089916885974985  0.04299666832139332  1.0000
  C   C7        1.0  0.3498436031232615  0.27574909667241343  0.9127409096170426  1.0000
  C   C8        1.0  0.650158925318415  0.724256020808646  0.08726387125332735  1.0000
  C   C9        1.0  0.4189247830419164  0.5930227588921752  0.026218198211175447  1.0000
  C   C10       1.0  0.5810720555747864  0.4069798655576805  0.9737821816734212  1.0000
  C   C11       1.0  0.33067733718920783  0.6905657812670543  0.05289351405087215  1.0000
  C   C12       1.0  0.6693261288981418  0.3094376391930993  0.9471065482566702  1.0000
  C   C13       1.0  0.0501528124220059  0.23764917386080242  0.0877407582117584  1.0000
  C   C14       1.0  0.9498428631389048  0.762351736574729  0.9122516221734571  1.0000
  C   C15       1.0  0.024926045886573395  0.11400622464390148  0.04243896586634579  1.0000
  C   C16       1.0  0.9750707638674214  0.8859889625517782  0.9575628053053792  1.0000
  C   C17       1.0  0.045663145055662796  0.05134190846219159  0.0953568778549254  1.0000
  C   C18       1.0  0.9543199002118143  0.9486549629487441  0.9046409661794499  1.0000
  C   C19       1.0  0.0943547109732918  0.10605121622565149  0.1966063151059814  1.0000
  C   C20       1.0  0.9056316846305775  0.8939473515216961  0.803398516062451  1.0000
  C   C21       1.0  0.9803689380606997  0.0648300325688709  0.9479608219178959  1.0000
  C   C22       1.0  0.019627325042740965  0.9351684457217856  0.05203822694888048  1.0000
  C   C23       1.0  0.9620022535483201  0.13365864208000738  0.8924383979121444  1.0000
  C   C24       1.0  0.03799739321021176  0.8663406438786793  0.10756001193903589  1.0000
  C   C25       1.0  0.047198116733397924  0.48044764519804073  0.324842886142747  1.0000
  C   C26       1.0  0.952800851777667  0.5195466604165659  0.6751533131582049  1.0000
  C   C27       1.0  0.02264692973361799  0.4896032625632643  0.4157792152803735  1.0000
  C   C28       1.0  0.9773313015123293  0.5103894435607828  0.584212575849591  1.0000
  C   C29       1.0  0.9268127166366186  0.4093288929563812  0.4213322664630114  1.0000
  C   C30       1.0  0.07320110587542668  0.5906562724437521  0.5786675184220726  1.0000
  C   C31       1.0  0.8496988999049649  0.3133383497367745  0.3375277677876269  1.0000
  C   C32       1.0  0.1502985719414198  0.6866609489467665  0.662471041100048  1.0000
  C   C33       1.0  0.09565327139645059  0.5801215270956419  0.492650914320734  1.0000
  C   C34       1.0  0.9043491261176726  0.41986611921453965  0.5073423572787163  1.0000
  C   C35       1.0  0.197006940788178  0.6645055092779585  0.4832270687875847  1.0000
  C   C36       1.0  0.8029947207620652  0.3354846286136421  0.5167668942763868  1.0000
  C   C37       1.0  0.45149776192403834  0.44728242872398755  0.17955387706335563  1.0000
  C   C38       1.0  0.5485062587263201  0.5527260216106953  0.8204545290828165  1.0000
  C   C39       1.0  0.6019599409751138  0.47787756770213713  0.20870224415493507  1.0000
  C   C40       1.0  0.398044158341925  0.5221225269917014  0.7912962471556853  1.0000
  C   C41       1.0  0.6515834524387216  0.5874539762673123  0.2619512899009706  1.0000
  C   C42       1.0  0.3484311675492719  0.4125444458690027  0.7380508071084648  1.0000
  C   C43       1.0  0.550310652314117  0.6664547500329262  0.2848361838257034  1.0000
  C   C44       1.0  0.44970567393278327  0.33354779456448824  0.7151648980323771  1.0000
  C   C45       1.0  0.5924970760612994  0.7819496802330548  0.3389069985698185  1.0000
  C   C46       1.0  0.4075071830369836  0.2180529764519932  0.6611014912840929  1.0000
  C   C47       1.0  0.4912323115743148  0.855988197221258  0.3606684138653333  1.0000
  C   C48       1.0  0.5087686751849034  0.14401360721835493  0.6393351950446088  1.0000
  C   C49       1.0  0.3391352077423733  0.8199585014905252  0.3298386142628472  1.0000
  C   C50       1.0  0.6608710702734368  0.18004245428770818  0.6701652641744076  1.0000
  C   C51       1.0  0.2296094072629415  0.8921376915958775  0.3515591723134719  1.0000
  C   C52       1.0  0.7703913001563691  0.10786904754326088  0.6484404067121263  1.0000
  C   C53       1.0  0.08495600422040175  0.8505860067497649  0.31951018413909066  1.0000
  C   C54       1.0  0.9150465204346501  0.14941823692203823  0.680488810568157  1.0000
  C   C55       1.0  0.05031663172596269  0.7371372494945589  0.26475309778491146  1.0000
  C   C56       1.0  0.949690283645353  0.26286782767763134  0.7352490450259666  1.0000
  C   C57       1.0  0.2935474541673671  0.7060575323898204  0.27483082376635787  1.0000
  C   C58       1.0  0.7064463543448269  0.2939393199742142  0.7251705450451312  1.0000
  C   C59       1.0  0.4004735220781015  0.6281146870162502  0.2520752569948783  1.0000
  C   C60       1.0  0.5995331668745366  0.3718896055015222  0.7479321395719936  1.0000
  N   N1        1.0  0.3529667855582161  0.5199331294109015  0.20054748795362087  1.0000
  N   N2        1.0  0.6470510122862834  0.4800802051065033  0.7994582812084872  1.0000
  N   N3        1.0  0.15103026505136088  0.6669192190982827  0.24282239655014587  1.0000
  N   N4        1.0  0.8489586885473275  0.3330726090287542  0.7571689731803276  1.0000
  O   O1        1.0  0.12591242029937177  0.4441907991269217  0.021351284924193633  1.0000
  O   O2        1.0  0.8740671433739989  0.5558026778595461  0.978634132938275  1.0000
  O   O3        1.0  0.11810388648104458  0.4733226702928448  0.8940725943602247  1.0000
  O   O4        1.0  0.8819037778919707  0.5266707106130539  0.10591622263164872  1.0000
  O   O5        1.0  0.17772837349898654  0.28615358325821216  0.10377811409072989  1.0000
  O   O6        1.0  0.822265809853249  0.713843994323689  0.8962106410186905  1.0000
  O   O7        1.0  0.9420695754754365  0.29401438263568747  0.10867390658116705  1.0000
  O   O8        1.0  0.057934133185668174  0.7059906913350956  0.8913260748046669  1.0000
  O   O9        1.0  0.9537114986244218  0.514265150140652  0.2771816062785675  1.0000
  O   O10       1.0  0.046288937358418984  0.4857324982336806  0.72281944495586  1.0000
  O   O11       1.0  0.16066863737385964  0.44081954437078247  0.2956951122856069  1.0000
  O   O12       1.0  0.8393315769854938  0.5591755667775686  0.7042990070497268  1.0000
