data_image0
_chemical_formula_structural       Zn2H20C36Br8N16O4
_chemical_formula_sum              "Zn2 H20 C36 Br8 N16 O4"
_cell_length_a       8.944241818003915
_cell_length_b       10.289708588723263
_cell_length_c       12.539464460716403
_cell_angle_alpha    98.9459073703974
_cell_angle_beta     90.00000635386284
_cell_angle_gamma    90.00010292573086

_space_group_name_H-M_alt    "P 1"
_space_group_IT_number       1

loop_
  _space_group_symop_operation_xyz
  'x, y, z'

loop_
  _atom_site_type_symbol
  _atom_site_label
  _atom_site_symmetry_multiplicity
  _atom_site_fract_x
  _atom_site_fract_y
  _atom_site_fract_z
  _atom_site_occupancy
  Zn  Zn1       1.0  0.500000403947574  0.5000004806982048  4.82628699703601e-07  1.0000
  Zn  Zn2       1.0  1.1121115904000003e-06  0.9999994709246071  0.9999997876790729  1.0000
  H   H1        1.0  0.6489385961644628  0.3844224371431794  0.27952587263997947  1.0000
  H   H2        1.0  0.14893958850412045  0.1155756426958447  0.7204741325538606  1.0000
  H   H3        1.0  0.35106007661321564  0.6155778564185326  0.7204740477446238  1.0000
  H   H4        1.0  0.8510613203470426  0.8844226833564477  0.2795255196498871  1.0000
  H   H5        1.0  0.6445504720306302  0.5419721415163253  0.4254174350292247  1.0000
  H   H6        1.0  0.14455548156627882  0.9580270430576834  0.5745843317311738  1.0000
  H   H7        1.0  0.3554459646705367  0.45802716828791296  0.5745823512645104  1.0000
  H   H8        1.0  0.8554454272868951  0.04197325050586902  0.42541558865372764  1.0000
  H   H9        1.0  0.445544609655549  0.9232131767904833  0.4207371621961684  1.0000
  H   H10       1.0  0.9455441737389589  0.5767855509252018  0.5792621620942742  1.0000
  H   H11       1.0  0.5544540631211914  0.07678612245470622  0.5792634201865354  1.0000
  H   H12       1.0  0.0544544990386484  0.42321475319740653  0.42073696220165163  1.0000
  H   H13       1.0  0.4461855288703233  0.12830751673540422  0.11682744883692212  1.0000
  H   H14       1.0  0.9461868687478298  0.3716930196690741  0.8831729034309321  1.0000
  H   H15       1.0  0.5538142619460444  0.871693771143754  0.8831718095497296  1.0000
  H   H16       1.0  0.0538140401044771  0.6283062690170599  0.11682847504074807  1.0000
  H   H17       1.0  0.8522100690346476  0.31835351514160953  0.06422056502476892  1.0000
  H   H18       1.0  0.352209002385642  0.18164589345037296  0.9357788321213294  1.0000
  H   H19       1.0  0.14779083981758837  0.6816457841054204  0.9357800173582336  1.0000
  H   H20       1.0  0.6477896703930383  0.8183553838669726  0.06422122235385073  1.0000
  C   C1        1.0  0.5848080021379687  0.44039299852487823  0.22736344035017453  1.0000
  C   C2        1.0  0.08480441967321888  0.059608942502919114  0.7726346959183205  1.0000
  C   C3        1.0  0.41519514279265474  0.5596092731126774  0.7726359521274945  1.0000
  C   C4        1.0  0.9151942531053974  0.9403923453753228  0.22736456246818196  1.0000
  C   C5        1.0  0.5826559670718721  0.6103208967827032  0.38366477517752884  1.0000
  C   C6        1.0  0.08265972877488537  0.8896752663723858  0.6163341846174362  1.0000
  C   C7        1.0  0.4173393515895966  0.3896764349484628  0.6163355390235878  1.0000
  C   C8        1.0  0.9173389440017131  0.1103240539945887  0.3836648055879196  1.0000
  C   C9        1.0  0.5376112913571445  0.5689575624575485  0.27500924295707563  1.0000
  C   C10       1.0  0.03761180453773249  0.9310404835342112  0.7249907691518942  1.0000
  C   C11       1.0  0.462387381418587  0.43104075303200773  0.7249912053350586  1.0000
  C   C12       1.0  0.9623868682390081  0.0689588157109782  0.27500981323081675  1.0000
  C   C13       1.0  0.44964416160535586  0.6542006001178323  0.21800655604305066  1.0000
  C   C14       1.0  0.949645428687546  0.8457981026614761  0.7819951576017133  1.0000
  C   C15       1.0  0.5503533931347845  0.34579966176028876  0.7819957526074361  1.0000
  C   C16       1.0  0.050353244089123485  0.15420120714460242  0.21800462869231302  1.0000
  C   C17       1.0  0.42525318733641626  0.7842268615560786  0.27559738975169523  1.0000
  C   C18       1.0  0.9252519437604787  0.7157708173355888  0.7244041833285167  1.0000
  C   C19       1.0  0.5747488395536422  0.21577242713097192  0.7244039887201339  1.0000
  C   C20       1.0  0.07475008312849948  0.2842274981567243  0.2755962649640651  1.0000
  C   C21       1.0  0.5476671067656298  0.7348110316108319  0.4352660333194791  1.0000
  C   C22       1.0  0.0476650161045455  0.7651860366068775  0.5647346434561769  1.0000
  C   C23       1.0  0.45233380208768625  0.26518924083093515  0.5647354792427777  1.0000
  C   C24       1.0  0.9523358927446705  0.23481031137325206  0.4352655366551019  1.0000
  C   C25       1.0  0.4710413561859637  0.8239985138223818  0.3806903374511351  1.0000
  C   C26       1.0  0.9710411289973278  0.6759992298435051  0.6193120438706005  1.0000
  C   C27       1.0  0.5289561985531605  0.17600076430009895  0.619311837108775  1.0000
  C   C28       1.0  0.028957543779412696  0.32400006940168424  0.3806885385121035  1.0000
  C   C29       1.0  0.5626448247014081  0.1417605158883575  0.09711354279258444  1.0000
  C   C30       1.0  0.0626441085354514  0.3582384162885149  0.9028857774995559  1.0000
  C   C31       1.0  0.43735608415169475  0.8582397882360907  0.9028855815036394  1.0000
  C   C32       1.0  0.9373556822790403  0.6417608829575914  0.09711480488329732  1.0000
  C   C33       1.0  0.7737002606938858  0.23918183885803762  0.06991718465057771  1.0000
  C   C34       1.0  0.2736993530049218  0.26081842431923263  0.9300823257486928  1.0000
  C   C35       1.0  0.22630064816036818  0.7608194279002589  0.9300836659135714  1.0000
  C   C36       1.0  0.7263015558451612  0.7391789285383226  0.0699163962758078  1.0000
  Br  Br1       1.0  0.31646487229144776  0.9023289898231825  0.20378054874137774  1.0000
  Br  Br2       1.0  0.8164645224174548  0.5976704775934395  0.7962212636464088  1.0000
  Br  Br3       1.0  0.6835360365628061  0.09767227693510702  0.7962203018227785  1.0000
  Br  Br4       1.0  0.18353526839790388  0.40232982653008525  0.20377786064966594  1.0000
  Br  Br5       1.0  0.5992321968759667  0.790320461505594  0.5828702062069766  1.0000
  Br  Br6       1.0  0.09922661004248567  0.7096787013029913  0.4171275680806448  1.0000
  Br  Br7       1.0  0.40078212843288696  0.2096828361403596  0.4171261360080509  1.0000
  Br  Br8       1.0  0.9007698266574661  0.29031965642829505  0.5828696958564877  1.0000
  N   N1        1.0  0.5606482588893512  0.3855939948771478  0.1273919718850181  1.0000
  N   N2        1.0  0.06064927957920219  0.11440491289446444  0.8726089400547894  1.0000
  N   N3        1.0  0.4393515319260714  0.6144062986854807  0.8726079484997343  1.0000
  N   N4        1.0  0.9393505112354175  0.8855943652298562  0.12739323450541917  1.0000
  N   N5        1.0  0.7938997164036435  0.11049761977248104  0.0480790342481541  1.0000
  N   N6        1.0  0.2938990733632494  0.3895026660778313  0.9519212776010022  1.0000
  N   N7        1.0  0.20610007441185016  0.8895026632292583  0.9519216822252758  1.0000
  N   N8        1.0  0.7060995994134202  0.6104966437282472  0.048078508693031125  1.0000
  N   N9        1.0  0.6293381348357555  0.2621826429412907  0.10197146991568222  1.0000
  N   N10       1.0  0.12933717415953788  0.23781738272006697  0.8980280021681823  1.0000
  N   N11       1.0  0.3706616559796742  0.7378176506213451  0.8980284504690702  1.0000
  N   N12       1.0  0.870659262542709  0.7621829002789086  0.1019727143048001  1.0000
  N   N13       1.0  0.6615865960550947  0.0485930014687384  0.0655472451707837  1.0000
  N   N14       1.0  0.16158607467731656  0.4514070878115674  0.9344514393835798  1.0000
  N   N15       1.0  0.3384131947611947  0.9514082969713163  0.9344512171271903  1.0000
  N   N16       1.0  0.838412598099488  0.548592200872726  0.06554993908780203  1.0000
  O   O1        1.0  0.39339228343636273  0.6193342437253622  0.12306882094966914  1.0000
  O   O2        1.0  0.8933914041219494  0.8806633933074508  0.8769319475856606  1.0000
  O   O3        1.0  0.6066097434556426  0.3806670230338512  0.8769320296146361  1.0000
  O   O4        1.0  0.10660838669152638  0.11933492218302892  0.12306850070662284  1.0000
