data_image0
_chemical_formula_structural       Ag4H32C24S4N12O12
_chemical_formula_sum              "Ag4 H32 C24 S4 N12 O12"
_cell_length_a       6.901787220628331
_cell_length_b       10.532440655009024
_cell_length_c       13.398871649366795
_cell_angle_alpha    89.99984816507374
_cell_angle_beta     100.37907759066859
_cell_angle_gamma    90.00002823725933

_space_group_name_H-M_alt    "P 1"
_space_group_IT_number       1

loop_
  _space_group_symop_operation_xyz
  'x, y, z'

loop_
  _atom_site_type_symbol
  _atom_site_label
  _atom_site_symmetry_multiplicity
  _atom_site_fract_x
  _atom_site_fract_y
  _atom_site_fract_z
  _atom_site_occupancy
  Ag  Ag1       1.0  0.17240479785312599  0.4508492840255869  0.38665257149366994  1.0000
  Ag  Ag2       1.0  0.6723972482559475  0.04915148945028851  0.8866579465106739  1.0000
  Ag  Ag3       1.0  0.827597651868672  0.5491528978027561  0.6133488973830055  1.0000
  Ag  Ag4       1.0  0.3276066743782096  0.9508487934829548  0.1133436508096679  1.0000
  H   H1        1.0  0.3601139552016406  0.14036855742993032  0.3938225107182944  1.0000
  H   H2        1.0  0.8601107505437682  0.3596294004888562  0.8938231476557306  1.0000
  H   H3        1.0  0.6398854998725766  0.8596298266120143  0.6061764578902142  1.0000
  H   H4        1.0  0.1398916503553451  0.6403699330006489  0.10617607783524362  1.0000
  H   H5        1.0  0.4201407530178045  0.24401706805161177  0.299743216400806  1.0000
  H   H6        1.0  0.9201346108482794  0.2559812292174541  0.7997445567784709  1.0000
  H   H7        1.0  0.5798631207937744  0.7559832148854541  0.7002561375309143  1.0000
  H   H8        1.0  0.07986926296322139  0.7440171548245047  0.2002547971551891  1.0000
  H   H9        1.0  0.720175605484414  0.0975806958252932  0.4601162151452129  1.0000
  H   H10       1.0  0.2201692758366889  0.4024217404297161  0.960115412661253  1.0000
  H   H11       1.0  0.2798283008755433  0.9024195871092219  0.5398846343789216  1.0000
  H   H12       1.0  0.7798331901592661  0.5975794919498015  0.03988680401260317  1.0000
  H   H13       1.0  0.6527122207475244  0.05909030431089952  0.3296875752980739  1.0000
  H   H14       1.0  0.1527073669684569  0.4409087586685416  0.8296868223360293  1.0000
  H   H15       1.0  0.3472902289741668  0.9409090291747902  0.6703138935815218  1.0000
  H   H16       1.0  0.8472950664790774  0.5590915242659663  0.1703138987463859  1.0000
  H   H17       1.0  0.5811349098957379  0.19998880366178184  0.5969100497350581  1.0000
  H   H18       1.0  0.08114256182689418  0.3000138801865759  0.0969102185764257  1.0000
  H   H19       1.0  0.4188645451784793  0.8000095803801626  0.4030889188734506  1.0000
  H   H20       1.0  0.9188539311483553  0.6999864027517335  0.9030877453504901  1.0000
  H   H21       1.0  0.5011024194274754  0.3493558144096127  0.6355807724148832  1.0000
  H   H22       1.0  0.0011071303354696998  0.1506476625135704  0.13558173844027982  1.0000
  H   H23       1.0  0.49889557900847603  0.6506416201834996  0.36441881554908667  1.0000
  H   H24       1.0  0.9988908843748588  0.8493545193160302  0.8644185973150299  1.0000
  H   H25       1.0  0.21223875954080276  0.14706571515896633  0.5243758553774356  1.0000
  H   H26       1.0  0.7122495112650357  0.3529401045379785  0.024375771787866506  1.0000
  H   H27       1.0  0.7877562767961662  0.8529336183305105  0.47562272790494114  1.0000
  H   H28       1.0  0.287746965436085  0.6470620772967096  0.975621444340895  1.0000
  H   H29       1.0  0.2863147190524985  0.15278022388739035  0.6576411920437054  1.0000
  H   H30       1.0  0.7863225407871681  0.3472261130776459  0.15764161108378263  1.0000
  H   H31       1.0  0.7136817739228221  0.8472219579460186  0.3423567718812635  1.0000
  H   H32       1.0  0.21367837092542893  0.6527760687557845  0.8423567381663447  1.0000
  C   C1        1.0  0.47094277977219434  0.2073018079619686  0.3765121847367254  1.0000
  C   C2        1.0  0.970936672971135  0.2926981417180557  0.8765149454217039  1.0000
  C   C3        1.0  0.5290581482144815  0.7926975255275294  0.6234869123125222  1.0000
  C   C4        1.0  0.029065776750627503  0.707303090662734  0.12348652345594502  1.0000
  C   C5        1.0  0.6685720366898878  0.1383652867599139  0.384075223187601  1.0000
  C   C6        1.0  0.16856568763530083  0.3616345449066287  0.8840737565375465  1.0000
  C   C7        1.0  0.3314303967576109  0.8616340467270479  0.6159254978957875  1.0000
  C   C8        1.0  0.8314382187246636  0.6383657380278863  0.1159270929865883  1.0000
  C   C9        1.0  0.8228246775770104  0.2204213542483373  0.3610673358870855  1.0000
  C   C10       1.0  0.32282131686736903  0.2795795524174594  0.86106853776122  1.0000
  C   C11       1.0  0.17717333713320468  0.7795779792386032  0.6389329998711517  1.0000
  C   C12       1.0  0.6771840786790688  0.720416932725584  0.13893318800473506  1.0000
  C   C13       1.0  0.4656637561282296  0.2725826257977531  0.5797149343020039  1.0000
  C   C14       1.0  0.9656686391102981  0.22741833509870452  0.07971608991118731  1.0000
  C   C15       1.0  0.5343342097593649  0.7274157582454565  0.4202831580685782  1.0000
  C   C16       1.0  0.034329326777481094  0.7725847961822724  0.9202820024545275  1.0000
  C   C17       1.0  0.2675753941739814  0.21103844130862368  0.5882098552863795  1.0000
  C   C18       1.0  0.7675816896989502  0.2889671774324186  0.0882080219533776  1.0000
  C   C19       1.0  0.732422587987884  0.7889618416284208  0.4117889848784629  1.0000
  C   C20       1.0  0.23241481955052734  0.7110340549521653  0.9117906897687716  1.0000
  C   C21       1.0  0.1165366921262034  0.3034149028100472  0.5970434887531582  1.0000
  C   C22       1.0  0.6165445185652558  0.19659348806228397  0.09704496445871769  1.0000
  C   C23       1.0  0.8834524525612436  0.6965891779171757  0.4029545807574806  1.0000
  C   C24       1.0  0.3834520883293422  0.8034067948671153  0.9029582340416554  1.0000
  S   S1        1.0  0.48228623303980095  0.3451832910806516  0.4588585592504373  1.0000
  S   S2        1.0  0.9822844530146214  0.1548144821621378  0.9588582490031428  1.0000
  S   S3        1.0  0.5177147112210392  0.6548150929600283  0.5411412855959981  1.0000
  S   S4        1.0  0.017717980432877305  0.845184851324824  0.041142472080245795  1.0000
  N   N1        1.0  0.9439334825167691  0.2885594581010836  0.3421105425320192  1.0000
  N   N2        1.0  0.4439257303846417  0.2114396512905969  0.8421129943901704  1.0000
  N   N3        1.0  0.0560689021081799  0.7114408248372471  0.6578879351617672  1.0000
  N   N4        1.0  0.5560723005998796  0.7885625305377317  0.1578880891613537  1.0000
  N   N5        1.0  0.9985102259448979  0.3785865795717811  0.6077284623539186  1.0000
  N   N6        1.0  0.49851634242358506  0.12142189133103906  0.10772662556779268  1.0000
  N   N7        1.0  0.0014907671385273958  0.621411804465076  0.3922736258811383  1.0000
  N   N8        1.0  0.5014847157568667  0.8785831388335835  0.892278453845286  1.0000
  N   N9        1.0  0.3923531796768529  0.46873440679222966  0.1840533878092998  1.0000
  N   N10       1.0  0.89234705279587  0.0312680745815896  0.684056684550491  1.0000
  N   N11       1.0  0.6076448350333976  0.5312658761422638  0.8159469479479641  1.0000
  N   N12       1.0  0.1076569023866014  0.9687303094540026  0.3159464083642121  1.0000
  O   O1        1.0  0.2211693318140888  0.4479480891560501  0.2053108472941787  1.0000
  O   O2        1.0  0.7211602118823279  0.05205711581847081  0.7053116011388739  1.0000
  O   O3        1.0  0.7788301720827845  0.5520521937771791  0.7946903647010046  1.0000
  O   O4        1.0  0.278839243191932  0.94794221767102  0.2946873674686614  1.0000
  O   O5        1.0  0.40793262743117964  0.48601356176298083  0.09227900848944869  1.0000
  O   O6        1.0  0.9079279070385765  0.013986389204838204  0.5922794779204565  1.0000
  O   O7        1.0  0.5920668601915011  0.5139867211715199  0.9077214557095274  1.0000
  O   O8        1.0  0.0920744775861877  0.9860091464957319  0.40771899977820414  1.0000
  O   O9        1.0  0.5422553096783247  0.4713357970969696  0.2537065849497324  1.0000
  O   O10       1.0  0.0422445488602179  0.028665390375067497  0.7537069113104664  1.0000
  O   O11       1.0  0.4577456671309789  0.5286644858362595  0.7462947554871705  1.0000
  O   O12       1.0  0.9577534333015764  0.9713329936668628  0.24629192885632284  1.0000
