data_image0
_chemical_formula_structural       Mn2H28C22N8O12
_chemical_formula_sum              "Mn2 H28 C22 N8 O12"
_cell_length_a       7.95271959713537
_cell_length_b       9.014833048930756
_cell_length_c       9.62627716598175
_cell_angle_alpha    90.00143149367501
_cell_angle_beta     90.00057390027632
_cell_angle_gamma    96.57734628908209

_space_group_name_H-M_alt    "P 1"
_space_group_IT_number       1

loop_
  _space_group_symop_operation_xyz
  'x, y, z'

loop_
  _atom_site_type_symbol
  _atom_site_label
  _atom_site_symmetry_multiplicity
  _atom_site_fract_x
  _atom_site_fract_y
  _atom_site_fract_z
  _atom_site_occupancy
  Mn  Mn1       1.0  0.8128040896427251  0.8515078506532845  0.11506282693896004  1.0000
  Mn  Mn2       1.0  0.1872019245465921  0.1484872890023397  0.6150606106303016  1.0000
  H   H1        1.0  0.1720783889983224  0.8787490864345598  0.03295396234334901  1.0000
  H   H2        1.0  0.8279311961785184  0.12125147446665349  0.5329626928775824  1.0000
  H   H3        1.0  0.17195567665090292  0.8785132654940782  0.19732175914651862  1.0000
  H   H4        1.0  0.8280546188879186  0.12147862717739599  0.6973294571959912  1.0000
  H   H5        1.0  0.47592274972814863  0.8068543467311358  0.03256796101400281  1.0000
  H   H6        1.0  0.5240888698678532  0.1931517753866387  0.5325768486453768  1.0000
  H   H7        1.0  0.47590239132291867  0.8068099552362826  0.19780629427776836  1.0000
  H   H8        1.0  0.5241039861870223  0.19318980983679515  0.6978162218260311  1.0000
  H   H9        1.0  0.732588448186725  0.3867099907302389  0.7540238013709983  1.0000
  H   H10       1.0  0.2674040581574176  0.6132937527765419  0.2540471702809981  1.0000
  H   H11       1.0  0.6249108647559112  0.5131014609794349  0.995850377074845  1.0000
  H   H12       1.0  0.3750887541039205  0.4869058611516975  0.4958717424589453  1.0000
  H   H13       1.0  0.9895355648306249  0.8244649597640646  0.8026696750838981  1.0000
  H   H14       1.0  0.0104619483271406  0.1755345583104386  0.30267358404581307  1.0000
  H   H15       1.0  0.0947735238170466  0.6635707750394387  0.6151700187845252  1.0000
  H   H16       1.0  0.9052193045168055  0.3364200073571695  0.1151757268435176  1.0000
  H   H17       1.0  0.02025339755936531  0.46895014349706804  0.6151778631326652  1.0000
  H   H18       1.0  0.9797312665585098  0.5310451796667762  0.11519073662375942  1.0000
  H   H19       1.0  0.9898568082477441  0.8244847761259423  0.42753503860609504  1.0000
  H   H20       1.0  0.010145030792813299  0.1755082548240878  0.9275423553558827  1.0000
  H   H21       1.0  0.6260121831107243  0.512970485524626  0.23362944321520734  1.0000
  H   H22       1.0  0.3739826711539323  0.4870248231380214  0.733651096776953  1.0000
  H   H23       1.0  0.7333411296234332  0.3864402646738582  0.4754342746369318  1.0000
  H   H24       1.0  0.26664811995723875  0.6135576113634044  0.9754600155374149  1.0000
  H   H25       1.0  0.4525527725275823  0.19206670769958115  0.9949390822219402  1.0000
  H   H26       1.0  0.5474688121045832  0.8079359308505971  0.4949287379466441  1.0000
  H   H27       1.0  0.45259075803656407  0.1918854888451307  0.23565905182034194  1.0000
  H   H28       1.0  0.5474284579705042  0.8081666858231955  0.7356479676295109  1.0000
  C   C1        1.0  0.7679381153509796  0.4955023066921667  0.8000689575867598  1.0000
  C   C2        1.0  0.23205684488220868  0.5044971578986334  0.3000864184961288  1.0000
  C   C3        1.0  0.7182293717229912  0.5585849721239384  0.9207474873065424  1.0000
  C   C4        1.0  0.2817643528010407  0.44141352060608346  0.42076287575828547  1.0000
  C   C5        1.0  0.9048957773637697  0.7235421843971324  0.8253529463913979  1.0000
  C   C6        1.0  0.09509581368431698  0.2764580395175286  0.32535987693790264  1.0000
  C   C7        1.0  0.9818210297407862  0.5818346198205974  0.6150398072402511  1.0000
  C   C8        1.0  0.01816787091912179  0.4181640173820398  0.1150545432483909  1.0000
  C   C9        1.0  0.9052961061593194  0.7235360826245909  0.40473239753168144  1.0000
  C   C10       1.0  0.0947038033504413  0.2764540694945551  0.9047427357773971  1.0000
  C   C11       1.0  0.7190276034789419  0.5585369790933541  0.3089221811849967  1.0000
  C   C12       1.0  0.2809613733396716  0.44146390984431594  0.8089409750703994  1.0000
  C   C13       1.0  0.7685380862529885  0.49533985792119467  0.4295674716281113  1.0000
  C   C14       1.0  0.2314505965539411  0.5046578144922691  0.9295873033724933  1.0000
  C   C15       1.0  0.6825612910187717  0.1014985298298186  0.9407248963026619  1.0000
  C   C16       1.0  0.3174308648182987  0.8984960816679928  0.4407074420929434  1.0000
  C   C17       1.0  0.5595883086047451  0.14738477620003473  0.044786651923679706  1.0000
  C   C18       1.0  0.44042428983758714  0.8526093939964596  0.5447943956173803  1.0000
  C   C19       1.0  0.5596341748155497  0.14728469867771574  0.18578300674702322  1.0000
  C   C20       1.0  0.44035678254778077  0.8527316173412345  0.6857959466353878  1.0000
  C   C21       1.0  0.6826902469519993  0.10133375959114939  0.2896777775040817  1.0000
  C   C22       1.0  0.3173233875954367  0.8986831332895092  0.7896730867313907  1.0000
  N   N1        1.0  0.8056407226586659  0.6998122318478935  0.936080424886676  1.0000
  N   N2        1.0  0.19435842462419126  0.30018777633586774  0.4360897659938346  1.0000
  N   N3        1.0  0.8864065770385708  0.6014092094537277  0.7409096855753321  1.0000
  N   N4        1.0  0.1135891765319883  0.3985918915476815  0.2409237286250701  1.0000
  N   N5        1.0  0.806287360672421  0.6998321514425713  0.2938570745822987  1.0000
  N   N6        1.0  0.1937071877009444  0.3001649010979719  0.7938677431204513  1.0000
  N   N7        1.0  0.8867609903625961  0.6012840820939188  0.48899298319476975  1.0000
  N   N8        1.0  0.11322690322885624  0.39871196142853194  0.9890062817554865  1.0000
  O   O1        1.0  0.8037450588880973  0.0269685808420803  0.9738162587975197  1.0000
  O   O2        1.0  0.1962520154973859  0.9730224745462831  0.4738088547366602  1.0000
  O   O3        1.0  0.6635918605278166  0.14453720823198074  0.8155398444124347  1.0000
  O   O4        1.0  0.3364152782987659  0.8554312992473853  0.31552571553162073  1.0000
  O   O5        1.0  0.8038155632991323  0.026766456196803297  0.25662622768120263  1.0000
  O   O6        1.0  0.19617651392997001  0.973225068752086  0.756617044516432  1.0000
  O   O7        1.0  0.6635610836315423  0.14435281024046986  0.4148667746998741  1.0000
  O   O8        1.0  0.336446833712941  0.8556576891819532  0.9148415182440675  1.0000
  O   O9        1.0  0.0948921202805835  0.8727918390275136  0.11511306005566979  1.0000
  O   O10       1.0  0.9051192325816119  0.12720549302893144  0.6151204928196634  1.0000
  O   O11       1.0  0.5372509541543806  0.773824333510241  0.1151740191298032  1.0000
  O   O12       1.0  0.4627542765746854  0.2261741698278072  0.6151821148704641  1.0000
