data_image0
_chemical_formula_structural       Nd2Mn4H30C42O26
_chemical_formula_sum              "Nd2 Mn4 H30 C42 O26"
_cell_length_a       6.907092806313296
_cell_length_b       11.677850042708835
_cell_length_c       15.007
_cell_angle_alpha    89.97003192916995
_cell_angle_beta     89.1463582156572
_cell_angle_gamma    85.1418633432594

_space_group_name_H-M_alt    "P 1"
_space_group_IT_number       1

loop_
  _space_group_symop_operation_xyz
  'x, y, z'

loop_
  _atom_site_type_symbol
  _atom_site_label
  _atom_site_symmetry_multiplicity
  _atom_site_fract_x
  _atom_site_fract_y
  _atom_site_fract_z
  _atom_site_occupancy
  Nd  Nd1       1.0  0.2559559113037081  0.0601767283006609  0.43556030875236473  1.0000
  Nd  Nd2       1.0  0.7440569947167931  0.9398246921317295  0.5644394689009218  1.0000
  Mn  Mn1       1.0  0.10412966257192117  0.2414821007739079  0.07937693533225602  1.0000
  Mn  Mn2       1.0  0.895867192952913  0.7585201790682061  0.9206249510976651  1.0000
  Mn  Mn3       1.0  0.5078827385511671  0.3662941750245707  0.7403171526521675  1.0000
  Mn  Mn4       1.0  0.4921093097394189  0.6337012295397528  0.2596847695395823  1.0000
  H   H1        1.0  0.8864330247785899  0.19786018199118866  0.4956363007947361  1.0000
  H   H2        1.0  0.11357602967696317  0.8021378008023061  0.5043621719567426  1.0000
  H   H3        1.0  0.24900566838635288  0.0015830327120411995  0.08734501576174843  1.0000
  H   H4        1.0  0.750993098477096  0.9984261224078708  0.9126588538307915  1.0000
  H   H5        1.0  0.3293966763944951  0.11953357972440408  0.9382810457324811  1.0000
  H   H6        1.0  0.670591245304152  0.8804704189371576  0.061716903123496515  1.0000
  H   H7        1.0  0.4379843372382979  0.3283177187203421  0.9901682078453292  1.0000
  H   H8        1.0  0.5620105780601959  0.6716879987606674  0.009826360576987303  1.0000
  H   H9        1.0  0.4235598553148989  0.3361237372455718  0.16893655979620092  1.0000
  H   H10       1.0  0.5764460282180224  0.6638862772840639  0.8310585980229632  1.0000
  H   H11       1.0  0.8794444818346034  0.29728873062683897  0.6614943563320212  1.0000
  H   H12       1.0  0.1205581654815262  0.7027135492152751  0.33850615767180164  1.0000
  H   H13       1.0  0.8269850729961304  0.5123757805403172  0.7291997292450746  1.0000
  H   H14       1.0  0.17301347661578595  0.4876247804823493  0.2708061444021581  1.0000
  H   H15       1.0  0.47296694489276797  0.6050596816601725  0.6790233960796429  1.0000
  H   H16       1.0  0.5270346236844218  0.3949400199527702  0.3209764600148263  1.0000
  H   H17       1.0  0.3073543208676454  0.4455807379533212  0.580114640089157  1.0000
  H   H18       1.0  0.6926583390136044  0.5544224012985168  0.41988047406243834  1.0000
  H   H19       1.0  0.6634842091466877  0.0028833196248073  0.23809603582499517  1.0000
  H   H20       1.0  0.3365269738990051  0.9971301325437237  0.7619057478129108  1.0000
  H   H21       1.0  0.7514940467270179  0.1349307643437996  0.269008069534685  1.0000
  H   H22       1.0  0.24850894091026277  0.8650792501858361  0.7309997689001407  1.0000
  H   H23       1.0  0.9215819261487039  0.013978299164683999  0.24698208529488141  1.0000
  H   H24       1.0  0.0784246669142661  0.9860368718232946  0.7530150646273556  1.0000
  H   H25       1.0  0.02474758128791879  0.3756763509840439  0.5145784463079438  1.0000
  H   H26       1.0  0.9752573754634284  0.6243199129900033  0.4854207215970377  1.0000
  H   H27       1.0  0.872557565917212  0.37930391943003616  0.4181937461116121  1.0000
  H   H28       1.0  0.127450163660157  0.6206932039537348  0.5818074014972296  1.0000
  H   H29       1.0  0.1300307937723204  0.3528349593333218  0.4056722992780735  1.0000
  H   H30       1.0  0.8699751186483339  0.6471647422796208  0.594327527030373  1.0000
  C   C1        1.0  0.2997376385727505  0.127071462415671  0.2547844103117144  1.0000
  C   C2        1.0  0.7002660874823048  0.8729333956556147  0.7452174279571582  1.0000
  C   C3        1.0  0.32624971276101167  0.1581623280093254  0.16000809915762915  1.0000
  C   C4        1.0  0.6737572783985755  0.8418399518327958  0.8399937177715631  1.0000
  C   C5        1.0  0.29602745689562937  0.08776292103888038  0.08432275169280253  1.0000
  C   C6        1.0  0.7039853260552461  0.9122393588032337  0.9156816909444958  1.0000
  C   C7        1.0  0.3392437666752811  0.1503047449006445  0.006092649966831201  1.0000
  C   C8        1.0  0.6607599593797814  0.8497001131706482  0.9939098546577443  1.0000
  C   C9        1.0  0.3965634059890703  0.25990182939344203  0.0333494075362282  1.0000
  C   C10       1.0  0.6034293229438319  0.7401090445459174  0.9666511709807255  1.0000
  C   C11       1.0  0.3885519463054408  0.265058287738853  0.127630937195697  1.0000
  C   C12       1.0  0.6114517797496217  0.7349465703324396  0.8723655702275651  1.0000
  C   C13       1.0  0.5559391687479902  0.2275854455330304  0.5552229988590583  1.0000
  C   C14       1.0  0.4440696395683118  0.7724142560799123  0.4447748085249402  1.0000
  C   C15       1.0  0.5842687407351406  0.3358831025227857  0.603306112848216  1.0000
  C   C16       1.0  0.4157383734940793  0.6641183179096046  0.3966943708754727  1.0000
  C   C17       1.0  0.7536107718640677  0.3580859527483966  0.6523950988293948  1.0000
  C   C18       1.0  0.24638934876529814  0.641913748864546  0.3476067662608529  1.0000
  C   C19       1.0  0.7248620266350371  0.47102614106847074  0.6883895362391856  1.0000
  C   C20       1.0  0.2751367691161448  0.528972701134748  0.31161633641982434  1.0000
  C   C21       1.0  0.5363260450657633  0.5194091897234613  0.6620748552893829  1.0000
  C   C22       1.0  0.4636813153027148  0.4805905118894884  0.33792229566758897  1.0000
  C   C23       1.0  0.44954518157787493  0.436544904112715  0.6102687803265568  1.0000
  C   C24       1.0  0.5504616865120795  0.5634582351391231  0.38972837260684673  1.0000
  C   C25       1.0  0.9088369758098337  0.1537157420961321  0.07049031412597632  1.0000
  C   C26       1.0  0.09115880097606774  0.8462839595168106  0.9295162452401942  1.0000
  C   C27       1.0  0.0098560493449682  0.335267765160232  0.9936401650955275  1.0000
  C   C28       1.0  0.9901215194673936  0.6647276394040915  0.006363189094372502  1.0000
  C   C29       1.0  0.9859155829411603  0.3246858532257306  0.1659986780610083  1.0000
  C   C30       1.0  0.014069225610313688  0.6753095513385929  0.8339986292842171  1.0000
  C   C31       1.0  0.6329738325430512  0.2604604457141946  0.8087341619466601  1.0000
  C   C32       1.0  0.3670283224945549  0.7395452717668219  0.1912616895436869  1.0000
  C   C33       1.0  0.4352802536894059  0.4481709988621674  0.8363617306799045  1.0000
  C   C34       1.0  0.5646963594536627  0.5518209680632609  0.1636289707039253  1.0000
  C   C35       1.0  0.2932450068560256  0.2930569971447028  0.7438278086010471  1.0000
  C   C36       1.0  0.7067520948080669  0.7069435638779635  0.2561674132836487  1.0000
  C   C37       1.0  0.76614069548242  0.009860867175874  0.37114485424771004  1.0000
  C   C38       1.0  0.23387196439882976  0.9901422720759709  0.6288535916823933  1.0000
  C   C39       1.0  0.7778464972683494  0.0410093132210463  0.2748388085000286  1.0000
  C   C40       1.0  0.2221607111427701  0.9590015607183133  0.7251616707301737  1.0000
  C   C41       1.0  0.004974944424425597  0.338352186660515  0.4484068370202437  1.0000
  C   C42       1.0  0.995032539013678  0.6616466555427037  0.5515923125097117  1.0000
  O   O1        1.0  0.3302211103184192  0.2004495834903111  0.31533914711853583  1.0000
  O   O2        1.0  0.6697867134408426  0.7995569934004292  0.6846633287082257  1.0000
  O   O3        1.0  0.25037111087548414  0.0265574792983116  0.2739424000881528  1.0000
  O   O4        1.0  0.7496248831619495  0.9734508164118764  0.7260521598878145  1.0000
  O   O5        1.0  0.3965037128782639  0.21776067356557857  0.5172025121433919  1.0000
  O   O6        1.0  0.6034972692385094  0.7822330121792971  0.4828033476223014  1.0000
  O   O7        1.0  0.7024999791371087  0.1514211181324256  0.5550033359070669  1.0000
  O   O8        1.0  0.29750858303992794  0.8485803022999717  0.4449951388208434  1.0000
  O   O9        1.0  0.784463117418312  0.0921046589657166  0.0652744074170855  1.0000
  O   O10       1.0  0.21554966553256352  0.9078976208763974  0.9347280361531107  1.0000
  O   O11       1.0  0.9517341042569851  0.3950783849183707  0.9358898923809209  1.0000
  O   O12       1.0  0.0482190013997723  0.6049058473195358  0.06411230139031693  1.0000
  O   O13       1.0  0.9116767069212272  0.3761395728254086  0.2262649003558437  1.0000
  O   O14       1.0  0.0883031424386402  0.6238601287875412  0.7737364373801442  1.0000
  O   O15       1.0  0.7155530011968734  0.19289880965317954  0.8547416877480816  1.0000
  O   O16       1.0  0.2844390470937057  0.8070965949111438  0.14526689800067774  1.0000
  O   O17       1.0  0.3906291130608679  0.5017758210016011  0.9003623545701914  1.0000
  O   O18       1.0  0.6093393988556811  0.49822216179189377  0.09964172702978401  1.0000
  O   O19       1.0  0.1534431631166697  0.24298348956214968  0.7450480403537298  1.0000
  O   O20       1.0  0.8465463584871601  0.7570093367730022  0.2549352422534312  1.0000
  O   O21       1.0  0.6004990265841315  0.0056600724438098  0.4098921620874166  1.0000
  O   O22       1.0  0.3995131699063278  0.9943361915302376  0.5901069561741894  1.0000
  O   O23       1.0  0.9200429476747799  0.9870071454019608  0.41672254686935173  1.0000
  O   O24       1.0  0.07996465883294948  0.012990837391534199  0.5832766021664997  1.0000
  O   O25       1.0  0.9939151974995964  0.2166700826255195  0.4541086645999784  1.0000
  O   O26       1.0  0.006092162868881717  0.783329618987423  0.5458911517797916  1.0000
