data_image0
_chemical_formula_structural       P4H80Au4C88S4O12
_chemical_formula_sum              "P4 H80 Au4 C88 S4 O12"
_cell_length_a       8.497339385008365
_cell_length_b       15.93682118391515
_cell_length_c       19.840967810907173
_cell_angle_alpha    105.54118499840438
_cell_angle_beta     89.99986293726279
_cell_angle_gamma    90.00011769236197

_space_group_name_H-M_alt    "P 1"
_space_group_IT_number       1

loop_
  _space_group_symop_operation_xyz
  'x, y, z'

loop_
  _atom_site_type_symbol
  _atom_site_label
  _atom_site_symmetry_multiplicity
  _atom_site_fract_x
  _atom_site_fract_y
  _atom_site_fract_z
  _atom_site_occupancy
  P   P1        1.0  0.35805809726776516  0.12256641524836451  0.034875378281263594  1.0000
  P   P2        1.0  0.6419441666213288  0.6225637503335406  0.5348747728048053  1.0000
  P   P3        1.0  0.6419469832679708  0.8774362466129588  0.9651249190146058  1.0000
  P   P4        1.0  0.35805738338785886  0.37743369918379  0.4651254044824924  1.0000
  H   H1        1.0  0.5140905254964069  0.27861794701073717  0.12111740259761919  1.0000
  H   H2        1.0  0.4859071481786543  0.7786171026505855  0.6211203749203023  1.0000
  H   H3        1.0  0.48590984768940615  0.7213827670648385  0.8788794491218325  1.0000
  H   H4        1.0  0.5140885176417598  0.2213849058895434  0.3788807890087539  1.0000
  H   H5        1.0  0.48996022490354096  0.0260616206096813  0.9301357038666183  1.0000
  H   H6        1.0  0.5100418104769913  0.5260628337823762  0.43013626237005553  1.0000
  H   H7        1.0  0.5100448556329978  0.9739384391364395  0.06986251826887716  1.0000
  H   H8        1.0  0.48995856270120425  0.4739385254983972  0.569863753030873  1.0000
  H   H9        1.0  0.4162457328765683  0.16491307137116004  0.9016643063948989  1.0000
  H   H10       1.0  0.5837569953385184  0.6649143395800933  0.40166732137801375  1.0000
  H   H11       1.0  0.5837628781796624  0.8350869904044488  0.09833290816143149  1.0000
  H   H12       1.0  0.4162492620279536  0.3350863643576858  0.5983345682272939  1.0000
  H   H13       1.0  0.21680716468455324  0.9797770550945302  0.9228614193833593  1.0000
  H   H14       1.0  0.7831966548406938  0.4797742030305729  0.4228614036479499  1.0000
  H   H15       1.0  0.7831955621673216  0.020224301145141496  0.07714010738308018  1.0000
  H   H16       1.0  0.21680607201652435  0.5202258557005665  0.5771373222773803  1.0000
  H   H17       1.0  0.240286691920879  0.09052682735034523  0.5850648023795911  1.0000
  H   H18       1.0  0.7597081070296952  0.5905230388569649  0.08506150278577708  1.0000
  H   H19       1.0  0.7597101507304771  0.9094680180218333  0.41493430732700176  1.0000
  H   H20       1.0  0.24028638195216698  0.4094685591938543  0.9149323680799668  1.0000
  H   H21       1.0  0.6524482704876816  0.40129138537798076  0.09112297223013141  1.0000
  H   H22       1.0  0.3475476887027042  0.9012884743336685  0.5911256389497552  1.0000
  H   H23       1.0  0.3475497490160393  0.5987125790590895  0.9088776069656603  1.0000
  H   H24       1.0  0.6524515076387586  0.098710283845449  0.4088717975024706  1.0000
  H   H25       1.0  0.3538557872563998  0.032011715662172  0.32835335746454314  1.0000
  H   H26       1.0  0.6461362488784983  0.5320123106162669  0.8283534531737969  1.0000
  H   H27       1.0  0.6461481164414877  0.967989645648075  0.6716456503572202  1.0000
  H   H28       1.0  0.3538582401001449  0.4679896958953407  0.17164871833342943  1.0000
  H   H29       1.0  0.26066867499047663  0.9828374543916781  0.2459979770936016  1.0000
  H   H30       1.0  0.7393243774031291  0.4828364415096189  0.745998718646625  1.0000
  H   H31       1.0  0.7393340518610925  0.017162600283384708  0.7540027639870672  1.0000
  H   H32       1.0  0.2606712884062503  0.5171636070784515  0.25400504517003947  1.0000
  H   H33       1.0  0.20123387623360858  0.05349858293944721  0.7711948591246838  1.0000
  H   H34       1.0  0.7987691537934936  0.5534961207591705  0.27119583864240576  1.0000
  H   H35       1.0  0.7987664969394999  0.946502122009953  0.22880652669428506  1.0000
  H   H36       1.0  0.20122768886073317  0.44650198004555364  0.7288044795953538  1.0000
  H   H37       1.0  0.20701617559357993  0.9516689012790137  0.7923745511869666  1.0000
  H   H38       1.0  0.7929917964722506  0.4516660561862054  0.29237503094194744  1.0000
  H   H39       1.0  0.7929877280960937  0.0483305021072198  0.2076260489447321  1.0000
  H   H40       1.0  0.20700504618253746  0.5483313943432222  0.7076246425585138  1.0000
  H   H41       1.0  0.7573076301103041  0.0833506534890205  0.900668297723321  1.0000
  H   H42       1.0  0.2426947902803533  0.5833510054923182  0.40066491151235073  1.0000
  H   H43       1.0  0.2426974504217441  0.9166513550549453  0.099332866201749  1.0000
  H   H44       1.0  0.7573055829060634  0.4166523117124755  0.5993335115786422  1.0000
  H   H45       1.0  0.9529636001463114  0.9638712437219824  0.8668139374148538  1.0000
  H   H46       1.0  0.04703929499780199  0.4638717042090549  0.36681287223084513  1.0000
  H   H47       1.0  0.0470391267027424  0.0361301104896512  0.1331885969292514  1.0000
  H   H48       1.0  0.9529646087009381  0.5361303083905113  0.6331862765393836  1.0000
  H   H49       1.0  0.5581998925407774  0.2858669683463971  0.872338013551655  1.0000
  H   H50       1.0  0.44180346452171887  0.7858681187795469  0.3723421564013165  1.0000
  H   H51       1.0  0.4418051880000461  0.7141363478462994  0.12766091332617438  1.0000
  H   H52       1.0  0.5582039696865306  0.21413258718674652  0.627658725625828  1.0000
  H   H53       1.0  0.2894824910367504  0.16008777517100012  0.48974499464682697  1.0000
  H   H54       1.0  0.7105114879846537  0.6600858184719911  0.9897439682238982  1.0000
  H   H55       1.0  0.7105108211012164  0.8399129287614999  0.5102568949639661  1.0000
  H   H56       1.0  0.28948300099418844  0.33991098279520326  0.010254556751419801  1.0000
  H   H57       1.0  0.6771853350778015  0.40496651215424617  0.9673025767434211  1.0000
  H   H58       1.0  0.3228155946621383  0.9049662640022619  0.4673060347342498  1.0000
  H   H59       1.0  0.3228173917854135  0.5950381056021001  0.03269713582117359  1.0000
  H   H60       1.0  0.6771871321928129  0.09503314242554953  0.5326930540314477  1.0000
  H   H61       1.0  0.08452558970788711  0.23442520855154214  0.05068408771628439  1.0000
  H   H62       1.0  0.9154781924162306  0.734424725611042  0.5506811543543861  1.0000
  H   H63       1.0  0.9154806676622654  0.7655761487035875  0.9493169352598159  1.0000
  H   H64       1.0  0.0845245344308054  0.26557402445735084  0.4493203124070178  1.0000
  H   H65       1.0  0.1298986528425132  0.12334194272423821  0.3817763328197401  1.0000
  H   H66       1.0  0.8700946121984997  0.6233440248979037  0.8817755130708989  1.0000
  H   H67       1.0  0.8700899519328331  0.8766568042963456  0.6182266453141523  1.0000
  H   H68       1.0  0.12990340729867  0.3766560307892633  0.11822472422292658  1.0000
  H   H69       1.0  0.8769126180779947  0.1234440006858293  0.33186996869746815  1.0000
  H   H70       1.0  0.12308445708354299  0.6234461270707  0.8318689153226514  1.0000
  H   H71       1.0  0.12308775508972047  0.8765547483675888  0.6681320018537633  1.0000
  H   H72       1.0  0.8769135624104933  0.3765526250238124  0.16813154386307616  1.0000
  H   H73       1.0  0.019763138213463097  0.0501274358407642  0.28294775079768186  1.0000
  H   H74       1.0  0.9802315752453551  0.5501302570796867  0.7829479862477058  1.0000
  H   H75       1.0  0.9802419423092129  0.94987066192526  0.7170540788030947  1.0000
  H   H76       1.0  0.0197640905756131  0.4498711011851456  0.21705253294405216  1.0000
  H   H77       1.0  0.8236342745813656  0.21887170841855416  0.9933977022366847  1.0000
  H   H78       1.0  0.17636932461067542  0.7188720063402556  0.49339437222909766  1.0000
  H   H79       1.0  0.17637198279191318  0.7811309524292228  0.006603098847513452  1.0000
  H   H80       1.0  0.8236310485692399  0.28113065551914923  0.5066059250687613  1.0000
  Au  Au1       1.0  0.6667291605814611  0.8659415675494273  0.8490544881775505  1.0000
  Au  Au2       1.0  0.33326875025380787  0.36594030451716003  0.3490542689673645  1.0000
  Au  Au3       1.0  0.3332770967889402  0.1340578378658037  0.15094510437548786  1.0000
  Au  Au4       1.0  0.6667280924032396  0.6340577983156024  0.6509450416927294  1.0000
  C   C1        1.0  0.5259543936873426  0.279620524295467  0.0665078437715181  1.0000
  C   C2        1.0  0.4740447662005565  0.7796190179589075  0.5665111889871496  1.0000
  C   C3        1.0  0.47404715634311856  0.7203834472411828  0.9334892089009371  1.0000
  C   C4        1.0  0.5259556069745202  0.22038103772921858  0.4334890483056809  1.0000
  C   C5        1.0  0.16981883431770936  0.10919602078728731  0.9892120985501761  1.0000
  C   C6        1.0  0.8301820131674089  0.6091955451877168  0.48920994777189714  1.0000
  C   C7        1.0  0.8301850693739822  0.8908059867421799  0.010789569164231185  1.0000
  C   C8        1.0  0.16982071368840218  0.39080451252941356  0.5107892819422659  1.0000
  C   C9        1.0  0.4940002974258633  0.9974370723939857  0.7614909188837798  1.0000
  C   C10       1.0  0.5059997854163356  0.4974333399766309  0.2614925084559587  1.0000
  C   C11       1.0  0.5060012525907354  0.0025649371625676  0.23850974125395644  1.0000
  C   C12       1.0  0.49399470355998426  0.5025647608271344  0.7385078097827956  1.0000
  C   C13       1.0  0.4580237400439486  0.21322679363134264  0.01327724829327791  1.0000
  C   C14       1.0  0.5419778162062769  0.713225993975044  0.5132806768932666  1.0000
  C   C15       1.0  0.5419813404993974  0.7867752230247831  0.986719885321115  1.0000
  C   C16       1.0  0.4580249106447453  0.2867747109753154  0.48672070892470015  1.0000
  C   C17       1.0  0.47074465108975255  0.030059525822835605  0.9855603191029302  1.0000
  C   C18       1.0  0.5292570895692915  0.5300594530989856  0.48556007563782794  1.0000
  C   C19       1.0  0.5292568989307823  0.9699411852111625  0.014438043982529857  1.0000
  C   C20       1.0  0.4707444604498291  0.46994125692098987  0.5144387912364721  1.0000
  C   C21       1.0  0.4690551860433913  0.21605994936369652  0.9432599802741634  1.0000
  C   C22       1.0  0.5309439754759495  0.7160611734968539  0.4432635437973074  1.0000
  C   C23       1.0  0.530947540819774  0.7839414149881352  0.0567375161815917  1.0000
  C   C24       1.0  0.469061105056653  0.2839401847718151  0.5567369753904643  1.0000
  C   C25       1.0  0.046939111893138395  0.011533764242209102  0.5310943932302122  1.0000
  C   C26       1.0  0.9530498012728257  0.5115333878186377  0.031092642119986615  1.0000
  C   C27       1.0  0.9530565539138678  0.9884591252335044  0.46890530120914786  1.0000
  C   C28       1.0  0.0469317424734825  0.48845820515680327  0.968903747695421  1.0000
  C   C29       1.0  0.0141175869039216  0.969699659959943  0.5849430708521338  1.0000
  C   C30       1.0  0.9858739623857314  0.4696989290580191  0.0849422986345232  1.0000
  C   C31       1.0  0.9858780789070704  0.030295184397729706  0.4150565426437893  1.0000
  C   C32       1.0  0.014114642394048397  0.5302946157602121  0.9150555216009548  1.0000
  C   C33       1.0  0.13187048278078348  0.0328213345896131  0.9376856954942312  1.0000
  C   C34       1.0  0.8681303594972505  0.5328195863400965  0.437683734451184  1.0000
  C   C35       1.0  0.8681334209103468  0.9671813232151439  0.06231661695746738  1.0000
  C   C36       1.0  0.1318723673613817  0.46718047340506524  0.5623144876853132  1.0000
  C   C37       1.0  0.16901624804625465  0.07376382324981992  0.5377803878515124  1.0000
  C   C38       1.0  0.83097522051996  0.5737600959103518  0.037775516499443995  1.0000
  C   C39       1.0  0.8309723567344847  0.9262368796667461  0.4622220055501103  1.0000
  C   C40       1.0  0.1690227989839101  0.4262354098777905  0.9622192000556069  1.0000
  C   C41       1.0  0.6034670714314171  0.34866661919679137  0.04958798617676052  1.0000
  C   C42       1.0  0.3965348021116028  0.8486650486442571  0.5495919008627794  1.0000
  C   C43       1.0  0.3965333017549994  0.6513366980080022  0.9504104369142254  1.0000
  C   C44       1.0  0.6034655710654419  0.151334357782595  0.45040718790391304  1.0000
  C   C45       1.0  0.6499785754394763  0.9701676901632016  0.7274072215205081  1.0000
  C   C46       1.0  0.3500227701423384  0.47016643267843256  0.2274110184254283  1.0000
  C   C47       1.0  0.3500229745819111  0.029833672160108904  0.27259128251341735  1.0000
  C   C48       1.0  0.6499717188317645  0.5298342692265052  0.7725918787625331  1.0000
  C   C49       1.0  0.2172066040796423  0.9829973694874854  0.7495535143282054  1.0000
  C   C50       1.0  0.7827958437442745  0.48299386479393996  0.24955386177222746  1.0000
  C   C51       1.0  0.7827949459352509  0.017003337490436404  0.2504468639125861  1.0000
  C   C52       1.0  0.2171998220732689  0.5170048883136433  0.7504460936256621  1.0000
  C   C53       1.0  0.8728472694372938  0.0907375565547142  0.9256079992789026  1.0000
  C   C54       1.0  0.12715503980969337  0.5907391169267344  0.4256049928709089  1.0000
  C   C55       1.0  0.12715781109304908  0.90926314941062  0.07439288274922964  1.0000
  C   C56       1.0  0.8728465102119998  0.4092635469611848  0.5743942968487799  1.0000
  C   C57       1.0  0.9836960103593809  0.023940363945342803  0.9061487697018292  1.0000
  C   C58       1.0  0.0163061510746161  0.5239411796009747  0.4061472276429683  1.0000
  C   C59       1.0  0.0163078933314509  0.9760609922948121  0.09385275706410574  1.0000
  C   C60       1.0  0.9836965757868865  0.4760621355767399  0.5938522030246958  1.0000
  C   C61       1.0  0.5489862651193747  0.28445536927062426  0.9268656048727377  1.0000
  C   C62       1.0  0.4510156046208208  0.7844578328365587  0.4268685104460062  1.0000
  C   C63       1.0  0.4510176385779586  0.7155466423149265  0.07313404768633089  1.0000
  C   C64       1.0  0.5489918295879831  0.21554222285444521  0.5731317268438261  1.0000
  C   C65       1.0  0.19614143207620313  0.11228710000380462  0.4845346144732331  1.0000
  C   C66       1.0  0.8038559229404426  0.6122884778901467  0.984533206118172  1.0000
  C   C67       1.0  0.803853056899264  0.8877103495106482  0.5154655628170558  1.0000
  C   C68       1.0  0.1961420965618075  0.3877122321283936  0.015465660757612925  1.0000
  C   C69       1.0  0.6158601181397713  0.3509732723899361  0.9799103821192431  1.0000
  C   C70       1.0  0.3841417104245366  0.850973072214245  0.4799147957215836  1.0000
  C   C71       1.0  0.3841437855606812  0.6490300427882617  0.020089048547916443  1.0000
  C   C72       1.0  0.6158610164318217  0.1490263352275818  0.5200837892552741  1.0000
  C   C73       1.0  0.0570875911537385  0.1755521626866994  0.009649102604655001  1.0000
  C   C74       1.0  0.9429150174869106  0.675552355435741  0.5096452793636317  1.0000
  C   C75       1.0  0.9429174893774572  0.8244491945679542  0.9903519203719499  1.0000
  C   C76       1.0  0.05708770936522  0.32444704896403215  0.49035481697973876  1.0000
  C   C77       1.0  0.10472942196251009  0.09146379298110222  0.4228534955745644  1.0000
  C   C78       1.0  0.895267021288454  0.5914645961422309  0.9228508612330302  1.0000
  C   C79       1.0  0.8952662438476793  0.908533653491773  0.577148193081733  1.0000
  C   C80       1.0  0.10472746769577407  0.4085341610209454  0.07714707901002531  1.0000
  C   C81       1.0  0.09835536985784901  0.9458096484535832  0.6934484224570098  1.0000
  C   C82       1.0  0.9016460721261835  0.4458075462904177  0.1934474397196979  1.0000
  C   C83       1.0  0.9016461801496829  0.0541897518896306  0.30655368904219665  1.0000
  C   C84       1.0  0.09835077053344318  0.5541925104102887  0.806552293785792  1.0000
  C   C85       1.0  0.9097258719520765  0.16658086078049913  0.9776317741701632  1.0000
  C   C86       1.0  0.09027408400120857  0.6665817438478784  0.4776266429095556  1.0000
  C   C87       1.0  0.0902780317373413  0.8334204944456401  0.02237025638461178  1.0000
  C   C88       1.0  0.9097262891778539  0.3334202667222074  0.5223735134398381  1.0000
  S   S1        1.0  0.6989854547023666  0.8592585703488143  0.7317825344920762  1.0000
  S   S2        1.0  0.3010048486784527  0.3592579302732589  0.23178349114459  1.0000
  S   S3        1.0  0.30101491847582906  0.1407427889319592  0.2682174809088521  1.0000
  S   S4        1.0  0.6989849329432049  0.640742123382509  0.7682177537303969  1.0000
  O   O1        1.0  0.37219281775437446  0.9657789642833025  0.7184766085431065  1.0000
  O   O2        1.0  0.627807384089678  0.4657759814618885  0.21847873963529446  1.0000
  O   O3        1.0  0.6278087322596517  0.0342210914052998  0.2815236287492198  1.0000
  O   O4        1.0  0.3721859280502571  0.5342240732093373  0.7815220014493603  1.0000
  O   O5        1.0  0.10794448966369428  0.9951245987444892  0.6429529317583372  1.0000
  O   O6        1.0  0.8920515401317671  0.49512444161416613  0.14295288378318818  1.0000
  O   O7        1.0  0.8920523529893741  0.004871549206306701  0.35704645984519345  1.0000
  O   O8        1.0  0.10794177201124458  0.504873663245192  0.857045419300732  1.0000
  O   O9        1.0  0.5235758159009548  0.9577445642564868  0.17815099087320627  1.0000
  O   O10       1.0  0.47641987333452096  0.4577465934502315  0.6781526599497454  1.0000
  O   O11       1.0  0.4764245572774967  0.042254843184380816  0.8218475941046535  1.0000
  O   O12       1.0  0.5235781461516069  0.5422515022848773  0.3218501772316884  1.0000
