data_image0
_chemical_formula_structural       Zn2H20C24N4Cl4
_chemical_formula_sum              "Zn2 H20 C24 N4 Cl4"
_cell_length_a       5.284670620303806
_cell_length_b       7.895125118104165
_cell_length_c       15.111985663693781
_cell_angle_alpha    78.00244411210446
_cell_angle_beta     89.25383621528484
_cell_angle_gamma    89.07254360432088

_space_group_name_H-M_alt    "P 1"
_space_group_IT_number       1

loop_
  _space_group_symop_operation_xyz
  'x, y, z'

loop_
  _atom_site_type_symbol
  _atom_site_label
  _atom_site_symmetry_multiplicity
  _atom_site_fract_x
  _atom_site_fract_y
  _atom_site_fract_z
  _atom_site_occupancy
  Zn  Zn1       1.0  0.1198862814345247  0.5100297115563707  0.2552155780979746  1.0000
  Zn  Zn2       1.0  0.8801147971617452  0.48996878131872285  0.7447841088232253  1.0000
  H   H1        1.0  0.4700205650025282  0.5001500272857554  0.10155783664082921  1.0000
  H   H2        1.0  0.5299862105150694  0.4998471757650335  0.898441293461211  1.0000
  H   H3        1.0  0.8003075136209646  0.6818731369722927  0.012596013087019664  1.0000
  H   H4        1.0  0.19969731004010063  0.3181279509261117  0.9874046914667647  1.0000
  H   H5        1.0  0.9124919091828828  0.1469602944601931  0.04713015519678979  1.0000
  H   H6        1.0  0.08751108897051545  0.8530382020739039  0.9528715045673908  1.0000
  H   H7        1.0  0.5860636615749469  0.08571581681934498  0.15421070938714374  1.0000
  H   H8        1.0  0.4139279444377025  0.9142839626154357  0.8457902199692172  1.0000
  H   H9        1.0  0.26227863890208875  0.8830916540733824  0.2394826080426995  1.0000
  H   H10       1.0  0.7377168492906776  0.1169029480039114  0.760517537273316  1.0000
  H   H11       1.0  0.23554000510173978  0.440755243675703  0.4592866513606495  1.0000
  H   H12       1.0  0.7644497680405705  0.5592406470677814  0.5407127275453903  1.0000
  H   H13       1.0  0.559055158619266  0.2700063675574285  0.5600261621342071  1.0000
  H   H14       1.0  0.4409383884834455  0.7299908231986053  0.4399743752019845  1.0000
  H   H15       1.0  0.9261200836230897  0.08694224479203431  0.5795734861684707  1.0000
  H   H16       1.0  0.07388089751992058  0.9130614292842195  0.4204269607916373  1.0000
  H   H17       1.0  0.81445000357008  0.059081345228563  0.330699880700152  1.0000
  H   H18       1.0  0.18556036346975452  0.9409249273202891  0.6692989014321356  1.0000
  H   H19       1.0  0.4815697413612838  0.23854029929771056  0.2411987896629739  1.0000
  H   H20       1.0  0.5184406256785506  0.7614659732511415  0.7587999924693065  1.0000
  C   C1        1.0  0.5033148307039922  0.6307810358881979  0.11139010429169365  1.0000
  C   C2        1.0  0.49668809152907994  0.369220049509309  0.8886099506482453  1.0000
  C   C3        1.0  0.687183076536705  0.7336389505533488  0.06191849737572138  1.0000
  C   C4        1.0  0.312819834929897  0.26636343101303334  0.9380827399957923  1.0000
  C   C5        1.0  0.9137592178604875  0.0193785087950431  0.029887080223872403  1.0000
  C   C6        1.0  0.0862418590338834  0.9806212808279823  0.9701144507434665  1.0000
  C   C7        1.0  0.7241763203925655  0.9015140522777827  0.0768859076093165  1.0000
  C   C8        1.0  0.2758247077751719  0.098488327945816  0.923116003377487  1.0000
  C   C9        1.0  0.5655420091011791  0.9560944494396892  0.1412922942799497  1.0000
  C   C10       1.0  0.43445338163832753  0.0439053338387652  0.8587086110749738  1.0000
  C   C11       1.0  0.3870608775669524  0.8450030108937272  0.1886773035475144  1.0000
  C   C12       1.0  0.6129364344315887  0.15499547929579902  0.8113237306042508  1.0000
  C   C13       1.0  0.3696384553087809  0.3555643745547812  0.4337708911903492  1.0000
  C   C14       1.0  0.6303569371326248  0.6444341119757411  0.5662281701184355  1.0000
  C   C15       1.0  0.5512062873394183  0.2602081506733426  0.4892555648929644  1.0000
  C   C16       1.0  0.44879100652998716  0.7397903383580697  0.5107441460296727  1.0000
  C   C17       1.0  0.7216578139578971  0.15141216963367296  0.4543087529333221  1.0000
  C   C18       1.0  0.27834322497630387  0.8485889144210504  0.5456919756218996  1.0000
  C   C19       1.0  0.9167633494232275  0.057126151743851494  0.512257370164555  1.0000
  C   C20       1.0  0.0832376515508102  0.9428762267425839  0.4877425559785423  1.0000
  C   C21       1.0  0.6924442489092683  0.14105391259681002  0.36313577492178695  1.0000
  C   C22       1.0  0.30755876001059335  0.8589432877684119  0.6368647024108185  1.0000
  C   C23       1.0  0.5072185882305361  0.240705139721122  0.3122752134737894  1.0000
  C   C24       1.0  0.4927862082368293  0.7592959464401119  0.6877235062362957  1.0000
  N   N1        1.0  0.35633653929115633  0.6837092373075392  0.17450812550004002  1.0000
  N   N2        1.0  0.6436626758372767  0.3162879586349518  0.8254917142194317  1.0000
  N   N3        1.0  0.34960559207609526  0.348236099755276  0.3459443607744461  1.0000
  N   N4        1.0  0.650391683664175  0.6517623881180298  0.6540540269190559  1.0000
  Cl  Cl1       1.0  0.0071913744671974  0.33546513905620395  0.1616098848021963  1.0000
  Cl  Cl2       1.0  0.9928058616110106  0.664535939996739  0.8383895445253203  1.0000
  Cl  Cl3       1.0  0.8760676410414447  0.6578568690280874  0.33473249602764105  1.0000
  Cl  Cl4       1.0  0.12393906591849198  0.3421442202130933  0.6652675349108607  1.0000
