data_image0
_chemical_formula_structural       Zn3H20C14N2O18
_chemical_formula_sum              "Zn3 H20 C14 N2 O18"
_cell_length_a       7.267499170774399
_cell_length_b       8.44057274063619
_cell_length_c       9.352725285660481
_cell_angle_alpha    110.21481171561527
_cell_angle_beta     101.4814763604939
_cell_angle_gamma    94.48353570932943

_space_group_name_H-M_alt    "P 1"
_space_group_IT_number       1

loop_
  _space_group_symop_operation_xyz
  'x, y, z'

loop_
  _atom_site_type_symbol
  _atom_site_label
  _atom_site_symmetry_multiplicity
  _atom_site_fract_x
  _atom_site_fract_y
  _atom_site_fract_z
  _atom_site_occupancy
  Zn  Zn1       1.0  0.11325466904781935  0.8575156647443762  0.8708837246678698  1.0000
  Zn  Zn2       1.0  0.886743150137427  0.1424833800307965  0.12911490092172065  1.0000
  Zn  Zn3       1.0  0.5000007589086692  1.1122623746007238e-06  0.4999994715825339  1.0000
  H   H1        1.0  0.459377361850592  0.8531273820272958  0.022355401963032713  1.0000
  H   H2        1.0  0.5406218599861604  0.1468716548288569  0.9776434372776067  1.0000
  H   H3        1.0  0.3283043284780263  0.9067983785443445  0.14394387528307825  1.0000
  H   H4        1.0  0.6716962960102252  0.093200650392788  0.8560551776086031  1.0000
  H   H5        1.0  0.8949424286966663  0.7770603851931811  0.582738881592384  1.0000
  H   H6        1.0  0.1050567952048667  0.2229386510350437  0.41726209618524024  1.0000
  H   H7        1.0  0.8767896654382739  0.972828313321223  0.6798140740568855  1.0000
  H   H8        1.0  0.12320955743086869  0.027170723220969303  0.3201858344522464  1.0000
  H   H9        1.0  0.583381967381385  0.2584311264457497  0.3947761824505633  1.0000
  H   H10       1.0  0.4166207697583388  0.7415717307353517  0.6052265293671651  1.0000
  H   H11       1.0  0.42348927986311935  0.3110996050926644  0.494492056543784  1.0000
  H   H12       1.0  0.5765118176143175  0.6889019813911191  0.5055089367750725  1.0000
  H   H13       1.0  0.8187697049455238  0.014915500781697198  0.37520529071338166  1.0000
  H   H14       1.0  0.18123091954273468  0.9850835281554353  0.6247937621782995  1.0000
  H   H15       1.0  0.6730656291586855  0.8569701157965073  0.2526104370929971  1.0000
  H   H16       1.0  0.32693523130796365  0.1430301920709312  0.7473890513780219  1.0000
  H   H17       1.0  0.013480541506083896  0.21266590470167296  0.6077328526087911  1.0000
  H   H18       1.0  0.9865203210253456  0.7873344025378372  0.3922687743992128  1.0000
  H   H19       1.0  0.6251359871891324  0.4052078884364647  0.9003530682510859  1.0000
  H   H20       1.0  0.37486323361522284  0.5947911487336484  0.09964470172106132  1.0000
  C   C1        1.0  0.0375280774762317  0.48424111721066504  0.7199117353596166  1.0000
  C   C2        1.0  0.9624741856419162  0.5157591827377531  0.28008796676244435  1.0000
  C   C3        1.0  0.9577779998520768  0.3166677599410478  0.6835932299949831  1.0000
  C   C4        1.0  0.042222626700962024  0.6833312683681569  0.3164079614336828  1.0000
  C   C5        1.0  0.8053485360020859  0.28080284898565816  0.7462188646490091  1.0000
  C   C6        1.0  0.19465232549695347  0.7191974585678126  0.25378169309050236  1.0000
  C   C7        1.0  0.7429211300014272  0.42219136390266937  0.8481384142088189  1.0000
  C   C8        1.0  0.25707949345443387  0.5778076653484233  0.15185956941436973  1.0000
  C   C9        1.0  0.8357726712299751  0.5857698227022681  0.8827633998896189  1.0000
  C   C10       1.0  0.16422678658516793  0.41423049308419013  0.11723587493035838  1.0000
  C   C11       1.0  0.19325524420330004  0.530717073053033  0.6490190748901341  1.0000
  C   C12       1.0  0.8067425749819465  0.4692819717221398  0.35097955069946357  1.0000
  C   C13       1.0  0.7878859298708535  0.7432661105902411  0.9975551738780483  1.0000
  C   C14       1.0  0.2121132909335017  0.256732926579879  0.0024425960940987917  1.0000
  N   N1        1.0  0.9794325521299428  0.6161899010468018  0.8196433976829169  1.0000
  N   N2        1.0  0.020566670739199818  0.3838091354953903  0.1803565108262148  1.0000
  O   O1        1.0  0.35344624196692115  0.9167397998348931  0.0442397696235162  1.0000
  O   O2        1.0  0.646553215848229  0.08326051595156511  0.9557595051964612  1.0000
  O   O3        1.0  0.9687311672409464  0.8885980054156307  0.6631759491569299  1.0000
  O   O4        1.0  0.031269458279702206  0.1114010232075344  0.33682417300324374  1.0000
  O   O5        1.0  0.49830918850800293  0.22039256107074584  0.4528288934372355  1.0000
  O   O6        1.0  0.501695189326405  0.7796115664937204  0.5471766061478647  1.0000
  O   O7        1.0  0.7090871800602797  0.9317670649153128  0.3660006211645594  1.0000
  O   O8        1.0  0.2909136793739719  0.0682332432660928  0.6339977980379673  1.0000
  O   O9        1.0  0.23546728771781034  0.41335134265729323  0.5390239695305824  1.0000
  O   O10       1.0  0.7645333378028383  0.5866476859658718  0.4609761526295913  1.0000
  O   O11       1.0  0.2695316194671165  0.6878553618355452  0.7032674350831272  1.0000
  O   O12       1.0  0.730469005021135  0.3121436671015799  0.2967316178085539  1.0000
  O   O13       1.0  0.9032587147349103  0.8807338635477963  0.030131342832540025  1.0000
  O   O14       1.0  0.0967393414611237  0.11926645984372192  0.9698687876048951  1.0000
  O   O15       1.0  0.6465855661297865  0.7308009538948638  0.0546118249865515  1.0000
  O   O16       1.0  0.3534122520230696  0.26919809119426924  0.9453857313345538  1.0000
  O   O17       1.0  0.726872078088789  0.12045277803577649  0.7101409171470863  1.0000
  O   O18       1.0  0.2731287834102503  0.8795475295177013  0.2898596405924323  1.0000
