data_image0
_chemical_formula_structural       Cd2Ni2H32C20N12O4
_chemical_formula_sum              "Cd2 Ni2 H32 C20 N12 O4"
_cell_length_a       7.527126417493155
_cell_length_b       7.527106166460991
_cell_length_c       14.152509579584732
_cell_angle_alpha    77.2944782195844
_cell_angle_beta     77.29434500409722
_cell_angle_gamma    87.6391089931342

_space_group_name_H-M_alt    "P 1"
_space_group_IT_number       1

loop_
  _space_group_symop_operation_xyz
  'x, y, z'

loop_
  _atom_site_type_symbol
  _atom_site_label
  _atom_site_symmetry_multiplicity
  _atom_site_fract_x
  _atom_site_fract_y
  _atom_site_fract_z
  _atom_site_occupancy
  Cd  Cd1       1.0  0.8904531398139783  0.10953690914377028  0.2499970342645312  1.0000
  Cd  Cd2       1.0  0.10953802374341141  0.8904595397191952  0.7499960057581135  1.0000
  Ni  Ni1       1.0  1.70098795990978e-05  0.4999947554921461  0.499991065260204  1.0000
  Ni  Ni2       1.0  0.49999555374811433  0.9999957082011118  0.999994172044005  1.0000
  H   H1        1.0  0.41678032762551004  0.11111850411143108  0.27794811214508297  1.0000
  H   H2        1.0  0.88885636922749  0.5832179278716079  0.22205206638833638  1.0000
  H   H3        1.0  0.5832081507468418  0.8888887735904515  0.7220524734778166  1.0000
  H   H4        1.0  0.11113343668937155  0.41678661605678957  0.7779493870546476  1.0000
  H   H5        1.0  0.3177495188548393  0.06022591288813568  0.406631847141071  1.0000
  H   H6        1.0  0.9397679851326474  0.6822317270592179  0.0933653108938088  1.0000
  H   H7        1.0  0.6822483921818192  0.9397704552759973  0.5933674945862748  1.0000
  H   H8        1.0  0.060240760596045106  0.31776589854443654  0.9066411237469654  1.0000
  H   H9        1.0  0.3162413955208053  0.7926629391860017  0.33139793329912953  1.0000
  H   H10       1.0  0.20731564566347066  0.6837704487695218  0.16860227534328942  1.0000
  H   H11       1.0  0.6837552099226942  0.20733888038532192  0.6686009331289853  1.0000
  H   H12       1.0  0.7926794465019499  0.31622852752152386  0.8314112226039186  1.0000
  H   H13       1.0  0.5599254864979458  0.8047504104449458  0.2922916902056941  1.0000
  H   H14       1.0  0.19523417039946625  0.44008414198756884  0.20771567991079118  1.0000
  H   H15       1.0  0.44007256784313853  0.19525688373565933  0.7077028494560125  1.0000
  H   H16       1.0  0.804747269191758  0.5599121424457179  0.7923003984704948  1.0000
  H   H17       1.0  0.6197206435815021  0.52637381724778  0.3944838573744036  1.0000
  H   H18       1.0  0.47362841907037295  0.38028207103342027  0.10552908770225859  1.0000
  H   H19       1.0  0.3802883386867891  0.4736402189567598  0.6055128961099498  1.0000
  H   H20       1.0  0.5263607958658768  0.6196841424502888  0.8944994392105841  1.0000
  H   H21       1.0  0.3780057691630248  0.48344852360351337  0.42795629175275  1.0000
  H   H22       1.0  0.5165538815634464  0.6219924327552274  0.07205165109250801  1.0000
  H   H23       1.0  0.6220018135401518  0.5165600873087397  0.5720391243655243  1.0000
  H   H24       1.0  0.48345440859666416  0.37797643268565645  0.9279765046837768  1.0000
  H   H25       1.0  0.6435749123273952  0.9907105569722671  0.4244277945106205  1.0000
  H   H26       1.0  0.009299435765477404  0.35640994003282594  0.07557039539327091  1.0000
  H   H27       1.0  0.3564190661450013  0.009299453944365193  0.5755690207816073  1.0000
  H   H28       1.0  0.9907066953252228  0.6435958892453753  0.9244325720785016  1.0000
  H   H29       1.0  0.5912154921361862  0.20378348964137416  0.3987312663976326  1.0000
  H   H30       1.0  0.7962261176625776  0.4087712534970007  0.10125629435798797  1.0000
  H   H31       1.0  0.4087784564924633  0.7962224479069986  0.6012646061050405  1.0000
  H   H32       1.0  0.20378561564479014  0.591240106769767  0.8987340910886701  1.0000
  C   C1        1.0  0.9552898916681731  0.691716495719838  0.4032358577614091  1.0000
  C   C2        1.0  0.3082789637244119  0.04472490378158508  0.09675373728977382  1.0000
  C   C3        1.0  0.044731147772914405  0.30827169791665193  0.5967547035203893  1.0000
  C   C4        1.0  0.691721779253385  0.9552742606999443  0.9032357733422174  1.0000
  C   C5        1.0  0.008535426260721098  0.6567646318518212  0.5816998478898228  1.0000
  C   C6        1.0  0.34322117151546655  0.9914845382161274  0.9182851890235784  1.0000
  C   C7        1.0  0.9914842533295103  0.34321548050490225  0.41828190333943377  1.0000
  C   C8        1.0  0.656767326345623  0.008518715434483699  0.08170878967727901  1.0000
  C   C9        1.0  0.43649019900691854  0.03387253307742099  0.35026479345737743  1.0000
  C   C10       1.0  0.9661280225768609  0.5635126255219943  0.1497297226357831  1.0000
  C   C11       1.0  0.5635009635614099  0.9661279583306877  0.6497327294376305  1.0000
  C   C12       1.0  0.03387682758692279  0.4364986798219021  0.8502699374705076  1.0000
  C   C13       1.0  0.44230844206480685  0.8334139178787653  0.34880774740145165  1.0000
  C   C14       1.0  0.16659165328447056  0.5576853864060494  0.15119207390630154  1.0000
  C   C15       1.0  0.5576854643869852  0.16658793397209584  0.6511885983447814  1.0000
  C   C16       1.0  0.8334075305344374  0.4423135846180557  0.8488202489478026  1.0000
  C   C17       1.0  0.49223721118051594  0.545367940606354  0.44763413638671073  1.0000
  C   C18       1.0  0.45463645063142627  0.5077575386042881  0.05237888060103301  1.0000
  C   C19       1.0  0.5077730951806104  0.45464066268485925  0.5523609683472017  1.0000
  C   C20       1.0  0.545363752908564  0.4922195210947392  0.9476492628412104  1.0000
  N   N1        1.0  0.9273588963797366  0.8135497589553109  0.34088201042009564  1.0000
  N   N2        1.0  0.1864510591556439  0.07265542086540928  0.15910572685317703  1.0000
  N   N3        1.0  0.07264723940397033  0.18644529225737466  0.6591087667198607  1.0000
  N   N4        1.0  0.8135441847111623  0.9273369678562201  0.8408830712371228  1.0000
  N   N5        1.0  0.012868740958552397  0.755270915898144  0.6348408626362456  1.0000
  N   N6        1.0  0.2447144584860653  0.9871528677211002  0.8651441072431612  1.0000
  N   N7        1.0  0.987140016618753  0.2447118952594706  0.36514819078379196  1.0000
  N   N8        1.0  0.7552618840418222  0.012857260543157195  0.1348469438652486  1.0000
  N   N9        1.0  0.6089679788974751  0.09005923782699199  0.36945835908877456  1.0000
  N   N10       1.0  0.9099409163594461  0.3910396366434056  0.13053556449880693  1.0000
  N   N11       1.0  0.391020552259022  0.9099507883317198  0.6305390789721771  1.0000
  N   N12       1.0  0.0900626546032512  0.6089784943360994  0.869462046527275  1.0000
  O   O1        1.0  0.4604666925418572  0.7334269883474461  0.4450312445293747  1.0000
  O   O2        1.0  0.26657893582486747  0.5395367955502549  0.054965218377219634  1.0000
  O   O3        1.0  0.5395395423913031  0.26658298827450005  0.5549641695332213  1.0000
  O   O4        1.0  0.7334270746495336  0.46046621746025806  0.9450486848386603  1.0000
