data_image0
_chemical_formula_structural       Mn4H42C28N2O20
_chemical_formula_sum              "Mn4 H42 C28 N2 O20"
_cell_length_a       9.712297375394229
_cell_length_b       10.244154745129991
_cell_length_c       11.12528931488957
_cell_angle_alpha    64.96208882441613
_cell_angle_beta     82.40192809988842
_cell_angle_gamma    65.17883098370521

_space_group_name_H-M_alt    "P 1"
_space_group_IT_number       1

loop_
  _space_group_symop_operation_xyz
  'x, y, z'

loop_
  _atom_site_type_symbol
  _atom_site_label
  _atom_site_symmetry_multiplicity
  _atom_site_fract_x
  _atom_site_fract_y
  _atom_site_fract_z
  _atom_site_occupancy
  Mn  Mn1       1.0  0.5000035196374597  0.5000055524888508  0.4999983164117128  1.0000
  Mn  Mn2       1.0  0.5469121227941542  0.10140910461338136  0.6482730078664503  1.0000
  Mn  Mn3       1.0  0.45309171929002895  0.8985865904335241  0.35172897855647284  1.0000
  Mn  Mn4       1.0  0.5000027238806766  3.339004805992941e-07  0.9999980238786323  1.0000
  H   H1        1.0  0.1592586855864155  0.15305409654947508  0.6117363805715429  1.0000
  H   H2        1.0  0.8407297614806312  0.846943814739447  0.38826454717498393  1.0000
  H   H3        1.0  0.1492934867233018  0.1205192138351663  0.8490294878608325  1.0000
  H   H4        1.0  0.8506978860919077  0.8794739950553347  0.15097204576153445  1.0000
  H   H5        1.0  0.8997190960796502  0.1460158831411036  0.9593095779186811  1.0000
  H   H6        1.0  0.10026134823814917  0.8539890466032815  0.040690378533206256  1.0000
  H   H7        1.0  0.6727965570898532  0.21568670455733496  0.8254648483884283  1.0000
  H   H8        1.0  0.32718899228547826  0.7843265638085202  0.17452418438779185  1.0000
  H   H9        1.0  0.8681913395327355  0.14009393723908659  0.44991566149779066  1.0000
  H   H10       1.0  0.1318005305934804  0.8599087479245711  0.5500749874065961  1.0000
  H   H11       1.0  0.03944428639292848  0.17358327638657298  0.4209847957783737  1.0000
  H   H12       1.0  0.9605505068467578  0.8264170661357254  0.579011844990909  1.0000
  H   H13       1.0  0.8546900591258648  0.33479873723100423  0.3879405951966533  1.0000
  H   H14       1.0  0.14530484433463892  0.6652039733249993  0.6120542251896381  1.0000
  H   H15       1.0  0.6639769850765305  0.6552762505303845  0.04008308574887562  1.0000
  H   H16       1.0  0.3360223850611277  0.34472531202813883  0.959920703644791  1.0000
  H   H17       1.0  0.7128835904099092  0.47139881130503614  0.183831296716825  1.0000
  H   H18       1.0  0.2871107168336024  0.528605068345101  0.8161712264615417  1.0000
  H   H19       1.0  0.8317990398120185  0.5749069096646906  0.14068747358886918  1.0000
  H   H20       1.0  0.1682083383442503  0.42508291492423916  0.8593065151213183  1.0000
  H   H21       1.0  0.22231218266289682  0.31397830026033097  0.271802444160322  1.0000
  H   H22       1.0  0.7776966604608828  0.6860304456801101  0.7282056961405773  1.0000
  H   H23       1.0  0.21846532278120637  0.5097500023268609  0.194790825144061  1.0000
  H   H24       1.0  0.781542457505708  0.49025873135600045  0.805219227583386  1.0000
  H   H25       1.0  0.10341070225675256  0.4594032168335004  0.3304097447887601  1.0000
  H   H26       1.0  0.896602016596553  0.5406008306894492  0.6696042953334782  1.0000
  H   H27       1.0  0.674739536459974  0.9065402770330521  0.5238407909494215  1.0000
  H   H28       1.0  0.3252650773273301  0.09346134164046296  0.47615794029402286  1.0000
  H   H29       1.0  0.6199300349136649  0.067306932694926  0.4080670268324837  1.0000
  H   H30       1.0  0.3800657621004575  0.9326957777036923  0.5919366906853301  1.0000
  H   H31       1.0  0.0342837453813374  0.8017713458844112  0.8546637872754916  1.0000
  H   H32       1.0  0.9657240738156216  0.19821729823000567  0.14533240740418316  1.0000
  H   H33       1.0  0.9769864883291388  0.6481796230973842  0.8881414737524552  1.0000
  H   H34       1.0  0.023013232004693428  0.35181367247336226  0.1118546692190705  1.0000
  H   H35       1.0  0.9916256308952002  0.6981106150793008  0.020499788242084142  1.0000
  H   H36       1.0  0.008375689430060649  0.30188387927363874  0.9794957286858905  1.0000
  H   H37       1.0  0.26904142314610624  0.7765630580431591  0.800221784694493  1.0000
  H   H38       1.0  0.7309627100718146  0.22342672563471666  0.19978154448137533  1.0000
  H   H39       1.0  0.35010610532358294  0.661264235941303  0.9675825674940485  1.0000
  H   H40       1.0  0.6498964958029133  0.3387267138843412  0.032422269731895964  1.0000
  H   H41       1.0  0.45900550861627903  0.637166232980043  0.8293634863196929  1.0000
  H   H42       1.0  0.5410009257615086  0.36283066793372837  0.17064046561566226  1.0000
  C   C1        1.0  0.9263166297950605  0.19849031879459733  0.5924121913583705  1.0000
  C   C2        1.0  0.07367395705265517  0.801507618044063  0.40758401073854605  1.0000
  C   C3        1.0  0.054010155427725685  0.1654690037071873  0.6626304827718245  1.0000
  C   C4        1.0  0.9459787608938794  0.8345277291763792  0.3373708493511742  1.0000
  C   C5        1.0  0.04860187928083089  0.14702126730876589  0.7945521797218191  1.0000
  C   C6        1.0  0.9513864716723431  0.8529742769810297  0.205449667611191  1.0000
  C   C7        1.0  0.9108394947610134  0.1626306921105609  0.8558824655485537  1.0000
  C   C8        1.0  0.08914547529637662  0.8373707340175899  0.14411747073562955  1.0000
  C   C9        1.0  0.7835102696769738  0.20074178375800497  0.7845798651169815  1.0000
  C   C10       1.0  0.21647563873209924  0.799267938168782  0.2154113924187017  1.0000
  C   C11       1.0  0.9236485461300885  0.21225116719725884  0.4542816282570429  1.0000
  C   C12       1.0  0.07634673047110134  0.7877479979542628  0.545714516092211  1.0000
  C   C13       1.0  0.6301958787292746  0.6703940608001486  0.23115784336489759  1.0000
  C   C14       1.0  0.3698196184425058  0.32960884628215575  0.7688410659261466  1.0000
  C   C15       1.0  0.7131690613058834  0.5890706342508238  0.14165857744255564  1.0000
  C   C16       1.0  0.28683542815366553  0.4109286153544004  0.8583428749803731  1.0000
  C   C17       1.0  0.33853544789236156  0.3650163404445195  0.38801210715569573  1.0000
  C   C18       1.0  0.661472776069914  0.6349888530067601  0.6119947655521827  1.0000
  C   C19       1.0  0.21406609583585384  0.4151792044082895  0.28870746901270644  1.0000
  C   C20       1.0  0.7859386229028967  0.5848295018130615  0.7113002138258437  1.0000
  C   C21       1.0  0.7958388475127477  0.8631324718074964  0.8808885188690141  1.0000
  C   C22       1.0  0.20416674973916574  0.13686443340198906  0.11910293274880251  1.0000
  C   C23       1.0  0.9596239131902065  0.7453177788405867  0.9150471085007296  1.0000
  C   C24       1.0  0.040378925119540617  0.25467554832999884  0.08494780117366933  1.0000
  C   C25       1.0  0.422849568470596  0.8495281869153075  0.8484483695876791  1.0000
  C   C26       1.0  0.577148560709375  0.15046863042196174  0.1515582706089944  1.0000
  C   C27       1.0  0.37224141162629115  0.7226259955542955  0.8642839631750975  1.0000
  C   C28       1.0  0.6277612715071398  0.2773673202359035  0.13572085526086403  1.0000
  N   N1        1.0  0.7926272849082566  0.2192710134351614  0.6557890118947967  1.0000
  N   N2        1.0  0.20736349416721822  0.780731657401752  0.3442053510291458  1.0000
  O   O1        1.0  0.6665759478125749  0.2586868989403612  0.5882559265945702  1.0000
  O   O2        1.0  0.33341347729228926  0.7413216710080092  0.4117390060029892  1.0000
  O   O3        1.0  0.6435465833957467  0.5861515533960713  0.35530952261751036  1.0000
  O   O4        1.0  0.3564690892621697  0.4138584464069766  0.6446938342861159  1.0000
  O   O5        1.0  0.5498050504076134  0.821565419669575  0.185207725093811  1.0000
  O   O6        1.0  0.45020621215832063  0.178435079659927  0.8147925471178752  1.0000
  O   O7        1.0  0.4102174283576119  0.4514714506945126  0.3652627228730055  1.0000
  O   O8        1.0  0.5897908379254772  0.5485337458605103  0.6347414474453643  1.0000
  O   O9        1.0  0.36347561664491923  0.23615796477706402  0.4910732452823865  1.0000
  O   O10       1.0  0.6365377266392541  0.7638449157209237  0.5089312904547683  1.0000
  O   O11       1.0  0.7479539511018346  0.918550861555502  0.7610163252003661  1.0000
  O   O12       1.0  0.25205817323564617  0.08144019548461759  0.23897400257614274  1.0000
  O   O13       1.0  0.7187385556374295  0.8967147698238447  0.9738457479214234  1.0000
  O   O14       1.0  0.281265744071625  0.10328803863540509  0.026142670183986614  1.0000
  O   O15       1.0  0.44584561891643654  0.9326444408474898  0.729949366251006  1.0000
  O   O16       1.0  0.5541465767602745  0.0673594153220662  0.2700560809839558  1.0000
  O   O17       1.0  0.43962976852895946  0.8643770642579937  0.952707499748165  1.0000
  O   O18       1.0  0.5603708030376778  0.13561622805163154  0.047300242744391645  1.0000
  O   O19       1.0  0.6708064408907858  0.013907862650135897  0.49834681903949024  1.0000
  O   O20       1.0  0.3291960895435935  0.9860937346119625  0.501653034667534  1.0000
