data_image0
_chemical_formula_structural       Bi4H36C56N8O36
_chemical_formula_sum              "Bi4 H36 C56 N8 O36"
_cell_length_a       7.716776549002093
_cell_length_b       12.691473709805548
_cell_length_c       15.357710622849877
_cell_angle_alpha    108.71865310422729
_cell_angle_beta     90.0000146116976
_cell_angle_gamma    89.99991634814177

_space_group_name_H-M_alt    "P 1"
_space_group_IT_number       1

loop_
  _space_group_symop_operation_xyz
  'x, y, z'

loop_
  _atom_site_type_symbol
  _atom_site_label
  _atom_site_symmetry_multiplicity
  _atom_site_fract_x
  _atom_site_fract_y
  _atom_site_fract_z
  _atom_site_occupancy
  Bi  Bi1       1.0  0.7132675838850631  0.4201682671063408  0.24555585721271458  1.0000
  Bi  Bi2       1.0  0.2132717823420336  0.0798289324439025  0.7544444474450174  1.0000
  Bi  Bi3       1.0  0.2867370893090069  0.5798324267350381  0.7544446036086896  1.0000
  Bi  Bi4       1.0  0.7867315949748316  0.9201717410146418  0.24555861247664987  1.0000
  H   H1        1.0  0.33621483083660303  0.6776497068910601  0.5347365724859117  1.0000
  H   H2        1.0  0.8362135674115906  0.8223519445472576  0.4652627152047586  1.0000
  H   H3        1.0  0.6637859547258954  0.3223493180173663  0.46526408887300624  1.0000
  H   H4        1.0  0.1637859222706481  0.1776487594882568  0.5347364460668516  1.0000
  H   H5        1.0  0.5694727993141129  0.7431667912972343  0.6557261369767531  1.0000
  H   H6        1.0  0.0694724827829845  0.7568351082971957  0.3442731812415616  1.0000
  H   H7        1.0  0.4305266903694047  0.2568330706271027  0.3442740992260696  1.0000
  H   H8        1.0  0.930525711022163  0.24316476891532807  0.6557251056361934  1.0000
  H   H9        1.0  0.9399476069438676  0.5609964987852436  0.453216140290607  1.0000
  H   H10       1.0  0.43994824741680816  0.9390042191317677  0.5467835606842684  1.0000
  H   H11       1.0  0.0600518827388683  0.43900418996268803  0.5467849703061418  1.0000
  H   H12       1.0  0.5600512422652669  0.060996489999602894  0.4532149508122955  1.0000
  H   H13       1.0  0.6470287421389072  0.6050882873649925  0.9717710590717414  1.0000
  H   H14       1.0  0.14702664226727788  0.8949126928710739  0.02822997497692372  1.0000
  H   H15       1.0  0.3529720434226462  0.3949115694628845  0.02822982690604906  1.0000
  H   H16       1.0  0.8529741432929967  0.10508800606797312  0.9717698360696545  1.0000
  H   H17       1.0  0.8007044489610139  0.4617487933122249  0.8450122039171433  1.0000
  H   H18       1.0  0.3007045654153657  0.0382516576689582  0.1549883394344462  1.0000
  H   H19       1.0  0.19929244896691498  0.5382510635174569  0.15498868206087485  1.0000
  H   H20       1.0  0.6993001077793225  0.9617482144446899  0.8450105972179857  1.0000
  H   H21       1.0  0.9281384942401517  0.29176386517788444  0.039742633318731235  1.0000
  H   H22       1.0  0.428138597181153  0.20823314466638723  0.9602563471979195  1.0000
  H   H23       1.0  0.07186229132313568  0.7082343329069475  0.9602571536462604  1.0000
  H   H24       1.0  0.5718634842588982  0.7917658904331547  0.03974301461083482  1.0000
  H   H25       1.0  0.9443560241609815  0.7575150746738828  0.7672413195432952  1.0000
  H   H26       1.0  0.4443556873885939  0.7424839753034148  0.2327579316893491  1.0000
  H   H27       1.0  0.0556447614004085  0.2424847872498503  0.2327589166594564  1.0000
  H   H28       1.0  0.5556438022947602  0.25751589171677847  0.7672416547384272  1.0000
  H   H29       1.0  0.9767426787566648  0.5879036282176102  0.24059848750909654  1.0000
  H   H30       1.0  0.47674478427595796  0.9120970452756509  0.7594025088047189  1.0000
  H   H31       1.0  0.023254219171100498  0.4120962337079349  0.7594017486938753  1.0000
  H   H32       1.0  0.5232534095277899  0.0879044804881914  0.24059817663594169  1.0000
  H   H33       1.0  0.0799602842880773  0.5316503913519455  0.3073814473208358  1.0000
  H   H34       1.0  0.5799600771040402  0.9683498244550536  0.6926187200095555  1.0000
  H   H35       1.0  0.9200379095178945  0.46834946038127606  0.6926200884321574  1.0000
  H   H36       1.0  0.4200381167014342  0.031650042565750894  0.3073808664182991  1.0000
  C   C1        1.0  0.5176106065703577  0.5849387841763445  0.43317544780024525  1.0000
  C   C2        1.0  0.017610018617297395  0.9150623266515509  0.5668243015097048  1.0000
  C   C3        1.0  0.4823901789899238  0.41506191476270266  0.5668243632463401  1.0000
  C   C4        1.0  0.9823894710649412  0.08493837738396344  0.4331748597619053  1.0000
  C   C5        1.0  0.4721304119671146  0.6563749364396899  0.5197479879103852  1.0000
  C   C6        1.0  0.9721291047128131  0.8436265834572367  0.48025193400027183  1.0000
  C   C7        1.0  0.5278703735933303  0.3436257574034941  0.4802524729112463  1.0000
  C   C8        1.0  0.027869089092327194  0.15637329375528006  0.5197463528774833  1.0000
  C   C9        1.0  0.6009523090567228  0.6920434810367053  0.5860306152991015  1.0000
  C   C10       1.0  0.1009531996214079  0.8079583892710148  0.41396869931642044  1.0000
  C   C11       1.0  0.3990471806258427  0.30795721280708227  0.4139698455226011  1.0000
  C   C12       1.0  0.8990475859385396  0.1920423198597518  0.5860298121800651  1.0000
  C   C13       1.0  0.7714043475943554  0.6558628223375749  0.5637694911590643  1.0000
  C   C14       1.0  0.2714025702795198  0.8441388842998735  0.4362304537240149  1.0000
  C   C15       1.0  0.22859773384507778  0.3441370344896981  0.4362313948186554  1.0000
  C   C16       1.0  0.7285956235246828  0.15586182483210112  0.56376805777262  1.0000
  C   C17       1.0  0.8081218101687353  0.588565698040732  0.47371476093172055  1.0000
  C   C18       1.0  0.3081212110324714  0.911435147613439  0.5262843053551834  1.0000
  C   C19       1.0  0.19188027127069768  0.4114341587865411  0.5262861250460061  1.0000
  C   C20       1.0  0.6918782786497671  0.08856555642206841  0.4737148559164268  1.0000
  C   C21       1.0  0.3793378915287207  0.5324268322038037  0.36334916180660304  1.0000
  C   C22       1.0  0.8793337710929023  0.9675722680714782  0.6366513964174486  1.0000
  C   C23       1.0  0.6206667816681843  0.4675713658792162  0.6366506251581682  1.0000
  C   C24       1.0  0.12066442271273559  0.03242759385346261  0.3633488397854521  1.0000
  C   C25       1.0  0.9087311053118299  0.681081413013075  0.6363994799762834  1.0000
  C   C26       1.0  0.40872676125302826  0.8189176853963928  0.3635978260085935  1.0000
  C   C27       1.0  0.09126838437074268  0.3189192808307126  0.3636009808454261  1.0000
  C   C28       1.0  0.5912701366751847  0.18108135989727708  0.6364002362503527  1.0000
  C   C29       1.0  0.7125287651849631  0.5246592140576068  0.07208621085327142  1.0000
  C   C30       1.0  0.2125282095348524  0.9753400464984382  0.9279137166862554  1.0000
  C   C31       1.0  0.2874707245017234  0.47533814191665164  0.9279146510430039  1.0000
  C   C32       1.0  0.787471280145496  0.024662321375977608  0.0720858938231146  1.0000
  C   C33       1.0  0.7129216271626716  0.5355559877833828  0.9846256445100605  1.0000
  C   C34       1.0  0.21292453718348267  0.9644432673096973  0.01537493275935738  1.0000
  C   C35       1.0  0.2870752707671542  0.4644422052073908  0.01537479223020454  1.0000
  C   C36       1.0  0.7870775442554532  0.035556604805151396  0.9846240038932237  1.0000
  C   C37       1.0  0.7976565695738812  0.45469742970777816  0.9138018335700551  1.0000
  C   C38       1.0  0.29765663527710007  0.045302192189495806  0.0861984855114812  1.0000
  C   C39       1.0  0.2023390324761749  0.5453024271225146  0.0861990524080412  1.0000
  C   C40       1.0  0.7023454461629441  0.9546968429100463  0.913800876297266  1.0000
  C   C41       1.0  0.8796261399287669  0.36609941517642147  0.9326420413425964  1.0000
  C   C42       1.0  0.3796285749523278  0.1338992985420191  0.06735804373879262  1.0000
  C   C43       1.0  0.1203720538787678  0.6338987829096112  0.06735774562254451  1.0000
  C   C44       1.0  0.6203748023648145  0.8661005633805132  0.9326421924638097  1.0000
  C   C45       1.0  0.868537096532151  0.36010971769481154  0.022012905931049372  1.0000
  C   C46       1.0  0.3685399643875157  0.1398890114356988  0.9779865306443651  1.0000
  C   C47       1.0  0.131461097273494  0.6398901442301295  0.9779873302718441  1.0000
  C   C48       1.0  0.6314621170508018  0.8601116824068882  0.022013930177188064  1.0000
  C   C49       1.0  0.6306901092825612  0.6082424287428126  0.15404781748756596  1.0000
  C   C50       1.0  0.130691010372729  0.8917569028531745  0.8459527691930758  1.0000
  C   C51       1.0  0.36931067628311337  0.39175409021553537  0.8459534695648117  1.0000
  C   C52       1.0  0.8693097751842129  0.1082463071318074  0.1540457663850034  1.0000
  C   C53       1.0  0.984661016364889  0.2795188997641489  0.8627190218978528  1.0000
  C   C54       1.0  0.48466068564392367  0.22048138007799886  0.1372815004005759  1.0000
  C   C55       1.0  0.015337177441864497  0.7204801251454784  0.13728163946121452  1.0000
  C   C56       1.0  0.5153400999155763  0.7795201456846357  0.8627191850399356  1.0000
  N   N1        1.0  0.6829607679581073  0.5536201603633658  0.4104885034070591  1.0000
  N   N2        1.0  0.18296011579015212  0.9463799647158596  0.5895110023602612  1.0000
  N   N3        1.0  0.3170413134809992  0.44637970665562693  0.5895110830205752  1.0000
  N   N4        1.0  0.8170380780151587  0.053619907400801  0.4104879342925399  1.0000
  N   N5        1.0  0.7868487663372363  0.43745940448317816  0.08921048424603134  1.0000
  N   N6        1.0  0.28684789967446983  0.06253856363038321  0.9107893868347147  1.0000
  N   N7        1.0  0.21315201922699598  0.5625379616822032  0.9107890781000806  1.0000
  N   N8        1.0  0.7131528858861386  0.9374621251169446  0.08921172376196308  1.0000
  O   O1        1.0  0.42397318658966304  0.45326453925273574  0.29118095520537685  1.0000
  O   O2        1.0  0.9239701142133682  0.046733306387551514  0.7088182504070346  1.0000
  O   O3        1.0  0.5760275989748961  0.546732816720926  0.7088199066908274  1.0000
  O   O4        1.0  0.0760280795927244  0.9532657389055146  0.29117981185184055  1.0000
  O   O5        1.0  0.2263128211198051  0.5659282647213075  0.38249782127441984  1.0000
  O   O6        1.0  0.7263100677670877  0.9340709982996954  0.6175001553625562  1.0000
  O   O7        1.0  0.7736879644412512  0.4340716073941452  0.6175011153782393  1.0000
  O   O8        1.0  0.27368812603916837  0.06592804189751432  0.3824985566713721  1.0000
  O   O9        1.0  0.059903920758174  0.6469395813995789  0.6211540486131639  1.0000
  O   O10       1.0  0.5599077245081502  0.8530614951756448  0.3788450460811604  1.0000
  O   O11       1.0  0.9400968648022711  0.353061112443612  0.37884641220846754  1.0000
  O   O12       1.0  0.44009435693094906  0.1469383718433477  0.6211545403464668  1.0000
  O   O13       1.0  0.8487008076765719  0.7401034378302568  0.71816161722613  1.0000
  O   O14       1.0  0.34870045311065917  0.7598981917999126  0.2818389685856033  1.0000
  O   O15       1.0  0.1512986820059936  0.259897256013538  0.2818388435955725  1.0000
  O   O16       1.0  0.65129774069387  0.24010250714034242  0.7181608424611241  1.0000
  O   O17       1.0  0.6246772832237822  0.584241451203745  0.22900893569083547  1.0000
  O   O18       1.0  0.12467938562555499  0.9157570591619618  0.7709907772839557  1.0000
  O   O19       1.0  0.37532220646195913  0.41575673668996427  0.770992150824327  1.0000
  O   O20       1.0  0.8753201040568541  0.08424363977768222  0.22900903376270068  1.0000
  O   O21       1.0  0.5695582571755083  0.697615175798049  0.14718764492324252  1.0000
  O   O22       1.0  0.06955937668219289  0.8023842177661321  0.8528122989786624  1.0000
  O   O23       1.0  0.4304451201427426  0.3023838491091695  0.8528130164355259  1.0000
  O   O24       1.0  0.9304452965117134  0.19761648117110303  0.1471875120676955  1.0000
  O   O25       1.0  0.0394956009614518  0.29859575756034223  0.7912670252003906  1.0000
  O   O26       1.0  0.5394945025648211  0.20140493643030774  0.20873354804572133  1.0000
  O   O27       1.0  0.9605038887211208  0.7014049362834458  0.20873343562131208  1.0000
  O   O28       1.0  0.46050628299467883  0.7985965893323341  0.7912671373947902  1.0000
  O   O29       1.0  0.0209815450350845  0.191336149115827  0.8818223467566497  1.0000
  O   O30       1.0  0.5209775523211418  0.3086645570043842  0.1181788783835458  1.0000
  O   O31       1.0  0.9790179446482623  0.8086637179043733  0.11817723967113383  1.0000
  O   O32       1.0  0.4790206414829399  0.691336958567746  0.8818231066072074  1.0000
  O   O33       1.0  0.9840061610763299  0.5196441275656555  0.259758012402564  1.0000
  O   O34       1.0  0.48400420530838056  0.9803548906207807  0.7402405845173021  1.0000
  O   O35       1.0  0.015993328607350997  0.48035572926282555  0.7402428735753048  1.0000
  O   O36       1.0  0.5159952843730764  0.019646640238320898  0.2597594511482342  1.0000
