data_image0
_chemical_formula_structural       Cu4H24C16N12O8
_chemical_formula_sum              "Cu4 H24 C16 N12 O8"
_cell_length_a       6.691809191803029
_cell_length_b       7.265301662159092
_cell_length_c       15.747160362144879
_cell_angle_alpha    81.08189825370061
_cell_angle_beta     77.7590529846275
_cell_angle_gamma    62.599236168822166

_space_group_name_H-M_alt    "P 1"
_space_group_IT_number       1

loop_
  _space_group_symop_operation_xyz
  'x, y, z'

loop_
  _atom_site_type_symbol
  _atom_site_label
  _atom_site_symmetry_multiplicity
  _atom_site_fract_x
  _atom_site_fract_y
  _atom_site_fract_z
  _atom_site_occupancy
  Cu  Cu1       1.0  0.8255428936796814  0.4113233173981784  0.493735508536588  1.0000
  Cu  Cu2       1.0  0.26956699294438374  0.9113543498273345  0.9936612948576453  1.0000
  Cu  Cu3       1.0  0.17445796696463833  0.5886656368665085  0.506256178954601  1.0000
  Cu  Cu4       1.0  0.7304520717369698  0.0886364404651729  0.006337179979730939  1.0000
  H   H1        1.0  0.9819503907621293  0.7849649854645758  0.7109764928520619  1.0000
  H   H2        1.0  0.5221677285116825  0.2851915470897596  0.21109225633556147  1.0000
  H   H3        1.0  0.018026568313217715  0.21506307055246043  0.289020315161018  1.0000
  H   H4        1.0  0.4778159914317043  0.7147905216142975  0.7889213769585766  1.0000
  H   H5        1.0  0.23121663270496334  0.8230995688504734  0.6910033020201922  1.0000
  H   H6        1.0  0.25496614015581537  0.32316988080095405  0.1909977660720656  1.0000
  H   H7        1.0  0.7687563167283856  0.17690670352283883  0.3089934812220747  1.0000
  H   H8        1.0  0.74506151120412  0.6767902117673614  0.8090109422757976  1.0000
  H   H9        1.0  0.4761860767941427  0.47146946729182565  0.651147388879366  1.0000
  H   H10       1.0  0.40148083444583454  0.9713423726119004  0.1512592122415199  1.0000
  H   H11       1.0  0.5237984857869618  0.5285463391686704  0.34885421917987003  1.0000
  H   H12       1.0  0.5985420373517132  0.028631624367953603  0.8487471085122565  1.0000
  H   H13       1.0  0.2839769254867975  0.4450831085069352  0.7438686329713917  1.0000
  H   H14       1.0  0.5273246856859117  0.9452427893010339  0.2440029562325492  1.0000
  H   H15       1.0  0.7160173489779423  0.554935424516934  0.2561235084261924  1.0000
  H   H16       1.0  0.4726868656042169  0.054732572288223494  0.7559987270959283  1.0000
  H   H17       1.0  0.07169265330431784  0.4108070308398196  0.6428017545517903  1.0000
  H   H18       1.0  0.8746679083526417  0.9112880455906733  0.14297200843079594  1.0000
  H   H19       1.0  0.928292325885948  0.5892037637990697  0.35719142445440605  1.0000
  H   H20       1.0  0.1253474596503565  0.08868600465415001  0.8570356456790548  1.0000
  H   H21       1.0  0.34414409948239205  0.2558839382956677  0.6100768313500922  1.0000
  H   H22       1.0  0.7900908221023785  0.7559267170025521  0.11028789126758914  1.0000
  H   H23       1.0  0.655850681528747  0.744130184078216  0.3899215975379562  1.0000
  H   H24       1.0  0.2099210764820259  0.2440611861215984  0.889716108586164  1.0000
  C   C1        1.0  0.9824731596622128  0.006117971247945802  0.45351742242039716  1.0000
  C   C2        1.0  0.5577376987490578  0.5060793170761357  0.9535081419122591  1.0000
  C   C3        1.0  0.01752964682717099  0.9938682212134181  0.5464828233540899  1.0000
  C   C4        1.0  0.44227214074810217  0.4939059213007794  0.0465068078895712  1.0000
  C   C5        1.0  0.14967439710250857  0.7414519654810473  0.6690568888523458  1.0000
  C   C6        1.0  0.44003319343450176  0.24147992780044794  0.1691406708399441  1.0000
  C   C7        1.0  0.8503023433570857  0.25856951918272836  0.33093140262634085  1.0000
  C   C8        1.0  0.5599840003790387  0.7585094120331634  0.8308603914993498  1.0000
  C   C9        1.0  0.2971238136426847  0.5063186609019041  0.6757197056124937  1.0000
  C   C10       1.0  0.5210759448488177  0.006301493041434001  0.17579689596412615  1.0000
  C   C11       1.0  0.7028373884237739  0.4937110551683899  0.3242797149348391  1.0000
  C   C12       1.0  0.4789320527478437  0.9937004613498033  0.8242083079282807  1.0000
  C   C13       1.0  0.3568657555764715  0.20435043913126794  0.4114262012444101  1.0000
  C   C14       1.0  0.026688559741984308  0.7043335833382898  0.9114275855819827  1.0000
  C   C15       1.0  0.6431430853115286  0.795652703782217  0.5885700068708245  1.0000
  C   C16       1.0  0.9733358842660988  0.2956741831724443  0.08856748492715384  1.0000
  N   N1        1.0  0.8826392277950317  0.1977669999924956  0.42115777021529516  1.0000
  N   N2        1.0  0.49826677751029547  0.6977044757914684  0.9210915249915814  1.0000
  N   N3        1.0  0.117351424015929  0.802239120327009  0.5788352213120547  1.0000
  N   N4        1.0  0.5017415825179299  0.3022865541370834  0.0789128581781497  1.0000
  N   N5        1.0  0.228330296024218  0.407663147099484  0.6193092734317815  1.0000
  N   N6        1.0  0.7448391138421897  0.9078082022071144  0.1194241690044535  1.0000
  N   N7        1.0  0.7716476854415789  0.5923475599571616  0.38068178895697  1.0000
  N   N8        1.0  0.25517636299235125  0.0921734035171085  0.8805780059086246  1.0000
  N   N9        1.0  0.7353381554943822  0.6154784900491634  0.5740444341247937  1.0000
  N   N10       1.0  0.075594463580174  0.11559508735434319  0.073927835819255  1.0000
  N   N11       1.0  0.2646641395616101  0.3845185117937788  0.4259538157298692  1.0000
  N   N12       1.0  0.9243921086202744  0.884439351912114  0.9260728470578812  1.0000
  O   O1        1.0  0.04789795673745079  0.8382438746892047  0.4165267756123399  1.0000
  O   O2        1.0  0.6968348763130547  0.3381030135726846  0.916555292701794  1.0000
  O   O3        1.0  0.952078426653898  0.16177786590289137  0.5834677824823586  1.0000
  O   O4        1.0  0.3031758959363487  0.6618882843008578  0.08345564040241267  1.0000
  O   O5        1.0  0.44407914852661173  0.0262252709266093  0.392006386684443  1.0000
  O   O6        1.0  0.13703798452817734  0.5262371293323085  0.8919344419666402  1.0000
  O   O7        1.0  0.5559239157961425  0.9737685920952542  0.6079911965357708  1.0000
  O   O8        1.0  0.8629577747688086  0.473764943605545  0.10807371195638639  1.0000
