data_image0
_chemical_formula_structural       Cd2H24C12N4O18
_chemical_formula_sum              "Cd2 H24 C12 N4 O18"
_cell_length_a       5.157698539474088
_cell_length_b       5.157689012342562
_cell_length_c       23.29939101659608
_cell_angle_alpha    98.22894514362645
_cell_angle_beta     98.22865867326522
_cell_angle_gamma    83.64881561112453

_space_group_name_H-M_alt    "P 1"
_space_group_IT_number       1

loop_
  _space_group_symop_operation_xyz
  'x, y, z'

loop_
  _atom_site_type_symbol
  _atom_site_label
  _atom_site_symmetry_multiplicity
  _atom_site_fract_x
  _atom_site_fract_y
  _atom_site_fract_z
  _atom_site_occupancy
  Cd  Cd1       1.0  0.08205220664324742  0.9178566006584179  0.7500015437201456  1.0000
  Cd  Cd2       1.0  0.9178612598566713  0.08209744613727575  0.250003979377631  1.0000
  H   H1        1.0  0.7498281599730418  0.041084514085326894  0.9313559308148811  1.0000
  H   H2        1.0  0.9589347418449918  0.25018398110253776  0.5686238294525553  1.0000
  H   H3        1.0  0.25015147168071644  0.9589083895767347  0.06861694000605213  1.0000
  H   H4        1.0  0.04114589985194781  0.7497744035310777  0.4313769073284918  1.0000
  H   H5        1.0  0.5055885024874553  0.8490449153509093  0.890325806889102  1.0000
  H   H6        1.0  0.15097843227965765  0.4943513759795837  0.6096683613125649  1.0000
  H   H7        1.0  0.49429078301895385  0.15096939833021855  0.1096663796301272  1.0000
  H   H8        1.0  0.8490266245194533  0.5056333346399029  0.39031945788596545  1.0000
  H   H9        1.0  0.610601925744156  0.5790534343767109  0.9602634968334557  1.0000
  H   H10       1.0  0.42094464963678746  0.38938852802546364  0.53974083912226  1.0000
  H   H11       1.0  0.38940358451496576  0.42097501876608606  0.0397535258790853  1.0000
  H   H12       1.0  0.5790719558013677  0.6105735130065427  0.4602472184003262  1.0000
  H   H13       1.0  0.5483799460172633  0.13324022319058323  0.8212047404025071  1.0000
  H   H14       1.0  0.8667889283703826  0.4515607240401211  0.6787973629770079  1.0000
  H   H15       1.0  0.4515875293993118  0.8668185596108061  0.17880784008625034  1.0000
  H   H16       1.0  0.13325628427219266  0.5483823403371632  0.3212033568892494  1.0000
  H   H17       1.0  0.4005030327738836  0.43780772429973785  0.7690508995391242  1.0000
  H   H18       1.0  0.5622190812289604  0.5994898055018896  0.7309686582134066  1.0000
  H   H19       1.0  0.5994511126085129  0.5622568533064727  0.23096284313672302  1.0000
  H   H20       1.0  0.4378404651856726  0.40048163040486184  0.2690478819741315  1.0000
  H   H21       1.0  0.2729821484948047  0.32420928138908783  0.8370042096892976  1.0000
  H   H22       1.0  0.6758288032681249  0.7269369069957111  0.662989281333779  1.0000
  H   H23       1.0  0.7269379199501811  0.6758366965937698  0.16299267826142483  1.0000
  H   H24       1.0  0.3242431114473447  0.2730042081322353  0.3370088509203343  1.0000
  C   C1        1.0  0.874430680677534  0.7976488814514585  0.856109705126265  1.0000
  C   C2        1.0  0.20234875799991403  0.12552966625106174  0.6438858932577461  1.0000
  C   C3        1.0  0.12552130053759208  0.20236693163563058  0.1438833351248405  1.0000
  C   C4        1.0  0.7976972258038586  0.8744681841785824  0.3561226826819066  1.0000
  C   C5        1.0  0.7154299819911355  0.8445793388278134  0.907756118525036  1.0000
  C   C6        1.0  0.15542054485159434  0.28451903060404504  0.5922402835338616  1.0000
  C   C7        1.0  0.2844646201830869  0.15540210765389875  0.0922361949915285  1.0000
  C   C8        1.0  0.8446381626869695  0.7154570613240879  0.4077655506688346  1.0000
  C   C9        1.0  0.0035284028111277517  0.599159414834226  0.9784162323433989  1.0000
  C   C10       1.0  0.40088834290628467  0.9964434976128659  0.5215738639404108  1.0000
  C   C11       1.0  0.9964222662506541  0.40088196142117033  0.021570764555825395  1.0000
  C   C12       1.0  0.5991713823407351  0.003544601959056627  0.4784205619457112  1.0000
  N   N1        1.0  0.7680716339187015  0.6501370222480605  0.9476252408834045  1.0000
  N   N2        1.0  0.34989714369645947  0.23190022633298926  0.5523802179684125  1.0000
  N   N3        1.0  0.23187562839494544  0.3498806229168424  0.05237205821697442  1.0000
  N   N4        1.0  0.6501355247394968  0.7680897318026113  0.4476228201809462  1.0000
  O   O1        1.0  0.36183294035342317  0.20625358625319734  0.8071579541397398  1.0000
  O   O2        1.0  0.793738842448846  0.6381014409933815  0.6928275870205881  1.0000
  O   O3        1.0  0.6381224904935221  0.7937325141012653  0.19283463137770704  1.0000
  O   O4        1.0  0.20629767820831543  0.3618260444758264  0.30716323318402067  1.0000
  O   O5        1.0  0.401196211722798  0.5989104331434306  0.7500237741393079  1.0000
  O   O6        1.0  0.598904111600376  0.40120671381984624  0.2500145229438431  1.0000
  O   O7        1.0  0.8317690308525911  0.9897116432764296  0.8241728831508937  1.0000
  O   O8        1.0  0.010287473953908877  0.16825765880545163  0.6758433924326752  1.0000
  O   O9        1.0  0.16825344560918146  0.010314387348437008  0.17584913108378694  1.0000
  O   O10       1.0  0.989757625812892  0.8317354681997459  0.3241620702355164  1.0000
  O   O11       1.0  0.02723286254338573  0.5982064589462938  0.8459003856975473  1.0000
  O   O12       1.0  0.4017665571671642  0.9726892503091238  0.6541034852480153  1.0000
  O   O13       1.0  0.9727447233452575  0.401826296355033  0.15410717947728614  1.0000
  O   O14       1.0  0.5982364368768528  0.027248117563622998  0.3459007138442445  1.0000
  O   O15       1.0  0.2099353390289878  0.6964422481313054  0.9743526393145888  1.0000
  O   O16       1.0  0.30363202982944404  0.7900188285524977  0.5256181667466963  1.0000
  O   O17       1.0  0.7899801663268846  0.30364907796332835  0.025625134187947703  1.0000
  O   O18       1.0  0.6964750743552058  0.20995027678714717  0.4743638240904957  1.0000
