data_image0
_chemical_formula_structural       Cd4H28C20N4Cl8O8
_chemical_formula_sum              "Cd4 H28 C20 N4 Cl8 O8"
_cell_length_a       6.284758819081457
_cell_length_b       7.363895719005752
_cell_length_c       19.269796902262122
_cell_angle_alpha    90.0000197869837
_cell_angle_beta     89.99941102337466
_cell_angle_gamma    90.00009845593979

_space_group_name_H-M_alt    "P 1"
_space_group_IT_number       1

loop_
  _space_group_symop_operation_xyz
  'x, y, z'

loop_
  _atom_site_type_symbol
  _atom_site_label
  _atom_site_symmetry_multiplicity
  _atom_site_fract_x
  _atom_site_fract_y
  _atom_site_fract_z
  _atom_site_occupancy
  Cd  Cd1       1.0  0.9881405685661943  0.059147561345767485  0.750903013421336  1.0000
  Cd  Cd2       1.0  0.5118594895194873  0.9408529081771632  0.2509042734003941  1.0000
  Cd  Cd3       1.0  0.011855653226426496  0.5591474571095604  0.7490955981828834  1.0000
  Cd  Cd4       1.0  0.48814427469785227  0.440851248803419  0.24909628260466118  1.0000
  H   H1        1.0  0.30284900367816897  0.33782984144740885  0.5991350433331348  1.0000
  H   H2        1.0  0.1971636712856295  0.6621713884688845  0.099133074386387  1.0000
  H   H3        1.0  0.6971496228279007  0.837834558194224  0.90086618446324  1.0000
  H   H4        1.0  0.8028583731365302  0.16217289317410177  0.4008684980204862  1.0000
  H   H5        1.0  0.4375412462790889  0.8094688783622385  0.6595667159959858  1.0000
  H   H6        1.0  0.06245358630927458  0.19052563901941968  0.1595687887753314  1.0000
  H   H7        1.0  0.5624493416768458  0.30947554370743546  0.8404345096296241  1.0000
  H   H8        1.0  0.9375446736678794  0.6905209664814789  0.3404296721732649  1.0000
  H   H9        1.0  0.34277926036415346  0.2568318882030809  0.47188350328062983  1.0000
  H   H10       1.0  0.1572342344961442  0.7431779667040671  0.9718823523257569  1.0000
  H   H11       1.0  0.6572271489129732  0.7568279477533222  0.0281170385481957  1.0000
  H   H12       1.0  0.8427720714472214  0.24318038445763787  0.5281178302748729  1.0000
  H   H13       1.0  0.4352902777638689  0.9366758615271563  0.44005481063400254  1.0000
  H   H14       1.0  0.06470991365193869  0.06333395263347089  0.9400544322008811  1.0000
  H   H15       1.0  0.564726203404568  0.43666587394483974  0.05994885870900651  1.0000
  H   H16       1.0  0.935281546903816  0.5633411410355151  0.5599452176275506  1.0000
  H   H17       1.0  0.4878902688844987  0.7092745709044974  0.5362285360166581  1.0000
  H   H18       1.0  0.012097366289495396  0.29072522050604016  0.0362318209084762  1.0000
  H   H19       1.0  0.5121127557704382  0.2092718476790054  0.9637716439782408  1.0000
  H   H20       1.0  0.9878900482052159  0.7907302522945798  0.463764571987646  1.0000
  H   H21       1.0  0.5320243226629201  0.03927610462076099  0.7550527466814074  1.0000
  H   H22       1.0  0.9679771940343966  0.9607270861666348  0.25505146204192647  1.0000
  H   H23       1.0  0.4679734322407683  0.5392750050183466  0.744947420230389  1.0000
  H   H24       1.0  0.03202662823942149  0.46072097963014597  0.24494650075926222  1.0000
  H   H25       1.0  0.6270611933324018  0.8640298342084022  0.79245571401718  1.0000
  H   H26       1.0  0.8729391283344509  0.13597204647869177  0.29245468012513237  1.0000
  H   H27       1.0  0.3729391008064624  0.3640293866973963  0.7075455157939388  1.0000
  H   H28       1.0  0.12706374582594288  0.6359706240070934  0.2075442955615259  1.0000
  C   C1        1.0  0.3432229609871626  0.20254140122578687  0.5809536692127892  1.0000
  C   C2        1.0  0.15678233907284775  0.7974598054165939  0.0809544389369208  1.0000
  C   C3        1.0  0.656767314807922  0.7025420347434874  0.9190465102847797  1.0000
  C   C4        1.0  0.8432194154184315  0.29745457606864517  0.4190424734005731  1.0000
  C   C5        1.0  0.42129324411666846  0.9016089319471803  0.6159425191118189  1.0000
  C   C6        1.0  0.07869979997570911  0.09838824554687159  0.1159440121237907  1.0000
  C   C7        1.0  0.5786960217179028  0.40160344444459634  0.8840555999303988  1.0000
  C   C8        1.0  0.9213045557000256  0.5983904056288694  0.3840497711978728  1.0000
  C   C9        1.0  0.36603155046157804  0.15461293092470638  0.5119933802692884  1.0000
  C   C10       1.0  0.13397595290860656  0.8453922613770288  0.0119926722623234  1.0000
  C   C11       1.0  0.6339760880242904  0.6546109183702382  0.988009390242567  1.0000
  C   C12       1.0  0.8660338971698495  0.3453898546599561  0.48801099006202964  1.0000
  C   C13       1.0  0.4185107825898625  0.9762052379303227  0.49426765829598207  1.0000
  C   C14       1.0  0.08149085897742475  0.0237978557422167  0.9942698160648858  1.0000
  C   C15       1.0  0.5814899025572017  0.476201984363925  0.0057313435961603  1.0000
  C   C16       1.0  0.9185132154410665  0.5238076771666654  0.5057251601765884  1.0000
  C   C17       1.0  0.4464694557367963  0.8498373882767395  0.5472868478944832  1.0000
  C   C18       1.0  0.05352737305720008  0.1501624172913765  0.0472884281382235  1.0000
  C   C19       1.0  0.5535053385593682  0.34984147418148837  0.9527143808659915  1.0000
  C   C20       1.0  0.9464755424477147  0.6501606116350301  0.45271573810946114  1.0000
  N   N1        1.0  0.37155400156601803  0.07604182643231641  0.6315753238400461  1.0000
  N   N2        1.0  0.12844649883568587  0.9239526551204021  0.131575159103221  1.0000
  N   N3        1.0  0.6284406783440133  0.5760505201645356  0.8684274406427478  1.0000
  N   N4        1.0  0.8715540337003699  0.4239405939517623  0.368426952445752  1.0000
  Cl  Cl1       1.0  0.06799754055776928  0.3071287621558766  0.8433839829313995  1.0000
  Cl  Cl2       1.0  0.4320025571540782  0.6928714224260305  0.3433848724073627  1.0000
  Cl  Cl3       1.0  0.9319978140414092  0.8071279237870499  0.6566151667185096  1.0000
  Cl  Cl4       1.0  0.5679988919548008  0.19287106706567406  0.1566151455572609  1.0000
  Cl  Cl5       1.0  0.8483198629143159  0.3116455960053344  0.6685251157179124  1.0000
  Cl  Cl6       1.0  0.6516828271604568  0.6883547680719245  0.1685253749512725  1.0000
  Cl  Cl7       1.0  0.15167073140344198  0.8116457099986928  0.8314750721814123  1.0000
  Cl  Cl8       1.0  0.34831860875408427  0.18835445933461156  0.3314751616123743  1.0000
  O   O1        1.0  0.34653216242079304  0.1250539597849851  0.6980488232794642  1.0000
  O   O2        1.0  0.15346939646082086  0.8749378909020604  0.1980480530790061  1.0000
  O   O3        1.0  0.6534610694637805  0.6250598726567986  0.8019513502459859  1.0000
  O   O4        1.0  0.8465341753677149  0.3749338723211721  0.3019493841690776  1.0000
  O   O5        1.0  0.6407676113137554  0.9985564576916204  0.7894961427690887  1.0000
  O   O6        1.0  0.8592312137578728  0.0014440612296908995  0.2894951438427498  1.0000
  O   O7        1.0  0.35922989328449256  0.49855736088790786  0.7105040595131625  1.0000
  O   O8        1.0  0.14076967651315897  0.5014426536025737  0.21050330254013264  1.0000
