data_image0
_chemical_formula_structural       Co2H12C28N8Cl4O8
_chemical_formula_sum              "Co2 H12 C28 N8 Cl4 O8"
_cell_length_a       9.737266595298507
_cell_length_b       9.73760334923037
_cell_length_c       9.926204950321841
_cell_angle_alpha    68.86772084551554
_cell_angle_beta     68.84045131127407
_cell_angle_gamma    67.1054174338905

_space_group_name_H-M_alt    "P 1"
_space_group_IT_number       1

loop_
  _space_group_symop_operation_xyz
  'x, y, z'

loop_
  _atom_site_type_symbol
  _atom_site_label
  _atom_site_symmetry_multiplicity
  _atom_site_fract_x
  _atom_site_fract_y
  _atom_site_fract_z
  _atom_site_occupancy
  Co  Co1       1.0  0.40092668121538827  0.5992686556244634  0.7498286242105366  1.0000
  Co  Co2       1.0  0.6070935120827201  0.392834444798602  0.24993864241294972  1.0000
  H   H1        1.0  0.7468540983643307  0.6332460251522888  0.6476098417863414  1.0000
  H   H2        1.0  0.36680455076773916  0.25263764944497064  0.8528053489630026  1.0000
  H   H3        1.0  0.27576789105884814  0.37040941859778087  0.36490622439634995  1.0000
  H   H4        1.0  0.6295826229704318  0.7240623569335012  0.13520379452876352  1.0000
  H   H5        1.0  0.957312637347556  0.6058604647422071  0.4131419641944376  1.0000
  H   H6        1.0  0.39423302580426167  0.0424168292565525  0.08738090257809013  1.0000
  H   H7        1.0  0.07278345508946417  0.40496440340719175  0.6033128029926759  1.0000
  H   H8        1.0  0.5950924460937516  0.9270698447606092  0.8969250178101263  1.0000
  H   H9        1.0  0.12050198416271482  0.5174160529083877  0.7728312024716929  1.0000
  H   H10       1.0  0.482779903160946  0.8793609619961058  0.7272934305185359  1.0000
  H   H11       1.0  0.9207226113512021  0.4992810922930744  0.2320475230749467  1.0000
  H   H12       1.0  0.5006656515563108  0.0794808161930831  0.26824544981050746  1.0000
  C   C1        1.0  0.7347052954323415  0.5960708498858266  0.562656243691805  1.0000
  C   C2        1.0  0.4039851862169144  0.2648901413907437  0.9376953491086013  1.0000
  C   C3        1.0  0.2903425034261461  0.4147332723354252  0.4432107270269298  1.0000
  C   C4        1.0  0.5853329964541416  0.7095099998360439  0.05684277695419133  1.0000
  C   C5        1.0  0.8523497507913759  0.5779562221835163  0.43340272350557285  1.0000
  C   C6        1.0  0.4220964176300512  0.14741937456960127  0.06697976602862352  1.0000
  C   C7        1.0  0.1782738743662265  0.43489717438902176  0.5753107187477511  1.0000
  C   C8        1.0  0.565200216955958  0.8215873751552677  0.9248291939690532  1.0000
  C   C9        1.0  0.8315111745014007  0.5228564416588812  0.33253851807046425  1.0000
  C   C10       1.0  0.477168436216509  0.16851677258505046  0.16769238608414833  1.0000
  C   C11       1.0  0.2036423416861268  0.49431919600997515  0.6693734052926105  1.0000
  C   C12       1.0  0.5058786294491072  0.7962204091189304  0.8306948401653074  1.0000
  C   C13       1.0  0.5887519690924992  0.5240195681950224  0.47980717069903983  1.0000
  C   C14       1.0  0.476058493223384  0.411099975983049  0.020187062932009867  1.0000
  C   C15       1.0  0.4431848727860341  0.49869856488372477  0.5067327023537089  1.0000
  C   C16       1.0  0.5014433583677443  0.5567048982513966  0.9931348248190376  1.0000
  C   C17       1.0  0.10121185173247235  0.8195922864250775  0.8271500842480961  1.0000
  C   C18       1.0  0.18061469965802968  0.8994322041095086  0.6720131428908545  1.0000
  C   C19       1.0  0.884492224733904  0.1864387815502369  0.1712075041219308  1.0000
  C   C20       1.0  0.8134812116363365  0.11555738766700327  0.32873691814513956  1.0000
  C   C21       1.0  0.9583705594289644  0.901782227113358  0.9012378926335811  1.0000
  C   C22       1.0  0.0978456550812012  0.0421489984848336  0.5983548966344046  1.0000
  C   C23       1.0  0.02722712683352311  0.10782645204025695  0.09521391069058892  1.0000
  C   C24       1.0  0.8920378507265668  0.9728721665125164  0.4047135234656452  1.0000
  C   C25       1.0  0.8720694909827033  0.0503418343356969  0.8311129343658975  1.0000
  C   C26       1.0  0.9492840159016253  0.12805882910902258  0.6689431416659489  1.0000
  C   C27       1.0  0.11436804696212019  0.9602497683756681  0.16728320172647676  1.0000
  C   C28       1.0  0.03966885397014864  0.8856616497151107  0.33264080480453373  1.0000
  N   N1        1.0  0.6010498978016444  0.5691535491690232  0.58721764161681  1.0000
  N   N2        1.0  0.4308484333833391  0.39853840762356885  0.9130516134617181  1.0000
  N   N3        1.0  0.4242337170040003  0.4456689197591714  0.40889970330707837  1.0000
  N   N4        1.0  0.5543852701077654  0.5756613698047416  0.09103034758795299  1.0000
  N   N5        1.0  0.6974815217503194  0.4987989622570623  0.35518096823510337  1.0000
  N   N6        1.0  0.5012876764246315  0.3025616505622537  0.14487437818753793  1.0000
  N   N7        1.0  0.3375312598735504  0.5254630811257428  0.6349754261235888  1.0000
  N   N8        1.0  0.4748330416546054  0.66233671312672  0.8649049181488309  1.0000
  Cl  Cl1       1.0  0.8757767203923377  0.8181572410817138  0.08458857172379917  1.0000
  Cl  Cl2       1.0  0.1810829277330086  0.12508831965265443  0.41496571083229833  1.0000
  Cl  Cl3       1.0  0.1019038948414135  0.18977481066782073  0.9094210364674495  1.0000
  Cl  Cl4       1.0  0.8099710801083335  0.8982746353656736  0.5905029945157096  1.0000
  O   O1        1.0  0.1724174461383683  0.6784526229264571  0.8804319110929555  1.0000
  O   O2        1.0  0.3217959959549717  0.8287513147666412  0.6184116127987381  1.0000
  O   O3        1.0  0.8022480158096456  0.3241481378157332  0.11549875886173294  1.0000
  O   O4        1.0  0.6757270988356652  0.19785200684373183  0.3844459854570204  1.0000
  O   O5        1.0  0.738630053393564  0.12024511367621932  0.8903362737899199  1.0000
  O   O6        1.0  0.8789980379280138  0.2614597483387299  0.6102082695508743  1.0000
  O   O7        1.0  0.24616670026890833  0.8879544765569418  0.10698889656063672  1.0000
  O   O8        1.0  0.11190575332159369  0.7538992947357456  0.39290981745978126  1.0000
