data_image0
_chemical_formula_structural       Zn2H32C26N2O12
_chemical_formula_sum              "Zn2 H32 C26 N2 O12"
_cell_length_a       9.935451426407678
_cell_length_b       11.041748686494659
_cell_length_c       11.892563971611317
_cell_angle_alpha    86.74970015152518
_cell_angle_beta     77.74978540225375
_cell_angle_gamma    84.48655897729593

_space_group_name_H-M_alt    "P 1"
_space_group_IT_number       1

loop_
  _space_group_symop_operation_xyz
  'x, y, z'

loop_
  _atom_site_type_symbol
  _atom_site_label
  _atom_site_symmetry_multiplicity
  _atom_site_fract_x
  _atom_site_fract_y
  _atom_site_fract_z
  _atom_site_occupancy
  Zn  Zn1       1.0  0.6399096474424936  0.5128229988765727  0.47525095665864114  1.0000
  Zn  Zn2       1.0  0.35033711147976715  0.4788049838105623  0.5368141235109861  1.0000
  H   H1        1.0  0.37992139407327125  0.10171328150325111  0.5742876432084787  1.0000
  H   H2        1.0  0.59091563509471  0.0853512588454706  0.07446470156752842  1.0000
  H   H3        1.0  0.7692009487765218  0.08489998490776432  0.07563052157765068  1.0000
  H   H4        1.0  0.11680773220057007  0.8434318765430007  0.44169544525757953  1.0000
  H   H5        1.0  0.2822129464903184  0.8624964141272785  0.3527640226817327  1.0000
  H   H6        1.0  0.06040269817659547  0.06496796643072861  0.4480860125163702  1.0000
  H   H7        1.0  0.23373701593027352  0.09244569728618053  0.38745583060931926  1.0000
  H   H8        1.0  0.2174162690539133  0.011984266010188099  0.19978059014197672  1.0000
  H   H9        1.0  0.0785431214515313  0.12498460957835532  0.24081879300795353  1.0000
  H   H10       1.0  0.0487439486112393  0.9682443859956039  0.257948746130957  1.0000
  H   H11       1.0  0.8298035687732576  0.7739178415968272  0.3261649211903119  1.0000
  H   H12       1.0  0.600062757465686  0.8839619063109299  0.5050904412549215  1.0000
  H   H13       1.0  0.7399012734116112  0.6507645254674089  0.29517007285456737  1.0000
  H   H14       1.0  0.022161701481131484  0.7167099865317114  0.155494986097473  1.0000
  H   H15       1.0  0.9282979733527554  0.5968150566519554  0.12875650175688236  1.0000
  H   H16       1.0  0.7329932373751191  0.7494252466002111  0.09423923712590465  1.0000
  H   H17       1.0  0.8908672569126636  0.7789478358851126  0.9992106600691528  1.0000
  H   H18       1.0  0.8269999198420449  0.8702919417217317  0.12019372334225416  1.0000
  H   H19       1.0  0.16104591358947565  0.40082893161248745  0.7947082492947858  1.0000
  H   H20       1.0  0.26255828678537796  0.2966567002513544  0.6936337458473147  1.0000
  H   H21       1.0  0.9825120855608347  0.24780124644824753  0.8495151703177157  1.0000
  H   H22       1.0  0.08479567152765097  0.14706955754300574  0.7480032442512085  1.0000
  H   H23       1.0  0.861967080860282  0.44291242693804384  0.5885582153581695  1.0000
  H   H24       1.0  0.27865117751925067  0.13610648636447562  0.8567211240694946  1.0000
  H   H25       1.0  0.12419732001454518  0.0913655011914329  0.9476334241038417  1.0000
  H   H26       1.0  0.1782422221576993  0.23825481163551399  0.9582978885532752  1.0000
  H   H27       1.0  0.12261687238704153  0.5602598078843998  0.4381344790676423  1.0000
  H   H28       1.0  0.8420341942662546  0.07557829971290893  0.2779972135521191  1.0000
  H   H29       1.0  0.7416442103478714  0.21819897996822146  0.30084308440800817  1.0000
  H   H30       1.0  0.6349950719459656  0.9762382381592901  0.2555150315449453  1.0000
  H   H31       1.0  0.5291898329421585  0.1126256120710707  0.2879873802561761  1.0000
  H   H32       1.0  0.6564181345785088  0.21837466317578702  0.11101705131060406  1.0000
  C   C1        1.0  0.4241928123196885  0.7250225409064158  0.5004396513908773  1.0000
  C   C2        1.0  0.5834290347425934  0.1315644163956904  0.4918402208541864  1.0000
  C   C3        1.0  0.496389622520695  0.9300652683124754  0.5170241661243651  1.0000
  C   C4        1.0  0.4796813667580082  0.0586067107271546  0.5320951000776333  1.0000
  C   C5        1.0  0.06656864094438929  0.5020731365066241  0.5054297453846389  1.0000
  C   C6        1.0  0.9213909364838954  0.4924639477567185  0.5159197492015224  1.0000
  C   C7        1.0  0.7379247728468171  0.11868691109742002  0.3106207892653288  1.0000
  C   C8        1.0  0.6340833072147944  0.0761599046041823  0.24692057046706853  1.0000
  C   C9        1.0  0.6646071834147307  0.1184151650388188  0.12010470373252248  1.0000
  C   C10       1.0  0.201915253786332  0.9032809699190879  0.422193721373013  1.0000
  C   C11       1.0  0.15292596044891127  0.03148683755753721  0.3854509615820874  1.0000
  C   C12       1.0  0.5626004683862718  0.26570781755764733  0.5074779173871207  1.0000
  C   C13       1.0  0.12258977696794905  0.0344532346023598  0.2644579363390562  1.0000
  C   C14       1.0  0.841945116541119  0.684524693938208  0.2866786111420367  1.0000
  C   C15       1.0  0.9171774805716382  0.6891430886794867  0.16170717356327907  1.0000
  C   C16       1.0  0.8374842336824742  0.7769123048947368  0.08999741789492073  1.0000
  C   C17       1.0  0.157319729828103  0.32479636204902823  0.7398577686123247  1.0000
  C   C18       1.0  0.0896190000873887  0.2185193093004116  0.8076247247136337  1.0000
  C   C19       1.0  0.1722889318940801  0.1683740492295698  0.8976328569434673  1.0000
  C   C20       1.0  0.4858899495616383  0.47975817354956984  0.2881122463513819  1.0000
  C   C21       1.0  0.503169055069371  0.5045361353165987  0.7226375399317817  1.0000
  C   C22       1.0  0.48465886136621344  0.47901320621952004  0.16693002634644222  1.0000
  C   C23       1.0  0.5021564203407108  0.49782093681598394  0.84453019749229  1.0000
  C   C24       1.0  0.49013456789828774  0.4838308673150921  0.06301083886008033  1.0000
  C   C25       1.0  0.4961808166636104  0.49043367025291934  0.9485003916651139  1.0000
  C   C26       1.0  0.39283802901197606  0.8595809697237087  0.513199365760677  1.0000
  N   N1        1.0  0.14136174343818905  0.4470251421364397  0.5735377089414868  1.0000
  N   N2        1.0  0.8492645901269781  0.5442730725292934  0.4442305539328402  1.0000
  O   O1        1.0  0.5506056826279745  0.6842266061201343  0.4910971804673352  1.0000
  O   O2        1.0  0.2587943613518462  0.907353391810915  0.5248425402761044  1.0000
  O   O3        1.0  0.9254649175565675  0.6012283361756587  0.34951529719683094  1.0000
  O   O4        1.0  0.07451326619504779  0.368463290992537  0.6551528511555135  1.0000
  O   O5        1.0  0.4409485132248604  0.30884709955245887  0.5547670484611444  1.0000
  O   O6        1.0  0.32335096404347036  0.6614203037978755  0.5015060256782746  1.0000
  O   O7        1.0  0.6657955682219806  0.3277248846869014  0.47120785451934216  1.0000
  O   O8        1.0  0.597943376894527  0.5091233455548264  0.3108914620549328  1.0000
  O   O9        1.0  0.38476802042954716  0.5179049738309089  0.6963352414641832  1.0000
  O   O10       1.0  0.37751924007537946  0.4521498586013593  0.3591927956866385  1.0000
  O   O11       1.0  0.6206918345221623  0.49595343197663067  0.6543896791432148  1.0000
  O   O12       1.0  0.7092935487618276  0.0837697508650308  0.43272549338583843  1.0000
