data_image0
_chemical_formula_structural       Zn6H108C78N12O24
_chemical_formula_sum              "Zn6 H108 C78 N12 O24"
_cell_length_a       10.401004213000205
_cell_length_b       17.456792376009677
_cell_length_c       17.45649079977967
_cell_angle_alpha    120.00027470151366
_cell_angle_beta     90.00000054958407
_cell_angle_gamma    90.00001937686984

_space_group_name_H-M_alt    "P 1"
_space_group_IT_number       1

loop_
  _space_group_symop_operation_xyz
  'x, y, z'

loop_
  _atom_site_type_symbol
  _atom_site_label
  _atom_site_symmetry_multiplicity
  _atom_site_fract_x
  _atom_site_fract_y
  _atom_site_fract_z
  _atom_site_occupancy
  Zn  Zn1       1.0  0.8856618620409408  0.9217330281584423  0.45651276322187323  1.0000
  Zn  Zn2       1.0  0.7190374351342754  0.4565269439969626  0.5348251429162972  1.0000
  Zn  Zn3       1.0  0.5524987267706792  0.5348164741828895  0.07828019169592433  1.0000
  Zn  Zn4       1.0  0.3856618259616908  0.07826763302671197  0.5434880870988151  1.0000
  Zn  Zn5       1.0  0.2190376617690646  0.543473760384579  0.4651744494168425  1.0000
  Zn  Zn6       1.0  0.05249987779986752  0.4651826197799804  0.9217197963575358  1.0000
  H   H1        1.0  0.7797199279456919  0.07178218188133906  0.5201667847837825  1.0000
  H   H2        1.0  0.6131313325190887  0.520157714312198  0.4484278354854326  1.0000
  H   H3        1.0  0.44658778192597753  0.44842870633733134  0.9282533996080458  1.0000
  H   H4        1.0  0.27971941169301573  0.9282178775832078  0.4798334776426926  1.0000
  H   H5        1.0  0.11313152444240872  0.47984296120550596  0.5515717418121611  1.0000
  H   H6        1.0  0.9465876017441773  0.5515716407249514  0.07174779010144053  1.0000
  H   H7        1.0  0.0034737567053966007  0.17813184838586682  0.386436296271107  1.0000
  H   H8        1.0  0.8369616029210505  0.3865115174992296  0.20839973050701127  1.0000
  H   H9        1.0  0.6702516931208179  0.20836424391834618  0.8218706971744963  1.0000
  H   H10       1.0  0.5034737386535539  0.821867562943197  0.6135633540830412  1.0000
  H   H11       1.0  0.3369618745579359  0.6134879847192137  0.7915999671925958  1.0000
  H   H12       1.0  0.1702510944922579  0.7916363585584775  0.1781301225642621  1.0000
  H   H13       1.0  0.0023430921916585004  0.15844403897080633  0.5260542034238967  1.0000
  H   H14       1.0  0.835740607851342  0.5260437873873158  0.36764014081598617  1.0000
  H   H15       1.0  0.669237413333228  0.36763229378701084  0.8415861515125795  1.0000
  H   H16       1.0  0.5023430830566867  0.8415562756247608  0.4739456888841501  1.0000
  H   H17       1.0  0.3357407977394828  0.47395670668144857  0.6323585644928826  1.0000
  H   H18       1.0  0.1692376854560393  0.6323686391411981  0.15841433734311042  1.0000
  H   H19       1.0  0.9409486651215246  0.33653919556516587  0.4406968542537014  1.0000
  H   H20       1.0  0.7744320783293048  0.4407423926081222  0.10422158375946819  1.0000
  H   H21       1.0  0.6076721279569739  0.10412391563429667  0.6634937537152226  1.0000
  H   H22       1.0  0.4409460770259628  0.6634603349936937  0.5593028582087952  1.0000
  H   H23       1.0  0.2744342437670184  0.5592568504494291  0.8957772014702455  1.0000
  H   H24       1.0  0.10767159103723149  0.8958766697870003  0.3365070571390874  1.0000
  H   H25       1.0  0.7839868039986231  0.00701863885123532  0.36445358983194615  1.0000
  H   H26       1.0  0.6174376025625679  0.36445038499991256  0.3574383230249296  1.0000
  H   H27       1.0  0.4508363848556129  0.35745388585291216  0.9929817666795059  1.0000
  H   H28       1.0  0.28398632701066623  0.9929808489292639  0.635546100346744  1.0000
  H   H29       1.0  0.11743692286531629  0.6355502030828645  0.6425624892157771  1.0000
  H   H30       1.0  0.9508372166970745  0.6425462202481782  0.007018520040553307  1.0000
  H   H31       1.0  0.9502774861923271  0.0360071453493446  0.3708141701876214  1.0000
  H   H32       1.0  0.7837119335340504  0.3708370699902376  0.3348314895896181  1.0000
  H   H33       1.0  0.6170770569351802  0.33478731409922335  0.9639416533947481  1.0000
  H   H34       1.0  0.45027603120654186  0.9639920570244557  0.6291858743385107  1.0000
  H   H35       1.0  0.2837112505778805  0.6291636520176738  0.6651681119253325  1.0000
  H   H36       1.0  0.11707734571938032  0.6652135160046697  0.03606006238752  1.0000
  H   H37       1.0  0.6245974256333112  0.14107769126543687  0.4657231125527304  1.0000
  H   H38       1.0  0.4580193704535986  0.46575778379835936  0.3246701074704248  1.0000
  H   H39       1.0  0.2913498512407883  0.3246567896557408  0.8589310077713677  1.0000
  H   H40       1.0  0.12459494804735272  0.8589223259214973  0.5342771278507781  1.0000
  H   H41       1.0  0.958020151633299  0.5342423242603898  0.6753301802694054  1.0000
  H   H42       1.0  0.7913487809667715  0.6753432729783667  0.1410692563061744  1.0000
  H   H43       1.0  0.5828284275356168  0.30042111212771505  0.5203741056525999  1.0000
  H   H44       1.0  0.4162964907473281  0.5203808247203554  0.21995542491455922  1.0000
  H   H45       1.0  0.2495519331115474  0.21988765723642686  0.6996072032847848  1.0000
  H   H46       1.0  0.08282778153935769  0.6995784094371728  0.4796243216357183  1.0000
  H   H47       1.0  0.9162972426228181  0.4796192719671665  0.7800448569018457  1.0000
  H   H48       1.0  0.7495518863073373  0.7801123940061387  0.3003930548587589  1.0000
  H   H49       1.0  0.8037704900634639  0.06748177707652281  0.6463857313057629  1.0000
  H   H50       1.0  0.6371848160580456  0.6464410904214828  0.5789487224298923  1.0000
  H   H51       1.0  0.47049512588186104  0.5788433871855717  0.9324563523443886  1.0000
  H   H52       1.0  0.30377093565802227  0.9325186196706311  0.3536142037961198  1.0000
  H   H53       1.0  0.13718493421407632  0.3535589301963851  0.42105151976084426  1.0000
  H   H54       1.0  0.9704939101832866  0.4211567242730681  0.06754393716649082  1.0000
  H   H55       1.0  0.8642089081860007  0.14632519114380207  0.7517748662912354  1.0000
  H   H56       1.0  0.6976636217905465  0.7518268665425719  0.6054672409035715  1.0000
  H   H57       1.0  0.5309162216644766  0.6054142400883717  0.8536294368923762  1.0000
  H   H58       1.0  0.364207384447468  0.8536743185004169  0.24822483527655953  1.0000
  H   H59       1.0  0.19766271827180054  0.24817259771120345  0.3945324370197483  1.0000
  H   H60       1.0  0.0309163586643493  0.3945859936861353  0.14637169380403495  1.0000
  H   H61       1.0  0.9638925266450827  0.05889970282802872  0.6750205318949156  1.0000
  H   H62       1.0  0.7972934030270125  0.6750677379788781  0.6161450413822819  1.0000
  H   H63       1.0  0.6305498741207246  0.616125171898531  0.9410823248874394  1.0000
  H   H64       1.0  0.4638929766464983  0.9410990190182034  0.32497770737892046  1.0000
  H   H65       1.0  0.297293504338029  0.32493175342830216  0.383854650685599  1.0000
  H   H66       1.0  0.13055000363016941  0.3838750890302974  0.05891881995400891  1.0000
  H   H67       1.0  0.026085042638797497  0.1969821233429696  0.6796211515831984  1.0000
  H   H68       1.0  0.8595796966309521  0.6796080882510152  0.4826709136238207  1.0000
  H   H69       1.0  0.6929505405706705  0.4826908948894582  0.803039364011525  1.0000
  H   H70       1.0  0.5260850091550253  0.8030178669955603  0.32037907483463357  1.0000
  H   H71       1.0  0.35958075896770947  0.3203934694004643  0.5173301751084622  1.0000
  H   H72       1.0  0.19295074802639076  0.5173091409269048  0.19696088609630638  1.0000
  H   H73       1.0  0.8762635506686538  0.2808116147898401  0.637237662974961  1.0000
  H   H74       1.0  0.7098152985364194  0.6372708409106238  0.35646268003142706  1.0000
  H   H75       1.0  0.5432745720023676  0.3564241597727359  0.7191039825044854  1.0000
  H   H76       1.0  0.3762638753578997  0.719188470986978  0.3627626131579191  1.0000
  H   H77       1.0  0.20981638693560714  0.3627301030768705  0.64353781458518  1.0000
  H   H78       1.0  0.0432738910177335  0.6435760773698219  0.28089714994639076  1.0000
  H   H79       1.0  0.828609499523239  0.28250126377207607  0.7358546119326235  1.0000
  H   H80       1.0  0.6620766676571749  0.7358681837056834  0.4533836719566152  1.0000
  H   H81       1.0  0.4954571013175695  0.45337014427653316  0.717494607077107  1.0000
  H   H82       1.0  0.3286098216605495  0.7174979054423715  0.264145415320371  1.0000
  H   H83       1.0  0.16207769854227652  0.26413274727103414  0.5466168158825154  1.0000
  H   H84       1.0  0.9954569217360286  0.5466303047131262  0.2825053552385767  1.0000
  H   H85       1.0  0.7454617388270606  0.21443869802651955  0.6352614645582193  1.0000
  H   H86       1.0  0.578957741639556  0.6352405721249353  0.42079840726553647  1.0000
  H   H87       1.0  0.4123843447831348  0.420699699610118  0.7854738257351029  1.0000
  H   H88       1.0  0.24546113976551  0.7855611099819768  0.3647378894119129  1.0000
  H   H89       1.0  0.07895786870584232  0.36475976335133686  0.5792014959195412  1.0000
  H   H90       1.0  0.9123841826421639  0.5793003960110497  0.21452645552582797  1.0000
  H   H91       1.0  0.8271867305275649  0.8838732638259257  0.7243439471271813  1.0000
  H   H92       1.0  0.6605229713862073  0.7243537942484151  0.8405136922386021  1.0000
  H   H93       1.0  0.493691030676466  0.840472147023007  0.11610661884952113  1.0000
  H   H94       1.0  0.32718575015969253  0.11612656645598203  0.27565541844545993  1.0000
  H   H95       1.0  0.16052400255171048  0.2756459020024947  0.15948688400465724  1.0000
  H   H96       1.0  0.993692564040444  0.15952706718320522  0.8838934318402636  1.0000
  H   H97       1.0  0.9688172991954077  0.9322524075177865  0.7081178012770195  1.0000
  H   H98       1.0  0.8021554442497704  0.7082159178755842  0.7759235577910174  1.0000
  H   H99       1.0  0.6353830995645852  0.7759257076006136  0.06766094512441602  1.0000
  H   H100      1.0  0.46881629163729605  0.06774803421130554  0.29188215725653777  1.0000
  H   H101      1.0  0.3021555241702245  0.2917835748567014  0.22407613496712742  1.0000
  H   H102      1.0  0.13538219105803506  0.22407431252607746  0.9323392968104541  1.0000
  H   H103      1.0  0.9482625198335769  0.8165224043121664  0.6459695572623045  1.0000
  H   H104      1.0  0.7816602906410851  0.6460238427664462  0.8294801922332411  1.0000
  H   H105      1.0  0.6148649046017952  0.8294757625615645  0.18340639516651444  1.0000
  H   H106      1.0  0.4482606175038484  0.18347712824011345  0.3540301562386006  1.0000
  H   H107      1.0  0.28166136643269374  0.3539756443801919  0.17051949761526694  1.0000
  H   H108      1.0  0.11486588673021461  0.17052425197331883  0.8165938438555075  1.0000
  C   C1        1.0  0.0945572359791811  0.055880572127939725  0.5343513672466997  1.0000
  C   C2        1.0  0.9279845887342474  0.5343378008914215  0.47848931343698814  1.0000
  C   C3        1.0  0.761459310011439  0.478532768866415  0.9441295548094499  1.0000
  C   C4        1.0  0.5945563234636282  0.9441194368720004  0.46564886889210294  1.0000
  C   C5        1.0  0.4279847721255265  0.4656627183176737  0.5215094049678015  1.0000
  C   C6        1.0  0.2614585561022196  0.5214676163490211  0.055870374285404985  1.0000
  C   C7        1.0  0.9085382948703327  0.2025681530066094  0.4147563173708305  1.0000
  C   C8        1.0  0.7420121253578742  0.41481362657730597  0.21225355538954455  1.0000
  C   C9        1.0  0.5753204758679048  0.2122478176530506  0.797428164584808  1.0000
  C   C10       1.0  0.4085386675519588  0.7974316994471804  0.5852430597514342  1.0000
  C   C11       1.0  0.24201238087243843  0.5851852769164835  0.7877455559764853  1.0000
  C   C12       1.0  0.075319875430516  0.7877530896787661  0.20257231093738431  1.0000
  C   C13       1.0  0.9731868352608971  0.11102560792804161  0.5470014609503194  1.0000
  C   C14       1.0  0.8066068890124286  0.5470103843048121  0.4360172278172882  1.0000
  C   C15       1.0  0.6400796716350498  0.43600717271861095  0.888983939928707  1.0000
  C   C16       1.0  0.47318629630629516  0.8889745042642968  0.45299882894274646  1.0000
  C   C17       1.0  0.3066070658987243  0.4529901018238006  0.5639814733554473  1.0000
  C   C18       1.0  0.14007990419302271  0.5639928486882438  0.11101630267302198  1.0000
  C   C19       1.0  0.8756040001604078  0.29046393866562426  0.4455827535426451  1.0000
  C   C20       1.0  0.7090739679543033  0.4456075328573803  0.1551608603205921  1.0000
  C   C21       1.0  0.5423476812236602  0.15510502964492898  0.7095613937565093  1.0000
  C   C22       1.0  0.37560239957689834  0.7095361469311783  0.5544175224964647  1.0000
  C   C23       1.0  0.20907420691735723  0.5543919345063484  0.844838819222744  1.0000
  C   C24       1.0  0.0423461531851288  0.8448952958533481  0.2904385042308988  1.0000
  C   C25       1.0  0.8203814069274529  0.1471106860676484  0.42375786994917763  1.0000
  C   C26       1.0  0.653827374222928  0.4237971396428079  0.27669090737518326  1.0000
  C   C27       1.0  0.4871530464197633  0.2767013645735116  0.8528811671017066  1.0000
  C   C28       1.0  0.3203808494870374  0.8528888116318852  0.5762418253964725  1.0000
  C   C29       1.0  0.15382666215382562  0.5762032162384471  0.7233090064391164  1.0000
  C   C30       1.0  0.9871520034554636  0.7232984206974322  0.14711945551324127  1.0000
  C   C31       1.0  0.8572758953573186  0.056011843147295695  0.4050460149958183  1.0000
  C   C32       1.0  0.690711308019239  0.4050671968133058  0.3490664207173352  1.0000
  C   C33       1.0  0.5240927700582033  0.34906284017935696  0.9439736763564994  1.0000
  C   C34       1.0  0.3572753899128358  0.9439879953352344  0.5949533548486342  1.0000
  C   C35       1.0  0.19071060540932905  0.5949331691203595  0.6509334983333943  1.0000
  C   C36       1.0  0.0240930510641064  0.6509371496162402  0.056026549778515275  1.0000
  C   C37       1.0  0.6994623235940978  0.181606589087856  0.4597133823911931  1.0000
  C   C38       1.0  0.5329111753607236  0.4597485574845094  0.27813911560433263  1.0000
  C   C39       1.0  0.3662185700057634  0.27813078283850234  0.8183907695190911  1.0000
  C   C40       1.0  0.1994617459985548  0.818393537111582  0.5402856343092565  1.0000
  C   C41       1.0  0.0329123657589179  0.5402514347145979  0.7218611117826939  1.0000
  C   C42       1.0  0.8662175267873594  0.7218687273535025  0.18160893233405062  1.0000
  C   C43       1.0  0.6744532253718348  0.2702080469722076  0.49023741714170643  1.0000
  C   C44       1.0  0.5079126358400076  0.49024878431211494  0.22004430212594883  1.0000
  C   C45       1.0  0.3411911617213547  0.21999268408408298  0.7298064936317701  1.0000
  C   C46       1.0  0.17445163556106993  0.729791741683371  0.5097619267472451  1.0000
  C   C47       1.0  0.007912848423565301  0.5097506282267616  0.779955348858401  1.0000
  C   C48       1.0  0.8411911143700052  0.7800082071002024  0.27019525396806887  1.0000
  C   C49       1.0  0.8891228367410025  0.1062588508881389  0.6815211887974685  1.0000
  C   C50       1.0  0.7225390842774359  0.6815664975179061  0.5752858901227498  1.0000
  C   C51       1.0  0.5558493828257555  0.5752266757655204  0.8936930126708589  1.0000
  C   C52       1.0  0.3891222983182986  0.8937406655463035  0.3184785163074366  1.0000
  C   C53       1.0  0.22253822111526486  0.31843354636242777  0.42471436418570363  1.0000
  C   C54       1.0  0.05584857486250171  0.42477299195722656  0.1063075487117118  1.0000
  C   C55       1.0  0.9358058455623708  0.1653704687016314  0.6456668059342761  1.0000
  C   C56       1.0  0.7692586006027113  0.6456821394686115  0.4803245113404202  1.0000
  C   C57       1.0  0.6026563742384355  0.48029080273578717  0.8346084133969569  1.0000
  C   C58       1.0  0.4358052741762962  0.8346293911835686  0.354332575059111  1.0000
  C   C59       1.0  0.26925968222822416  0.3543185786004058  0.5196750881227032  1.0000
  C   C60       1.0  0.10265562110053142  0.5197092084715251  0.16539182389169582  1.0000
  C   C61       1.0  0.8408333064645674  0.23964202140277976  0.6641077907966277  1.0000
  C   C62       1.0  0.6743206571068471  0.6641222587133413  0.42448169620187315  1.0000
  C   C63       1.0  0.5077453299902573  0.42443042446195983  0.7603042735623475  1.0000
  C   C64       1.0  0.34083269263565796  0.7603580547176916  0.33589248030613544  1.0000
  C   C65       1.0  0.17432172917066424  0.33587867560038354  0.5755187933755436  1.0000
  C   C66       1.0  0.0077455711961179  0.5755704644529303  0.23969619236622458  1.0000
  C   C67       1.0  0.8305556369581667  0.8907010555759027  0.6032612550756723  1.0000
  C   C68       1.0  0.6639793330307312  0.6033004734248731  0.7125935732219942  1.0000
  C   C69       1.0  0.4972560347087692  0.7125615539034342  0.10924367959565742  1.0000
  C   C70       1.0  0.33055657756272444  0.1092981141690287  0.39673877245365213  1.0000
  C   C71       1.0  0.16398043495357945  0.396699312376505  0.287405769180161  1.0000
  C   C72       1.0  0.997255717874772  0.2874382341210902  0.8907569444536704  1.0000
  C   C73       1.0  0.8964617706050861  0.8797493159147292  0.6751989324449071  1.0000
  C   C74       1.0  0.7298431866806966  0.6752538603231668  0.7954898318563863  1.0000
  C   C75       1.0  0.5630602812578758  0.7954729557720697  0.12018339605896955  1.0000
  C   C76       1.0  0.39646079337104817  0.12025020251981988  0.32480077370188093  1.0000
  C   C77       1.0  0.22984424643489382  0.32474561270115027  0.20450985063561694  1.0000
  C   C78       1.0  0.06306032225641903  0.20452647179681774  0.8798162627547156  1.0000
  N   N1        1.0  0.7619178721953972  0.32461414904364  0.48485711623874284  1.0000
  N   N2        1.0  0.5953782267040993  0.48485827229982437  0.16025040799907928  1.0000
  N   N3        1.0  0.42863462393722773  0.16017427759398817  0.6754101288094317  1.0000
  N   N4        1.0  0.261917213044768  0.6753859055690797  0.5151431436603531  1.0000
  N   N5        1.0  0.09537940475808432  0.51514173692415  0.83974982825643  1.0000
  N   N6        1.0  0.928634611408029  0.839826153183786  0.32458982401944064  1.0000
  N   N7        1.0  0.8680710070821436  0.054468444930414195  0.4893826545314113  1.0000
  N   N8        1.0  0.7014958682174708  0.4893919068310452  0.4349584636869679  1.0000
  N   N9        1.0  0.534951361331764  0.4349495468229631  0.9455437088802654  1.0000
  N   N10       1.0  0.36806953970551604  0.9455310657663956  0.510617047584688  1.0000
  N   N11       1.0  0.20149607781643655  0.5106093656166377  0.5650416990093347  1.0000
  N   N12       1.0  0.0349506321305881  0.5650501152042082  0.05445684953540566  1.0000
  O   O1        1.0  0.1917680548509821  0.10096878769112283  0.5769642111416857  1.0000
  O   O2        1.0  0.025190042923988208  0.5769547556498933  0.476006426732198  1.0000
  O   O3        1.0  0.8586537701099887  0.47607692973872406  0.8990392523716438  1.0000
  O   O4        1.0  0.6917680775077529  0.8990314899221941  0.4230369423909364  1.0000
  O   O5        1.0  0.5251888356700719  0.42304631523610675  0.5239915730092832  1.0000
  O   O6        1.0  0.35865494121379266  0.5239231512388045  0.10096102126122727  1.0000
  O   O7        1.0  0.0916231635573155  0.9723551532435266  0.4850946599478974  1.0000
  O   O8        1.0  0.9250963923721044  0.4850639494724972  0.5127341622291439  1.0000
  O   O9        1.0  0.7585653609988512  0.5127961140963748  0.027661542861395088  1.0000
  O   O10       1.0  0.5916226932341431  0.02764575853147014  0.5149058178888026  1.0000
  O   O11       1.0  0.4250946802795709  0.5149378032515344  0.4872644671407684  1.0000
  O   O12       1.0  0.25856460245018553  0.48720451244958674  0.9723392894152809  1.0000
  O   O13       1.0  0.9093384108179309  0.8799007209868464  0.5401550000351706  1.0000
  O   O14       1.0  0.7428034343116324  0.5402384927302817  0.660266529587915  1.0000
  O   O15       1.0  0.5760859082362799  0.6602946556555551  0.12007055130662528  1.0000
  O   O16       1.0  0.4093374356792551  0.12009880095711607  0.45984470793971605  1.0000
  O   O17       1.0  0.24280553430971713  0.4597619760094885  0.3397321625267508  1.0000
  O   O18       1.0  0.07608506449721382  0.33970444473553113  0.8799294400953741  1.0000
  O   O19       1.0  0.7142457192481331  0.9094995707314552  0.6081406676359364  1.0000
  O   O20       1.0  0.5476482594010436  0.6081268302913113  0.6986917750169468  1.0000
  O   O21       1.0  0.3809547605223784  0.69859675060259  0.09043675796288402  1.0000
  O   O22       1.0  0.21424472621490057  0.09049751804535319  0.39185795555915337  1.0000
  O   O23       1.0  0.04765032025544261  0.3918731659243802  0.30130845446237936  1.0000
  O   O24       1.0  0.8809534904707661  0.30140291711640516  0.9095650839068341  1.0000
