data_image0
_chemical_formula_structural       Cd2H70C48N12O8
_chemical_formula_sum              "Cd2 H70 C48 N12 O8"
_cell_length_a       8.066181156343607
_cell_length_b       10.575269597042263
_cell_length_c       17.671288771657235
_cell_angle_alpha    105.1361669585197
_cell_angle_beta     92.87152382837233
_cell_angle_gamma    91.53129825651708

_space_group_name_H-M_alt    "P 1"
_space_group_IT_number       1

loop_
  _space_group_symop_operation_xyz
  'x, y, z'

loop_
  _atom_site_type_symbol
  _atom_site_label
  _atom_site_symmetry_multiplicity
  _atom_site_fract_x
  _atom_site_fract_y
  _atom_site_fract_z
  _atom_site_occupancy
  Cd  Cd1       1.0  0.47464937655968953  0.0022403429405243955  0.23734843845601722  1.0000
  Cd  Cd2       1.0  0.5253497727346784  0.9977580981393005  0.7626497483581363  1.0000
  H   H1        1.0  0.5816109923143741  0.4687786266016971  0.2949200854096007  1.0000
  H   H2        1.0  0.418349322405959  0.5312156317418514  0.7050766509936538  1.0000
  H   H3        1.0  0.7907517174122559  0.4330581899206649  0.27490872564776236  1.0000
  H   H4        1.0  0.2092178044837993  0.5669563777848907  0.7250966378539022  1.0000
  H   H5        1.0  0.5022576901550266  0.419291912016142  0.15191073123156684  1.0000
  H   H6        1.0  0.497728048027618  0.5807097532209299  0.8480865935892867  1.0000
  H   H7        1.0  0.6549825984900509  0.548382151596968  0.18287526502589202  1.0000
  H   H8        1.0  0.34500059599658783  0.4516185504274405  0.8171229829295117  1.0000
  H   H9        1.0  0.7103251020959719  0.2653746784618676  0.09317734755794761  1.0000
  H   H10       1.0  0.2896681647468355  0.73462668587279  0.9068263005338439  1.0000
  H   H11       1.0  0.8752170011677052  0.3783987284533055  0.13521203479545113  1.0000
  H   H12       1.0  0.12477020536331197  0.6216036285215978  0.8647956203969616  1.0000
  H   H13       1.0  0.6087219757860042  0.42974864019741693  0.01794935882699632  1.0000
  H   H14       1.0  0.39128611005151015  0.5702525495292861  0.9820505885935236  1.0000
  H   H15       1.0  0.7932094081004805  0.5245042898141179  0.05377595162230623  1.0000
  H   H16       1.0  0.20679974927432454  0.4754938040758817  0.9462285993307378  1.0000
  H   H17       1.0  0.9557367607781302  0.3205136067896106  0.9910309122359849  1.0000
  H   H18       1.0  0.04427101189880739  0.679482520705804  0.008974418894091238  1.0000
  H   H19       1.0  0.7653529300473921  0.24160449141438534  0.9497280232067455  1.0000
  H   H20       1.0  0.23465617126979052  0.7583925782446173  0.05027805544581549  1.0000
  H   H21       1.0  0.9257668661099103  0.4872244586575647  0.9181517235284817  1.0000
  H   H22       1.0  0.0742373242062371  0.5127737425381795  0.08185218199163563  1.0000
  H   H23       1.0  0.7227991533697918  0.426948589340725  0.8816894497661283  1.0000
  H   H24       1.0  0.2772081185989492  0.5730416873872387  0.11831377362094032  1.0000
  H   H25       1.0  0.947326530489441  0.3544068508027394  0.7853980809008194  1.0000
  H   H26       1.0  0.05268107254538991  0.6455873313471658  0.21460635974925427  1.0000
  H   H27       1.0  0.02970957411267249  0.25958595592325645  0.8474586019493132  1.0000
  H   H28       1.0  0.9702980042677822  0.7404082704194294  0.1525441476097456  1.0000
  H   H29       1.0  0.578991564977308  0.6978258081134783  0.10868969070605776  1.0000
  H   H30       1.0  0.42102332986132046  0.30216737298340485  0.8913101995803674  1.0000
  H   H31       1.0  0.7360681657347855  0.684052903462657  0.9697190135563293  1.0000
  H   H32       1.0  0.26393586990624845  0.3159444502732072  0.030279655299246106  1.0000
  H   H33       1.0  0.6244915184561323  0.07704707444040082  0.07583978459583562  1.0000
  H   H34       1.0  0.37550873377876587  0.9229493392265058  0.9241597869603171  1.0000
  H   H35       1.0  0.7336145395521568  0.028752341897380497  0.9399855138295978  1.0000
  H   H36       1.0  0.26638719452884624  0.9712469887404753  0.06001456833502775  1.0000
  H   H37       1.0  0.7532243572396311  0.8647850213941483  0.8868451074638701  1.0000
  H   H38       1.0  0.246772248358738  0.1352124564730204  0.1131540024848334  1.0000
  H   H39       1.0  0.027852192427154383  0.8570517596708385  0.9556330691620476  1.0000
  H   H40       1.0  0.9721426166952726  0.1429388663415736  0.04436544030917841  1.0000
  H   H41       1.0  0.021935313066492802  0.9900159172407897  0.9122061302272116  1.0000
  H   H42       1.0  0.978063376610308  0.009976599416944508  0.08779276732895623  1.0000
  H   H43       1.0  0.5401823636933827  0.005458896919151398  0.43086626976145953  1.0000
  H   H44       1.0  0.45983468862126387  0.9945472372256886  0.5691267458963553  1.0000
  H   H45       1.0  0.4584679305597916  0.2087023262807932  0.5585667137408452  1.0000
  H   H46       1.0  0.5415464016678797  0.7912997866893151  0.4414312444530638  1.0000
  H   H47       1.0  0.25785982501653854  0.27328110919377485  0.3462009084949004  1.0000
  H   H48       1.0  0.7421295844570112  0.726719447650261  0.6537985690244101  1.0000
  H   H49       1.0  0.2258341833473381  0.3989816305425079  0.5599632803659349  1.0000
  H   H50       1.0  0.7741737164118235  0.6010176433005441  0.440034649180575  1.0000
  H   H51       1.0  0.20832933495798042  0.4434544617308021  0.4696323378626347  1.0000
  H   H52       1.0  0.7916790012336321  0.5565496533796265  0.5303686634293856  1.0000
  H   H53       1.0  0.40694044044857247  0.5941244023747884  0.5650712232525452  1.0000
  H   H54       1.0  0.593068539065996  0.4058717609006307  0.434931873523496  1.0000
  H   H55       1.0  0.5236777540388503  0.4617487955774779  0.5779758803825106  1.0000
  H   H56       1.0  0.4763274816909445  0.5382474813218323  0.4220254640005764  1.0000
  H   H57       1.0  0.5838767173925207  0.712714460742916  0.27985342204404884  1.0000
  H   H58       1.0  0.4161196402247215  0.28729588388127064  0.7201438456811362  1.0000
  H   H59       1.0  0.8936912477215561  0.6782182389206853  0.3507294435169471  1.0000
  H   H60       1.0  0.10630474595710382  0.3217882592052703  0.6492643521572108  1.0000
  H   H61       1.0  0.8704455623942168  0.0648112111922003  0.32461910402054184  1.0000
  H   H62       1.0  0.1295556008576995  0.9351970660498097  0.6753784823545674  1.0000
  H   H63       1.0  0.17280844873758375  0.8381314669476437  0.3784248070394085  1.0000
  H   H64       1.0  0.827188543984491  0.16187094057246307  0.6215739924727828  1.0000
  H   H65       1.0  0.13852116467370476  0.0034900312831211977  0.3835583415350855  1.0000
  H   H66       1.0  0.8614809483128738  0.9965142437386025  0.6164408664960208  1.0000
  H   H67       1.0  0.006989211296023287  0.8539769939155023  0.4980423932967712  1.0000
  H   H68       1.0  0.9930027979311478  0.146025550372201  0.5019546333884792  1.0000
  H   H69       1.0  0.17996207744970857  0.9655686201307319  0.5170826204676048  1.0000
  H   H70       1.0  0.8200308897302548  0.0344299072057623  0.48291659157064987  1.0000
  C   C1        1.0  0.6230708159602825  0.26547434493635785  0.25150346953884656  1.0000
  C   C2        1.0  0.3769298151801976  0.7345270131144233  0.7484952278837869  1.0000
  C   C3        1.0  0.6613064814711437  0.4085157612759078  0.25174220279047443  1.0000
  C   C4        1.0  0.3386672071125147  0.5914900113582886  0.7482572623475862  1.0000
  C   C5        1.0  0.6330792721939105  0.4419778026244429  0.17320728169389812  1.0000
  C   C6        1.0  0.36690426157694134  0.5580267900909847  0.8267927472215106  1.0000
  C   C7        1.0  0.745740804305264  0.3707821790222495  0.11032251383770132  1.0000
  C   C8        1.0  0.25425478875195046  0.6292171642176358  0.8896814120360548  1.0000
  C   C9        1.0  0.7395014299179793  0.42333600113423125  0.03758236966839232  1.0000
  C   C10       1.0  0.2605027357437919  0.576662244254294  0.9624198447607172  1.0000
  C   C11       1.0  0.8298085485618573  0.338698837381493  0.9698845507025952  1.0000
  C   C12       1.0  0.17019807333505815  0.661298278564914  0.030121487081999028  1.0000
  C   C13       1.0  0.8452610748051939  0.3974457581523083  0.9001494556945817  1.0000
  C   C14       1.0  0.1547476707915294  0.6025474502775267  0.09985371460395953  1.0000
  C   C15       1.0  0.9162348973120515  0.3016927047592972  0.8290806805786917  1.0000
  C   C16       1.0  0.0837738482846646  0.698300503670538  0.17092248971984966  1.0000
  C   C17       1.0  0.7857794914024795  0.1934889345176884  0.7916069379642396  1.0000
  C   C18       1.0  0.21423105888830918  0.8065111110359666  0.20839739650877934  1.0000
  C   C19       1.0  0.6121777728594395  0.7749374225020135  0.08142232901032297  1.0000
  C   C20       1.0  0.38783869275541605  0.22505964087311273  0.91857879897308  1.0000
  C   C21       1.0  0.690295991231956  0.7664509302236552  0.012812675617240596  1.0000
  C   C22       1.0  0.3097142922684881  0.23354621940813294  0.9871894775902633  1.0000
  C   C23       1.0  0.6330238453001514  0.9720919063433515  0.06686613202619907  1.0000
  C   C24       1.0  0.3669761730168942  0.027901552477978007  0.9331335130524536  1.0000
  C   C25       1.0  0.7861567946208368  0.9357290382032062  0.9433982184245553  1.0000
  C   C26       1.0  0.2138446891060681  0.06426736705092399  0.05660080986857001  1.0000
  C   C27       1.0  0.9741687699704614  0.9531717557822079  0.9600325847087066  1.0000
  C   C28       1.0  0.025830008636454203  0.0468217261828201  0.03996703993596641  1.0000
  C   C29       1.0  0.4682688115156708  0.0909628760564942  0.432492748837909  1.0000
  C   C30       1.0  0.5317351897836103  0.9090356639505757  0.5674981916511046  1.0000
  C   C31       1.0  0.43024022334716966  0.1904238166146826  0.4958929853045859  1.0000
  C   C32       1.0  0.5697644811749073  0.8095824605816376  0.50410320819546  1.0000
  C   C33       1.0  0.32239581229739406  0.2254180787681292  0.3857672170454692  1.0000
  C   C34       1.0  0.6775998435663054  0.7745834013193189  0.6142302712472303  1.0000
  C   C35       1.0  0.2930321726268944  0.40606037982291804  0.5086407321303241  1.0000
  C   C36       1.0  0.7069749156364654  0.5939437731621383  0.491359685030723  1.0000
  C   C37       1.0  0.447894213075493  0.49653551254169764  0.5343575017342135  1.0000
  C   C38       1.0  0.5521074896022641  0.5034627496723799  0.46564579922094407  1.0000
  C   C39       1.0  0.6907215009338686  0.779492968013308  0.3003158128037883  1.0000
  C   C40       1.0  0.3092710172196221  0.22051541231091676  0.6996838853214771  1.0000
  C   C41       1.0  0.8407474608648257  0.7625032041521537  0.3361444112198911  1.0000
  C   C42       1.0  0.15925074691300276  0.23749922441702861  0.6638527176352653  1.0000
  C   C43       1.0  0.8341501704561767  0.964195504306893  0.3223274262280214  1.0000
  C   C44       1.0  0.16584729010158838  0.035812812904374894  0.6776712262391555  1.0000
  C   C45       1.0  0.0853867275679718  0.9164142495488578  0.39753080959538084  1.0000
  C   C46       1.0  0.9146115937943476  0.0835891001348301  0.6024687374392954  1.0000
  C   C47       1.0  0.05755256026732521  0.9436617192091108  0.48523248683787323  1.0000
  C   C48       1.0  0.9424457446587482  0.056341659936435876  0.5147659328027887  1.0000
  N   N1        1.0  0.5766756742984499  0.9038495996967698  0.11436896946786854  1.0000
  N   N2        1.0  0.42333170156739913  0.09614274022411708  0.8856306348231657  1.0000
  N   N3        1.0  0.702165721729429  0.8924900887424627  0.004332398534963058  1.0000
  N   N4        1.0  0.2978382496358662  0.10750625549333388  0.9956672343231219  1.0000
  N   N5        1.0  0.4000609718449155  0.11380956576329024  0.3645839458780743  1.0000
  N   N6        1.0  0.5999346989857771  0.8861930122097947  0.6354091962300931  1.0000
  N   N7        1.0  0.3360530834105618  0.27489976167008484  0.46532214917110093  1.0000
  N   N8        1.0  0.66394404608112  0.7251046501192349  0.5346752860330782  1.0000
  N   N9        1.0  0.6886986968203814  0.9058016415849579  0.292357000642916  1.0000
  N   N10       1.0  0.31129878017363677  0.09420664616445146  0.7076427792182687  1.0000
  N   N11       1.0  0.9301408300419  0.8803951200197067  0.34982246509982684  1.0000
  N   N12       1.0  0.06985638837989679  0.11961025707690712  0.6501756971928502  1.0000
  O   O1        1.0  0.7150944081087333  0.21481036094457548  0.29430095845243204  1.0000
  O   O2        1.0  0.2849187704004024  0.7851949951715083  0.7056867592389013  1.0000
  O   O3        1.0  0.4947857597917605  0.20660777908742733  0.2090661936357918  1.0000
  O   O4        1.0  0.5052094132692488  0.7933866934232229  0.7909357878864542  1.0000
  O   O5        1.0  0.7938014189000883  0.08352045012328801  0.8094494030904684  1.0000
  O   O6        1.0  0.20619674250750106  0.9164798121364796  0.19055529073975216  1.0000
  O   O7        1.0  0.6692707639715608  0.21966993055066547  0.7478327100426654  1.0000
  O   O8        1.0  0.3307396166771213  0.7803281696574801  0.25217073395035794  1.0000
