data_image0
_chemical_formula_structural       Cd4H40C36S4N8O12
_chemical_formula_sum              "Cd4 H40 C36 S4 N8 O12"
_cell_length_a       5.691801761
_cell_length_b       12.825557613649138
_cell_length_c       16.51085919980561
_cell_angle_alpha    89.9981511744746
_cell_angle_beta     89.99903194951565
_cell_angle_gamma    94.89041200512732

_space_group_name_H-M_alt    "P 1"
_space_group_IT_number       1

loop_
  _space_group_symop_operation_xyz
  'x, y, z'

loop_
  _atom_site_type_symbol
  _atom_site_label
  _atom_site_symmetry_multiplicity
  _atom_site_fract_x
  _atom_site_fract_y
  _atom_site_fract_z
  _atom_site_occupancy
  Cd  Cd1       1.0  0.1434023483942966  0.1719583550212889  0.6391575314063545  1.0000
  Cd  Cd2       1.0  0.8565689701601756  0.328037080568052  0.1391508445344769  1.0000
  Cd  Cd3       1.0  0.8565863634610835  0.8280372834005834  0.3608425177733992  1.0000
  Cd  Cd4       1.0  0.14342019256410773  0.671960905400333  0.8608510216312766  1.0000
  H   H1        1.0  0.3978104593168013  0.19973409594980757  0.0618041731433152  1.0000
  H   H2        1.0  0.6021481032843284  0.3002743624236146  0.5617993524371911  1.0000
  H   H3        1.0  0.6021762421306677  0.8002693680242389  0.938192847726441  1.0000
  H   H4        1.0  0.3978366906128983  0.6997283187701768  0.4382031193905647  1.0000
  H   H5        1.0  0.21507902381957683  0.16350690066909832  0.9256156706313234  1.0000
  H   H6        1.0  0.7848895636636897  0.33649244585367916  0.4256053497874461  1.0000
  H   H7        1.0  0.7849185198237123  0.8364981284418536  0.0743801389144281  1.0000
  H   H8        1.0  0.2151066266427009  0.663505540061756  0.574397727702312  1.0000
  H   H9        1.0  0.8414869010122177  0.3183930661885341  0.8186818048708346  1.0000
  H   H10       1.0  0.15848684156717502  0.18159684710469293  0.3186896538869561  1.0000
  H   H11       1.0  0.1585068748234804  0.6816197881039443  0.1813194556329236  1.0000
  H   H12       1.0  0.8415248133961697  0.8183901832759731  0.6813122122787973  1.0000
  H   H13       1.0  0.00029209141975880396  0.34993278228643027  0.9586024458075002  1.0000
  H   H14       1.0  0.9996816422812813  0.1500644619937503  0.4586139287956215  1.0000
  H   H15       1.0  0.9996974189680827  0.6500761592961481  0.0413988146962581  1.0000
  H   H16       1.0  0.00032022289617121433  0.8499264811497655  0.5413867260461274  1.0000
  H   H17       1.0  0.768182410182391  0.298333825290662  0.6832951496672877  1.0000
  H   H18       1.0  0.23179487966747564  0.2016694894293565  0.18329573073940966  1.0000
  H   H19       1.0  0.23181864704333321  0.7016712036349733  0.3167048995124659  1.0000
  H   H20       1.0  0.7682068820960029  0.7983300616229912  0.8167061354263438  1.0000
  H   H21       1.0  0.15627653596762062  0.4438175918842974  0.6336605430929936  1.0000
  H   H22       1.0  0.843717951732792  0.0561767582624526  0.1336750543911194  1.0000
  H   H23       1.0  0.8437295954921709  0.5561772646045071  0.36632557586075626  1.0000
  H   H24       1.0  0.15628426121252662  0.9438251405746814  0.8663231778026343  1.0000
  H   H25       1.0  0.012352698827363907  0.44533627423458466  0.7284708725964819  1.0000
  H   H26       1.0  0.9876747230321644  0.05465839553234281  0.2284775102886059  1.0000
  H   H27       1.0  0.987689773138193  0.554664842325316  0.2715213029772698  1.0000
  H   H28       1.0  0.012333465363489901  0.9453380255638777  0.7715195105811503  1.0000
  H   H29       1.0  0.8612306201785388  0.5792878555280723  0.6399236938365434  1.0000
  H   H30       1.0  0.13878248274863844  0.9207139964107044  0.1399230635846678  1.0000
  H   H31       1.0  0.13878344007962798  0.4207116956036998  0.3600763553432103  1.0000
  H   H32       1.0  0.8612267582655591  0.0792879027441273  0.8600679006650864  1.0000
  H   H33       1.0  0.6307046159786934  0.4797586889009224  0.6578216116029765  1.0000
  H   H34       1.0  0.36930561729216294  0.0202476359652266  0.1578082624490946  1.0000
  H   H35       1.0  0.3693116517831285  0.5202432095655638  0.34218509985878154  1.0000
  H   H36       1.0  0.6307002602901619  0.9797550457845292  0.8421814904766549  1.0000
  H   H37       1.0  0.7824412357354191  0.48469597412663756  0.5630972861035133  1.0000
  H   H38       1.0  0.2175381109938428  0.015311588631540501  0.0630930218796308  1.0000
  H   H39       1.0  0.2175486786456773  0.5153059245781222  0.436903974400245  1.0000
  H   H40       1.0  0.7824544627333765  0.9846950056957412  0.9368997593561232  1.0000
  C   C1        1.0  0.6166301049098735  0.0452344632485335  0.61727617466493  1.0000
  C   C2        1.0  0.3833415175037942  0.4547605372176521  0.1172797840470565  1.0000
  C   C3        1.0  0.3833599129895049  0.9547588276268186  0.38272205752882377  1.0000
  C   C4        1.0  0.6166477950581211  0.5452382309220738  0.8827305613867011  1.0000
  C   C5        1.0  0.4922417871515848  0.22343031465727853  0.0066101950696407  1.0000
  C   C6        1.0  0.5077198523218271  0.2765751434615211  0.5066077970115117  1.0000
  C   C7        1.0  0.5077488790253852  0.7765754968897556  0.993388037124113  1.0000
  C   C8        1.0  0.49227136792941917  0.7234244075643518  0.49339467481624405  1.0000
  C   C9        1.0  0.3904268168156976  0.2038920876063059  0.9310963060706856  1.0000
  C   C10       1.0  0.6095428979664989  0.29610677951337294  0.4310920418468029  1.0000
  C   C11       1.0  0.6095675135462741  0.7961145065091844  0.0689013204610731  1.0000
  C   C12       1.0  0.39045635522726496  0.7038888588026  0.5689104299809529  1.0000
  C   C13       1.0  0.5127495357131552  0.23950391236523674  0.8616759332754853  1.0000
  C   C14       1.0  0.48722720048959195  0.26048693781101667  0.361675908685605  1.0000
  C   C15       1.0  0.48724333834994843  0.7605042468077343  0.1383222989182684  1.0000
  C   C16       1.0  0.5127767221105088  0.7395055703105629  0.6383271688041461  1.0000
  C   C17       1.0  0.7379341597121254  0.2907200984936367  0.8709165184117751  1.0000
  C   C18       1.0  0.2620405099517882  0.2092738563330272  0.3709213391178992  1.0000
  C   C19       1.0  0.2620588645710811  0.7092888431418986  0.1290835307679785  1.0000
  C   C20       1.0  0.7379632623934428  0.7907178692995204  0.6290805270478543  1.0000
  C   C21       1.0  0.8283499210990329  0.3074482371919133  0.9485012149689922  1.0000
  C   C22       1.0  0.17162627860581384  0.1925475427627958  0.4485078526611233  1.0000
  C   C23       1.0  0.17164586538795853  0.6925567917337148  0.051498834210761416  1.0000
  C   C24       1.0  0.828372824333087  0.8074473130641452  0.551493407842635  1.0000
  C   C25       1.0  0.39647552467503294  0.22489662935560523  0.7802725378073134  1.0000
  C   C26       1.0  0.6035050899908114  0.2750911644275931  0.2802713018934355  1.0000
  C   C27       1.0  0.6035250817165477  0.7751060520499848  0.219725088724438  1.0000
  C   C28       1.0  0.3964989829337  0.7249021262359605  0.7197317755963155  1.0000
  C   C29       1.0  0.9842962185742368  0.4284635940680418  0.6635542024343977  1.0000
  C   C30       1.0  0.015708188064358804  0.0715336208768278  0.1635590231405217  1.0000
  C   C31       1.0  0.01571944865489878  0.5715351748129721  0.3364391844633516  1.0000
  C   C32       1.0  0.9842954812145948  0.9284667129293  0.8364379977292344  1.0000
  C   C33       1.0  0.803637079042872  0.4967145150978922  0.6287298487497708  1.0000
  C   C34       1.0  0.19636314321901688  0.0032888748652482  0.1287261901878907  1.0000
  C   C35       1.0  0.19637010381851644  0.5032858185229045  0.3712714117539875  1.0000
  C   C36       1.0  0.803639370688046  0.9967145892941148  0.8712665910478634  1.0000
  S   S1        1.0  0.35497744337467213  0.991190642559829  0.6381460758661035  1.0000
  S   S2        1.0  0.6449828075580513  0.5088004083767572  0.13816422113622914  1.0000
  S   S3        1.0  0.6450055471859955  0.008802648553796604  0.3618467053696507  1.0000
  S   S4        1.0  0.355007961024576  0.491196794493682  0.8618503639315236  1.0000
  N   N1        1.0  0.806728510556816  0.08399293218387531  0.6005817072927968  1.0000
  N   N2        1.0  0.1932509013508152  0.4160066584481683  0.1005738090969146  1.0000
  N   N3        1.0  0.1932618076784465  0.9160019235371665  0.3994219758589566  1.0000
  N   N4        1.0  0.8067419251412319  0.5839921097709748  0.8994347193508361  1.0000
  N   N5        1.0  0.7072608169808916  0.27473730263303514  0.0152336106277744  1.0000
  N   N6        1.0  0.2927064087493463  0.22526505372920985  0.5152366635276522  1.0000
  N   N7        1.0  0.2927298490917707  0.7252685088345743  0.9847664385519792  1.0000
  N   N8        1.0  0.7072878744240398  0.7747321497236757  0.48476459697610613  1.0000
  O   O1        1.0  0.1886392997980622  0.1794568318163599  0.7787256770589295  1.0000
  O   O2        1.0  0.8113471674479767  0.32052405450689037  0.2787202015110566  1.0000
  O   O3        1.0  0.8113624622435722  0.8205427194477865  0.2212713438108196  1.0000
  O   O4        1.0  0.1886536923342916  0.6794708012671009  0.7212822703166992  1.0000
  O   O5        1.0  0.504443762971043  0.25810189184106497  0.7164727083735088  1.0000
  O   O6        1.0  0.4955321791440426  0.2418930446010421  0.2164726837836355  1.0000
  O   O7        1.0  0.4955540811472119  0.7419047022214758  0.2835261294822473  1.0000
  O   O8        1.0  0.5044749566678348  0.7580978984630492  0.7835297880441203  1.0000
  O   O9        1.0  0.9158410285913803  0.3186147755061271  0.6518437276615003  1.0000
  O   O10       1.0  0.08414554716114252  0.18138424596752153  0.15184370307162  1.0000
  O   O11       1.0  0.08416073338071328  0.6813847757050694  0.3481545045322534  1.0000
  O   O12       1.0  0.9158582722335994  0.8186168702217318  0.848156951770136  1.0000
