data_image0
_chemical_formula_structural       Ag2H6C10S2O6
_chemical_formula_sum              "Ag2 H6 C10 S2 O6"
_cell_length_a       5.148607167351157
_cell_length_b       7.515840359547069
_cell_length_c       7.655572669223632
_cell_angle_alpha    96.1900362318794
_cell_angle_beta     106.01872499375699
_cell_angle_gamma    93.073852712548

_space_group_name_H-M_alt    "P 1"
_space_group_IT_number       1

loop_
  _space_group_symop_operation_xyz
  'x, y, z'

loop_
  _atom_site_type_symbol
  _atom_site_label
  _atom_site_symmetry_multiplicity
  _atom_site_fract_x
  _atom_site_fract_y
  _atom_site_fract_z
  _atom_site_occupancy
  Ag  Ag1       1.0  0.28283488152040087  0.24020261704632156  0.5967073219601744  1.0000
  Ag  Ag2       1.0  0.7171636230161554  0.7598006360146172  0.4032913507712124  1.0000
  H   H1        1.0  0.17390093548380037  0.07121308872166311  0.027505486779546104  1.0000
  H   H2        1.0  0.826099073304519  0.92878613713475  0.972493048246264  1.0000
  H   H3        1.0  0.9660917806491225  0.48413923333783515  0.2895574392548568  1.0000
  H   H4        1.0  0.03390634012235691  0.5158613337649811  0.7104447972006014  1.0000
  H   H5        1.0  0.8840164780765747  0.21372308739357482  0.7707825067296312  1.0000
  H   H6        1.0  0.11598149654541597  0.7862761356401576  0.22921694822315428  1.0000
  C   C1        1.0  0.24119746227355415  0.20075341658468196  0.9974974540800687  1.0000
  C   C2        1.0  0.7588066148474296  0.7992458149170785  0.0024992410917973836  1.0000
  C   C3        1.0  0.478237828260987  0.29020190320375144  0.11005935308941868  1.0000
  C   C4        1.0  0.5217626973753154  0.7098013529912917  0.8899397035334858  1.0000
  C   C5        1.0  0.5788509051510005  0.46050337871191255  0.07667652798605924  1.0000
  C   C6        1.0  0.4211528143380789  0.5394931662088497  0.9233211232728921  1.0000
  C   C7        1.0  0.8295731839951443  0.5531314099843951  0.18864328001043157  1.0000
  C   C8        1.0  0.170427143225325  0.44687050338730927  0.8113582103837516  1.0000
  C   C9        1.0  0.08330792709825371  0.2787040999739716  0.8474609274531845  1.0000
  C   C10       1.0  0.9166885040722121  0.7212991511985932  0.1525425766606432  1.0000
  S   S1        1.0  0.6435251481413147  0.19177849936257022  0.30944251526883454  1.0000
  S   S2        1.0  0.3564787044306711  0.8082193899387061  0.6905592213112755  1.0000
  O   O1        1.0  0.6272929764756513  0.32041740070749825  0.4664437363399543  1.0000
  O   O2        1.0  0.37271289719607376  0.6795804917278899  0.5335583841316802  1.0000
  O   O3        1.0  0.9266236957216093  0.17445638326923066  0.3074336384806529  1.0000
  O   O4        1.0  0.07337798960114125  0.8255401588288577  0.6925649327052739  1.0000
  O   O5        1.0  0.48766146024982493  0.0185800912080367  0.295078662097545  1.0000
  O   O6        1.0  0.5123361698068507  0.9814164449332805  0.7049204451238466  1.0000
