data_image0
_chemical_formula_structural       Mn2H28C36N8O20
_chemical_formula_sum              "Mn2 H28 C36 N8 O20"
_cell_length_a       4.933521283167803
_cell_length_b       11.707732023081363
_cell_length_c       15.233173933327144
_cell_angle_alpha    88.13951774264387
_cell_angle_beta     90.42586029621657
_cell_angle_gamma    83.77843384237917

_space_group_name_H-M_alt    "P 1"
_space_group_IT_number       1

loop_
  _space_group_symop_operation_xyz
  'x, y, z'

loop_
  _atom_site_type_symbol
  _atom_site_label
  _atom_site_symmetry_multiplicity
  _atom_site_fract_x
  _atom_site_fract_y
  _atom_site_fract_z
  _atom_site_occupancy
  Mn  Mn1       1.0  0.5392595024531772  0.4250873304901289  0.3326174296648148  1.0000
  Mn  Mn2       1.0  0.46073640510320507  0.574937172038048  0.6673549668982304  1.0000
  H   H1        1.0  0.8972334576532647  0.9906161824051551  0.2455433000993992  1.0000
  H   H2        1.0  0.1028066129374281  0.009442553074144704  0.754487089955802  1.0000
  H   H3        1.0  0.686691044122547  0.1754655126881062  0.3047020058382656  1.0000
  H   H4        1.0  0.3133922865739436  0.8245406741216427  0.6953361884795157  1.0000
  H   H5        1.0  0.14298232900691218  0.9892378528399637  0.4598130196827839  1.0000
  H   H6        1.0  0.8570988862845467  0.010770924627955501  0.5402336492183721  1.0000
  H   H7        1.0  0.44971793415700734  0.05151166975500839  0.1508766846546195  1.0000
  H   H8        1.0  0.550312710813138  0.9484577509968164  0.8491200336612011  1.0000
  H   H9        1.0  0.05827925362927999  0.171262685128994  0.21628265620450554  1.0000
  H   H10       1.0  0.9417330976389879  0.8287007982572516  0.7837234882510131  1.0000
  H   H11       1.0  0.04748008154389541  0.4137248718052859  0.997792511783075  1.0000
  H   H12       1.0  0.952451119153295  0.5862174299791151  0.002197459875830501  1.0000
  H   H13       1.0  0.16726669816526396  0.7851139198325399  0.4495237230015476  1.0000
  H   H14       1.0  0.8326250555900929  0.2149127092424052  0.5504772718432847  1.0000
  H   H15       1.0  0.9056014954114175  0.7797886835484817  0.24137926912687394  1.0000
  H   H16       1.0  0.09440589223756747  0.22021863747171727  0.7586480403084367  1.0000
  H   H17       1.0  0.7941033473103545  0.033881359621055714  0.0394727244274051  1.0000
  H   H18       1.0  0.20593428247661888  0.9661189563414327  0.9605251042506708  1.0000
  H   H19       1.0  0.41111845714483763  0.38598222659440745  0.892379631966179  1.0000
  H   H20       1.0  0.5888302491919432  0.6139797628260268  0.10760776936744071  1.0000
  H   H21       1.0  0.022621294435936086  0.38291922480828333  0.4241226545667089  1.0000
  H   H22       1.0  0.9772974380051309  0.6170892242542223  0.5758189701025174  1.0000
  H   H23       1.0  0.3604340776318793  0.4814626698888844  0.17837186064884486  1.0000
  H   H24       1.0  0.639708537332872  0.5184702595032674  0.8216247290557349  1.0000
  H   H25       1.0  0.7951088998715222  0.4220345207501027  0.49471126951787175  1.0000
  H   H26       1.0  0.20465594164512166  0.5779830945668465  0.5052353282468474  1.0000
  H   H27       1.0  0.10152539833853069  0.5376121445648891  0.233394459674777  1.0000
  H   H28       1.0  0.8984942551220881  0.4623581685556246  0.7665917736887666  1.0000
  C   C1        1.0  0.4322579935173821  0.6816478903927319  0.3750469807321224  1.0000
  C   C2        1.0  0.5677011132628421  0.3183647593553687  0.6249738150512627  1.0000
  C   C3        1.0  0.6571571263030336  0.6811626021300796  0.30919340502984494  1.0000
  C   C4        1.0  0.3427655003564353  0.318863055704398  0.6908114304083242  1.0000
  C   C5        1.0  0.6357764000014968  0.8876325186708843  0.3182581336952238  1.0000
  C   C6        1.0  0.3642362509335442  0.1123859458676151  0.681765571678774  1.0000
  C   C7        1.0  0.7324057417219619  0.9919172656478781  0.2928460876342243  1.0000
  C   C8        1.0  0.2676459986880815  0.008117376106334  0.7071829335072195  1.0000
  C   C9        1.0  0.6149145111954795  0.0945361181305344  0.32649934540676645  1.0000
  C   C10       1.0  0.38513972180390965  0.905480480561359  0.6735340905688503  1.0000
  C   C11       1.0  0.4007334995005607  0.09456869100657171  0.3868739235728  1.0000
  C   C12       1.0  0.5993231179125473  0.9054556306349185  0.6131619213564008  1.0000
  C   C13       1.0  0.30664110513093595  0.9905248430807987  0.4127060136893164  1.0000
  C   C14       1.0  0.6933657872362958  0.009491924230808  0.58731644748908  1.0000
  C   C15       1.0  0.4209800263691293  0.8875867512590147  0.3787758536388495  1.0000
  C   C16       1.0  0.578988435987263  0.11244389358906658  0.6212352278538589  1.0000
  C   C17       1.0  0.26496035938169626  0.2019167400827371  0.426065746880802  1.0000
  C   C18       1.0  0.7351238387157649  0.7981169193474784  0.5739598862123856  1.0000
  C   C19       1.0  0.8255231361995569  0.1380678604398753  0.9300476852255883  1.0000
  C   C20       1.0  0.1744702414107095  0.8619231747582462  0.0699531987848445  1.0000
  C   C21       1.0  0.7017236680834104  0.2465090214246857  0.8824552525795114  1.0000
  C   C22       1.0  0.2982442059981734  0.7534692237636097  0.11754345245991969  1.0000
  C   C23       1.0  0.47464796203756515  0.1680243313626804  0.0396935942598375  1.0000
  C   C24       1.0  0.5253786891405597  0.8319571390204104  0.9603172611268749  1.0000
  C   C25       1.0  0.3600780990017469  0.1305859993225198  0.1178096465388734  1.0000
  C   C26       1.0  0.6399627069937848  0.8693971402547335  0.8822070159261344  1.0000
  C   C27       1.0  0.1414496614474956  0.19652365792526177  0.1536284916806494  1.0000
  C   C28       1.0  0.8585636507936486  0.8034475607726321  0.846389916052324  1.0000
  C   C29       1.0  0.025752389781537512  0.29886666051731225  0.11109172242758092  1.0000
  C   C30       1.0  0.9742680300557679  0.70110365867626  0.888906982926791  1.0000
  C   C31       1.0  0.13377784168159929  0.3346630827766718  0.0317239782120424  1.0000
  C   C32       1.0  0.8662256002284464  0.6652909743600331  0.968266041103469  1.0000
  C   C33       1.0  0.36180726741014263  0.27082757399764296  0.9967012081754945  1.0000
  C   C34       1.0  0.6382294205633627  0.7291426849752086  0.0032980894768427976  1.0000
  C   C35       1.0  0.7952846553202161  0.3697221323189981  0.154758608512175  1.0000
  C   C36       1.0  0.20475721779430966  0.630267834867368  0.8452027121807576  1.0000
  N   N1        1.0  0.32866799790950557  0.7837595383735803  0.4047096365899279  1.0000
  N   N2        1.0  0.6712627871583693  0.21626436702376145  0.5952893036013834  1.0000
  N   N3        1.0  0.7453695771230145  0.7834371091366634  0.2861695837232787  1.0000
  N   N4        1.0  0.25461227949289617  0.216583188524865  0.7138548537015836  1.0000
  N   N5        1.0  0.7002014917535958  0.10597845070588362  0.004075546275643701  1.0000
  N   N6        1.0  0.29981229370049783  0.8940116485324128  0.9959239670401843  1.0000
  N   N7        1.0  0.4826937272432091  0.3057411974994864  0.9197285857338997  1.0000
  N   N8        1.0  0.5172742429364662  0.6942258757144518  0.0802618837506301  1.0000
  O   O1        1.0  0.347223748774084  0.5881799988088974  0.39944017453233027  1.0000
  O   O2        1.0  0.652780230643934  0.41183076388446693  0.6005778638312123  1.0000
  O   O3        1.0  0.7536431931941863  0.5881782183323309  0.2781380419444588  1.0000
  O   O4        1.0  0.246152091189181  0.4118590452884519  0.7218184093938547  1.0000
  O   O5        1.0  0.10032674272903817  0.18953555283426488  0.4876168400264831  1.0000
  O   O6        1.0  0.8996850719030649  0.8105095332060227  0.5123963036997311  1.0000
  O   O7        1.0  0.3180824452386872  0.30120163298608565  0.3957944732787766  1.0000
  O   O8        1.0  0.6820465220028352  0.698818104573576  0.6042136249337346  1.0000
  O   O9        1.0  0.035047239858002406  0.0828596933818631  0.9006683586259429  1.0000
  O   O10       1.0  0.9649982443024712  0.9171526242495674  0.0993383076665353  1.0000
  O   O11       1.0  0.8033133639758318  0.27891935055385636  0.8123411601083106  1.0000
  O   O12       1.0  0.19669481008914153  0.7210845080169435  0.1876527530617693  1.0000
  O   O13       1.0  0.7414887998400559  0.33545752016292596  0.23271244331556323  1.0000
  O   O14       1.0  0.25857389313318174  0.6645590037173578  0.7672605538757082  1.0000
  O   O15       1.0  0.6694436853218162  0.4557219241688415  0.1133440802006476  1.0000
  O   O16       1.0  0.33052532580499877  0.544236521053712  0.8865973727236707  1.0000
  O   O17       1.0  0.8420743473064647  0.4285387535720702  0.431823288749996  1.0000
  O   O18       1.0  0.15788664240372435  0.5715176462130033  0.5681319764060645  1.0000
  O   O19       1.0  0.24140301897715244  0.4715538540254797  0.2296697985264373  1.0000
  O   O20       1.0  0.758546279179427  0.5283969437069587  0.7702844152553183  1.0000
