data_image0
_chemical_formula_structural       Mn2H18C26N2O10
_chemical_formula_sum              "Mn2 H18 C26 N2 O10"
_cell_length_a       7.249445791007178
_cell_length_b       9.3008856877713
_cell_length_c       11.433840380390794
_cell_angle_alpha    114.00289328714426
_cell_angle_beta     108.5136252036035
_cell_angle_gamma    89.9770035503944

_space_group_name_H-M_alt    "P 1"
_space_group_IT_number       1

loop_
  _space_group_symop_operation_xyz
  'x, y, z'

loop_
  _atom_site_type_symbol
  _atom_site_label
  _atom_site_symmetry_multiplicity
  _atom_site_fract_x
  _atom_site_fract_y
  _atom_site_fract_z
  _atom_site_occupancy
  Mn  Mn1       1.0  0.49999943046242384  7.228733519946583e-08  0.9999977807721121  1.0000
  Mn  Mn2       1.0  2.1989932719999996e-07  1.1901613560999997e-06  4.400691934999999e-07  1.0000
  H   H1        1.0  0.23484553691479704  0.3943862277655583  0.3787750910862541  1.0000
  H   H2        1.0  0.26550285181264144  0.015485754436838299  0.6213112442907727  1.0000
  H   H3        1.0  0.1438436012430628  0.9845771145239155  0.37871965889797815  1.0000
  H   H4        1.0  0.35590470168407506  0.6059567503846778  0.6213853707898167  1.0000
  H   H5        1.0  0.7651522522733032  0.6056091528442806  0.6212280027237114  1.0000
  H   H6        1.0  0.7344975549072785  0.9845155947283714  0.3786882444615641  1.0000
  H   H7        1.0  0.8561557907908508  0.015426615990556095  0.6212804123480067  1.0000
  H   H8        1.0  0.6440926658626579  0.39403625526676916  0.37861509915367003  1.0000
  H   H9        1.0  0.3553614911328395  0.3718411041859041  0.21011156999921346  1.0000
  H   H10       1.0  0.14517593756158936  0.1618012586378939  0.7899802129469291  1.0000
  H   H11       1.0  0.8548302870969807  0.838200086421118  0.21002046638432872  1.0000
  H   H12       1.0  0.6446362174384319  0.6281614345115969  0.7898886353968988  1.0000
  H   H13       1.0  0.3607764047155584  0.6499471399512441  0.2208110381469551  1.0000
  H   H14       1.0  0.14004268983498494  0.4291419332665996  0.7792130296573132  1.0000
  H   H15       1.0  0.8599587406495742  0.5708570372315123  0.22078500473731572  1.0000
  H   H16       1.0  0.6392211021136731  0.350054213949221  0.7791869834518649  1.0000
  H   H17       1.0  0.25016234484297684  0.6781159682201903  0.999982036132401  1.0000
  H   H18       1.0  0.7498366164709156  0.3218853846537256  1.6283111158116084e-05  1.0000
  C   C1        1.0  0.1333325640691356  0.44222477797632825  0.4328753492708657  1.0000
  C   C2        1.0  0.3668420478585901  0.009367652397955298  0.5671703682944268  1.0000
  C   C3        1.0  0.2994504470573816  0.9907365639053153  0.4328193252017484  1.0000
  C   C4        1.0  0.20041419515104764  0.5579188474359426  0.5671755256599269  1.0000
  C   C5        1.0  0.8666650142982847  0.5577694151543183  0.5671264326058533  1.0000
  C   C6        1.0  0.6331566753986877  0.9906325049502841  0.43282925460803073  1.0000
  C   C7        1.0  0.7005484960992305  0.009264783604280102  0.5671807377699024  1.0000
  C   C8        1.0  0.799583145159751  0.44207415016902013  0.4328275598756903  1.0000
  C   C9        1.0  0.9320851714922328  0.3834416030143472  0.3639908036573231  1.0000
  C   C10       1.0  0.5681832450186732  0.019504333896783497  0.6360486689982066  1.0000
  C   C11       1.0  0.4318142527319111  0.9804970173215182  0.36395022446465936  1.0000
  C   C12       1.0  0.06791262677451466  0.6165537802776483  0.6360114182885892  1.0000
  C   C13       1.0  0.8586765082145789  0.2624109046245593  0.2173767230150645  1.0000
  C   C14       1.0  0.6413668647571383  0.0448967891281526  0.7826383035583573  1.0000
  C   C15       1.0  0.35863208747811376  0.9551045610636067  0.21736088754924765  1.0000
  C   C16       1.0  0.141323202492778  0.7375868633279267  0.7826249329858754  1.0000
  C   C17       1.0  0.3106380350069173  0.3964887618198816  0.12111798183289585  1.0000
  C   C18       1.0  0.18946328333500154  0.2754381333411188  0.8789630318435184  1.0000
  C   C19       1.0  0.81054003235424  0.7245632137709918  0.12103705219827535  1.0000
  C   C20       1.0  0.6893625825336896  0.6035137748245203  0.8788828188526805  1.0000
  C   C21       1.0  0.31146928548746905  0.545904572450418  0.12262993378468683  1.0000
  C   C22       1.0  0.18887931727393692  0.42327043952039395  0.8773985963213062  1.0000
  C   C23       1.0  0.8111223240313166  0.5767297184569101  0.12260075000656913  1.0000
  C   C24       1.0  0.688531139389731  0.45409678207911236  0.8773678112395585  1.0000
  C   C25       1.0  0.25013479640504244  0.5612540134045858  0.9999979898006117  1.0000
  C   C26       1.0  0.7498641649088498  0.43874733946933736  3.294429476238331e-07  1.0000
  N   N1        1.0  0.24989320419733474  0.2648155701075865  4.5935134537051665e-05  1.0000
  N   N2        1.0  0.750108647928606  0.7351857753489099  0.9999547231265777  1.0000
  O   O1        1.0  0.6736448530385387  0.2176137003933647  0.15972522198143219  1.0000
  O   O2        1.0  0.8262885434668095  0.05692989463785379  0.8400796955061052  1.0000
  O   O3        1.0  0.48608081543907394  0.942604552164937  0.15988351450219798  1.0000
  O   O4        1.0  0.013810620319681262  0.7830618287794165  0.8399435889063935  1.0000
  O   O5        1.0  0.3263536503194118  0.7823852667935184  0.8402739608518315  1.0000
  O   O6        1.0  0.1737104178470901  0.9430714582360693  0.15991862373744684  1.0000
  O   O7        1.0  0.5139181367961784  0.057396798026822196  0.8401156766054072  1.0000
  O   O8        1.0  0.9861905357936961  0.21693593546435605  0.1600592366033239  1.0000
  O   O9        1.0  0.24984606034534101  0.12121811131455469  3.101425081551079e-05  1.0000
  O   O10       1.0  0.7501560026012797  0.8787844216211411  0.9999709559435315  1.0000
