data_image0
_chemical_formula_structural       Zn2H42C44N2O14
_chemical_formula_sum              "Zn2 H42 C44 N2 O14"
_cell_length_a       8.844107281748943
_cell_length_b       16.556302258853915
_cell_length_c       17.708549200902986
_cell_angle_alpha    84.95687514429314
_cell_angle_beta     86.8696105077281
_cell_angle_gamma    79.48251795425936

_space_group_name_H-M_alt    "P 1"
_space_group_IT_number       1

loop_
  _space_group_symop_operation_xyz
  'x, y, z'

loop_
  _atom_site_type_symbol
  _atom_site_label
  _atom_site_symmetry_multiplicity
  _atom_site_fract_x
  _atom_site_fract_y
  _atom_site_fract_z
  _atom_site_occupancy
  Zn  Zn1       1.0  0.501354094358824  0.5860095791530782  0.5014316998753684  1.0000
  Zn  Zn2       1.0  0.53234080719961  0.41233702907442177  0.504097067921961  1.0000
  H   H1        1.0  0.33707083066153126  0.6298105848442218  0.8704663329294885  1.0000
  H   H2        1.0  0.45232614793379616  0.3704867217590361  0.14410487060164454  1.0000
  H   H3        1.0  0.4010051172243934  0.6263949825141566  0.7314947862791212  1.0000
  H   H4        1.0  0.5094208980315217  0.37959297184465157  0.2795083394206514  1.0000
  H   H5        1.0  0.4743658220573222  0.36487362394276346  0.8949468990513405  1.0000
  H   H6        1.0  0.34844522868239375  0.6364367561187336  0.11657754964380726  1.0000
  H   H7        1.0  0.6685953509648852  0.8622668575573371  0.4038177763262778  1.0000
  H   H8        1.0  0.29045888156636573  0.15095054430499025  0.5652814617442841  1.0000
  H   H9        1.0  0.32775683603203726  0.7245662176228365  0.5798167885730618  1.0000
  H   H10       1.0  0.7011500875599735  0.27246778595790033  0.4250164878185102  1.0000
  H   H11       1.0  0.308259072850987  0.8785605105930471  0.5799372689805294  1.0000
  H   H12       1.0  0.6911635940273798  0.12322446665217505  0.4119856330309445  1.0000
  H   H13       1.0  0.900997145042247  0.43132908457146607  0.3584881338001295  1.0000
  H   H14       1.0  0.9193939079879099  0.33111319878144485  0.40580967304408216  1.0000
  H   H15       1.0  0.18999098099430975  0.2955832141967035  0.3488158067311743  1.0000
  H   H16       1.0  0.0523150147664637  0.32380697661626806  0.27701029906005187  1.0000
  H   H17       1.0  0.168482079242068  0.3952383382336677  0.2997052028425386  1.0000
  H   H18       1.0  0.8662404839199169  0.6573543436602802  0.514889969236833  1.0000
  H   H19       1.0  0.038674565761454005  0.6717332003654944  0.5571338019065022  1.0000
  H   H20       1.0  0.905616322359279  0.6611171602339282  0.6864747599241168  1.0000
  H   H21       1.0  0.8017276994322344  0.7427883257754786  0.6272826098615594  1.0000
  H   H22       1.0  0.7352340526112826  0.6468822151855064  0.6435138741604971  1.0000
  H   H23       1.0  0.77596618769752  0.32202367859049735  0.7769448921171287  1.0000
  H   H24       1.0  0.7253980561156155  0.38211306641076  0.6899242264816292  1.0000
  H   H25       1.0  0.6557680858244764  0.2625077016874258  0.6352975459607888  1.0000
  H   H26       1.0  0.8470797655388154  0.2361286568022152  0.6670705028699826  1.0000
  H   H27       1.0  0.6943938172773303  0.200067303128499  0.722132093709106  1.0000
  H   H28       1.0  0.21316610483233225  0.6415889268361851  0.3266956155990285  1.0000
  H   H29       1.0  0.1625389089540761  0.7059048907134056  0.24157630519742662  1.0000
  H   H30       1.0  0.30555753383848827  0.8116650937175223  0.2909971032108983  1.0000
  H   H31       1.0  0.14104975429613384  0.7947688800409763  0.34847805342300814  1.0000
  H   H32       1.0  0.3281847136803575  0.7474765071447748  0.3777017475830461  1.0000
  H   H33       1.0  0.8592638100953491  0.7657044522260819  0.3798756989254455  1.0000
  H   H34       1.0  0.8916107702435173  0.6635401424506637  0.35131534830216526  1.0000
  H   H35       1.0  0.8366459541334519  0.7606349017467835  0.23709794633901982  1.0000
  H   H36       1.0  0.6816411600981312  0.7050528512588412  0.25654782176253826  1.0000
  H   H37       1.0  0.6595912376469427  0.8090219861848668  0.2792276898890903  1.0000
  H   H38       1.0  0.2149391075958107  0.22727311617697407  0.6572726964457656  1.0000
  H   H39       1.0  0.09269203519330921  0.28634559830478407  0.5865213584164052  1.0000
  H   H40       1.0  0.0968978404084595  0.41482400875288045  0.6521517347173498  1.0000
  H   H41       1.0  0.031223731400160725  0.33904480665972153  0.7166186838688231  1.0000
  H   H42       1.0  0.22420860235995116  0.356425300653285  0.7197189699773643  1.0000
  C   C1        1.0  0.5019110239479473  0.5090380314450512  0.3563045045487667  1.0000
  C   C2        1.0  0.5002091221212909  0.5008075286605017  0.650279778000154  1.0000
  C   C3        1.0  0.3817696022694009  0.4985043987837371  0.9725928287860836  1.0000
  C   C4        1.0  0.3812671235917832  0.50001225795328  0.04144474372629498  1.0000
  C   C5        1.0  0.5929381527685466  0.8333335403752853  0.44364009406475435  1.0000
  C   C6        1.0  0.3825384760728809  0.1761424619854921  0.5339013364477906  1.0000
  C   C7        1.0  0.5955976909271143  0.7481775508693145  0.4479877614332677  1.0000
  C   C8        1.0  0.4005285124073269  0.25789218362012173  0.539595898946828  1.0000
  C   C9        1.0  0.40070068299690587  0.7583189428543734  0.5423414578707905  1.0000
  C   C10       1.0  0.6136386293671947  0.2421662166518104  0.45536563492692017  1.0000
  C   C11       1.0  0.3900461982691181  0.842853692406635  0.5420853135117197  1.0000
  C   C12       1.0  0.6071125395914335  0.1603654671370904  0.4477744514036599  1.0000
  C   C13       1.0  0.4884510667877322  0.8815676049903088  0.4913276918990589  1.0000
  C   C14       1.0  0.48943460347693696  0.12609325594038265  0.4888119187167702  1.0000
  C   C15       1.0  0.48357042043342363  0.9676894647056142  0.4883807274375014  1.0000
  C   C16       1.0  0.48301105170132513  0.041493918536268395  0.4869952712066519  1.0000
  C   C17       1.0  0.8146234044926572  0.4661492107719809  0.49911376312654426  1.0000
  C   C18       1.0  0.22378069483861646  0.5189237793672703  0.5097903999784634  1.0000
  C   C19       1.0  0.9858167479893964  0.4621706075680334  0.4872721516570875  1.0000
  C   C20       1.0  0.05819737240800294  0.5137228374923452  0.5225988285266536  1.0000
  C   C21       1.0  0.37947084227183575  0.5716316241044553  0.8455963815609733  1.0000
  C   C22       1.0  0.4411959848125093  0.4300809684952185  0.16755614143626466  1.0000
  C   C23       1.0  0.4156048120394614  0.5696240822001428  0.7685547945764879  1.0000
  C   C24       1.0  0.4726150271243128  0.43518068749623495  0.242641284695395  1.0000
  C   C25       1.0  0.4719523124200862  0.4956944915510491  0.7348067646582306  1.0000
  C   C26       1.0  0.4604637421836555  0.5109923500017785  0.2747553374439703  1.0000
  C   C27       1.0  0.49137177427024165  0.42129698496847107  0.7821432653935997  1.0000
  C   C28       1.0  0.4111421868730289  0.5837064368614904  0.22775762088954107  1.0000
  C   C29       1.0  0.45522703099592826  0.4228766345824865  0.8597556972838158  1.0000
  C   C30       1.0  0.3817812650225036  0.5792086300006929  0.15179213802949926  1.0000
  C   C31       1.0  0.40097458151985405  0.49751725186056467  0.8928198328690936  1.0000
  C   C32       1.0  0.39827850504869383  0.5028879404711047  0.12005755320556225  1.0000
  C   C33       1.0  0.98446776690966  0.3788555494242302  0.3822954475449263  1.0000
  C   C34       1.0  0.10610403249145858  0.3466654006244879  0.32343066229663003  1.0000
  C   C35       1.0  0.933667403205398  0.6447574052470699  0.5663899143420604  1.0000
  C   C36       1.0  0.8382299984658561  0.6754826528863018  0.6351199793222688  1.0000
  C   C37       1.0  0.7010671119605477  0.32944081576227546  0.7278768285095436  1.0000
  C   C38       1.0  0.7255300297225844  0.2522381286433627  0.6857091897260755  1.0000
  C   C39       1.0  0.24675825065506982  0.6908843576508444  0.286979680396449  1.0000
  C   C40       1.0  0.2564059707923578  0.7657523309911978  0.32845411597462254  1.0000
  C   C41       1.0  0.8053237384183801  0.7200443378992034  0.3545784194871542  1.0000
  C   C42       1.0  0.7415552952892097  0.7506739758326759  0.27743805116293874  1.0000
  C   C43       1.0  0.18209184361987238  0.2885397962243346  0.6269519277211157  1.0000
  C   C44       1.0  0.1309318566534117  0.35391421755782904  0.6820703834702255  1.0000
  N   N1        1.0  0.5002846896417523  0.7119539706714446  0.4964680302834095  1.0000
  N   N2        1.0  0.5147068499406232  0.28969100853951346  0.5005079018131297  1.0000
  O   O1        1.0  0.4654315498758733  0.5753762771972717  0.38949898115131976  1.0000
  O   O2        1.0  0.4965932782634468  0.4366179481371048  0.6163547019460436  1.0000
  O   O3        1.0  0.569900826497907  0.43997895030859974  0.3864489272191775  1.0000
  O   O4        1.0  0.5213258600053052  0.5702502480960446  0.6185339154052512  1.0000
  O   O5        1.0  0.7318778123642955  0.5367130705657743  0.488593101927769  1.0000
  O   O6        1.0  0.3099957218607087  0.4574138557738506  0.48256004990278695  1.0000
  O   O7        1.0  0.7674670454094397  0.39795529993530465  0.5148870861524059  1.0000
  O   O8        1.0  0.26858094248012776  0.5841348167431947  0.5267198014803469  1.0000
  O   O9        1.0  0.06436663633860457  0.40415625081492124  0.44305573127584086  1.0000
  O   O10       1.0  0.9766799375494415  0.5562223626264924  0.5798660908773099  1.0000
  O   O11       1.0  0.5430356953931151  0.3446631629269205  0.7565193132014512  1.0000
  O   O12       1.0  0.39650381832127124  0.6616288546743403  0.25266116757215673  1.0000
  O   O13       1.0  0.6886913428745062  0.6944823438376629  0.4068693537904834  1.0000
  O   O14       1.0  0.31500274065543  0.31034611472126966  0.5841465708026162  1.0000
