data_image0
_chemical_formula_structural       H32Pb8C80N24O32
_chemical_formula_sum              "H32 Pb8 C80 N24 O32"
_cell_length_a       16.234816405435076
_cell_length_b       16.236520693706723
_cell_length_c       16.23381810853134
_cell_angle_alpha    61.90579072907706
_cell_angle_beta     86.66145732676611
_cell_angle_gamma    118.09750435022386

_space_group_name_H-M_alt    "P 1"
_space_group_IT_number       1

loop_
  _space_group_symop_operation_xyz
  'x, y, z'

loop_
  _atom_site_type_symbol
  _atom_site_label
  _atom_site_symmetry_multiplicity
  _atom_site_fract_x
  _atom_site_fract_y
  _atom_site_fract_z
  _atom_site_occupancy
  H   H1        1.0  0.5659538527769212  0.7575592418497549  0.9597659076064601  1.0000
  H   H2        1.0  0.808347876075956  0.02562517085844728  0.4341299253352203  1.0000
  H   H3        1.0  0.7829251367454831  0.7425179665037548  0.19151040760680607  1.0000
  H   H4        1.0  0.0402473365953143  0.4742464659326232  0.2171699978728014  1.0000
  H   H5        1.0  0.43405602705470164  0.24251508271050434  0.04010598170665247  1.0000
  H   H6        1.0  0.19163598548669097  0.9743491705139179  0.5659128944916463  1.0000
  H   H7        1.0  0.21713926772816436  0.25740172415367363  0.8085588896899695  1.0000
  H   H8        1.0  0.9597407647838381  0.5257685772186704  0.7828091492060592  1.0000
  H   H9        1.0  0.5578548683162837  0.8519553010141437  0.0393391858576988  1.0000
  H   H10       1.0  0.7058216805138784  0.09704722282145178  0.4422119673851199  1.0000
  H   H11       1.0  0.6088910062893833  0.648050920828972  0.2939478706188223  1.0000
  H   H12       1.0  0.9606309959999776  0.40264201107844155  0.3911986456827065  1.0000
  H   H13       1.0  0.44217886666145007  0.14817656848079958  0.9604916560084079  1.0000
  H   H14       1.0  0.2941123734380682  0.9028637197350308  0.5578086508759268  1.0000
  H   H15       1.0  0.39117084892514925  0.35182493967861445  0.706137898320705  1.0000
  H   H16       1.0  0.0394282012876557  0.597423128274471  0.6087880510849643  1.0000
  H   H17       1.0  0.39089955405336946  0.8180604477833385  0.10462228838454021  1.0000
  H   H18       1.0  0.5727270975112901  0.995379907190312  0.6091568447880887  1.0000
  H   H19       1.0  0.5773079499576282  0.6818587578767463  0.4270090125643548  1.0000
  H   H20       1.0  0.8953622891119436  0.5042295683859238  0.42273148880151684  1.0000
  H   H21       1.0  0.6091192341213796  0.18200525341406845  0.8952677096504331  1.0000
  H   H22       1.0  0.42717901800957486  0.004523128685924851  0.39083442128460183  1.0000
  H   H23       1.0  0.4227123219591745  0.3180501641808605  0.5730330225360163  1.0000
  H   H24       1.0  0.10473663047061878  0.49587036910907767  0.5772434179825227  1.0000
  H   H25       1.0  0.24105559468894447  0.6855895778896794  0.08905552885106963  1.0000
  H   H26       1.0  0.5553873733620802  0.830025546627283  0.759042995511429  1.0000
  H   H27       1.0  0.7252731021101653  0.8143650127408578  0.4444490019308061  1.0000
  H   H28       1.0  0.9109398959407002  0.6696951100197525  0.2747185740863001  1.0000
  H   H29       1.0  0.7589469326505239  0.31443178525124466  0.9108894984974752  1.0000
  H   H30       1.0  0.44452734249160397  0.16990844378084094  0.24097716986287307  1.0000
  H   H31       1.0  0.2747203999296487  0.18559317309403403  0.5555844615358297  1.0000
  H   H32       1.0  0.0891221201680634  0.33037160801800514  0.7252577978783352  1.0000
  Pb  Pb1       1.0  0.6706461361475675  0.6905219646924721  0.8381606967098492  1.0000
  Pb  Pb2       1.0  0.9801278321214325  0.008787329584016772  0.3293007859827454  1.0000
  Pb  Pb3       1.0  0.9714000460334375  0.8094304578751663  0.01986673715705911  1.0000
  Pb  Pb4       1.0  0.1618777535941192  0.491222212710433  0.02858658655833314  1.0000
  Pb  Pb5       1.0  0.32931115732095856  0.3094713268048324  0.1618750504217771  1.0000
  Pb  Pb6       1.0  0.01988701966953238  0.9912376554899397  0.6707283700826212  1.0000
  Pb  Pb7       1.0  0.02858291623606852  0.19056147842834287  0.9801487900677799  1.0000
  Pb  Pb8       1.0  0.838064898243566  0.5087349291196689  0.9714159767298013  1.0000
  C   C1        1.0  0.48485772550218087  0.49147240127061315  0.8379457153077183  1.0000
  C   C2        1.0  0.9933724274330584  0.8227743782984618  0.5151764204882526  1.0000
  C   C3        1.0  0.1707466037128214  0.008592951949566439  0.006543615660582678  1.0000
  C   C4        1.0  0.16214679584908964  0.6772942554953262  0.8292561577700539  1.0000
  C   C5        1.0  0.5151398952188017  0.508519099195091  0.16204814349762828  1.0000
  C   C6        1.0  0.006644583257496992  0.1772452705920742  0.4848552837995328  1.0000
  C   C7        1.0  0.8292701658008494  0.9914344031123858  0.9934355210589061  1.0000
  C   C8        1.0  0.8378190223101569  0.3227067622042768  0.17071968066499457  1.0000
  C   C9        1.0  0.43028677601613186  0.52199383184783  0.8812927536669902  1.0000
  C   C10       1.0  0.9083164388489847  0.8115770566898847  0.5697933248725702  1.0000
  C   C11       1.0  0.09688590639224498  0.9781254142410276  0.09162866350516202  1.0000
  C   C12       1.0  0.1187874002628389  0.68850590558241  0.9031502947024421  1.0000
  C   C13       1.0  0.5696761232596472  0.47796319340005783  0.11872198161016463  1.0000
  C   C14       1.0  0.0917226974805913  0.18845598510878142  0.4302615561416872  1.0000
  C   C15       1.0  0.9031464753654248  0.021915793470228102  0.9083618480938753  1.0000
  C   C16       1.0  0.881138658029215  0.3114512027854489  0.09684372383613035  1.0000
  C   C17       1.0  0.3274343266383965  0.47794655704713307  0.9106499353610005  1.0000
  C   C18       1.0  0.849537130487597  0.738098335622382  0.6726743640889624  1.0000
  C   C19       1.0  0.11157431765700916  0.02227482989260918  0.1503555098411766  1.0000
  C   C20       1.0  0.0893942260706806  0.7619481974680511  0.8884651345391816  1.0000
  C   C21       1.0  0.672514107513436  0.5219675506035628  0.08940442527011785  1.0000
  C   C22       1.0  0.15050115498673478  0.26192622113447334  0.3273888907508535  1.0000
  C   C23       1.0  0.8884605581983038  0.977774079379728  0.8496348441622386  1.0000
  C   C24       1.0  0.9105501890547814  0.23803266843876275  0.11152060674717021  1.0000
  C   C25       1.0  0.40369024709001855  0.6077822297304678  0.9395982528613729  1.0000
  C   C26       1.0  0.7959076673526793  0.8432554256921206  0.5964017498065458  1.0000
  C   C27       1.0  0.9527789496845429  0.8923559330857885  0.2040130175257317  1.0000
  C   C28       1.0  0.06044792358775916  0.6567381473975475  0.047277312395451104  1.0000
  C   C29       1.0  0.5962739946931919  0.39218108505308885  0.06039612481347231  1.0000
  C   C30       1.0  0.20410851916895462  0.15676374696863588  0.4036464987172722  1.0000
  C   C31       1.0  0.047258508281309564  0.10769313713914386  0.7959853177662666  1.0000
  C   C32       1.0  0.9395164298222909  0.3432696213642999  0.9526969247747201  1.0000
  C   C33       1.0  0.2353681251936095  0.3823325897913535  0.9220344670363829  1.0000
  C   C34       1.0  0.8531225298220947  0.6574608418835127  0.7647580819529836  1.0000
  C   C35       1.0  0.1958084353187886  0.1179570492968196  0.14672467045525647  1.0000
  C   C36       1.0  0.07799772629273609  0.8425999393208486  0.8042243145445411  1.0000
  C   C37       1.0  0.7646011700763398  0.6175768479629797  0.07803052322962845  1.0000
  C   C38       1.0  0.14690355924944498  0.3425431114430353  0.23531480401773308  1.0000
  C   C39       1.0  0.8042311679997168  0.8821115098987135  0.8532323018704275  1.0000
  C   C40       1.0  0.9219627747118437  0.15738693190985517  0.19574770688271287  1.0000
  C   C41       1.0  0.4081521289519114  0.6716054956739015  0.9815155313935336  1.0000
  C   C42       1.0  0.7365384620031816  0.8896192973679434  0.5919302928874614  1.0000
  C   C43       1.0  0.8470177995220424  0.8284818481263871  0.26337287135933696  1.0000
  C   C44       1.0  0.018523496704034255  0.6102958203208219  0.15304942438687869  1.0000
  C   C45       1.0  0.5918145209187885  0.3283824894540289  0.01844941237800402  1.0000
  C   C46       1.0  0.26347149559335037  0.11037473495952098  0.40810052206065  1.0000
  C   C47       1.0  0.15302747053535612  0.17154964630560696  0.7366301363142399  1.0000
  C   C48       1.0  0.9814741202824564  0.3897354207491333  0.8469300493632588  1.0000
  C   C49       1.0  0.4951658347047995  0.743996994090054  0.9877608681785405  1.0000
  C   C50       1.0  0.7511250042578865  0.9828342980065231  0.5049179812614425  1.0000
  C   C51       1.0  0.768429961166369  0.7560690311003672  0.24873817840977328  1.0000
  C   C52       1.0  0.012263779088435536  0.5170214446113734  0.23164037569822687  1.0000
  C   C53       1.0  0.5048255322671267  0.2560474406020746  0.012151611234642671  1.0000
  C   C54       1.0  0.24885244436315193  0.017128565090565987  0.4951190598375205  1.0000
  C   C55       1.0  0.23162158771859243  0.24389335883603985  0.7513084377613097  1.0000
  C   C56       1.0  0.9877431360992901  0.4830057326017539  0.7683382725573794  1.0000
  C   C57       1.0  0.49013848996060017  0.7972644977317956  0.03276138360443059  1.0000
  C   C58       1.0  0.6928234617001225  0.022793702067048345  0.5099183940391468  1.0000
  C   C59       1.0  0.6701121995440147  0.7027522782824961  0.3070000668617539  1.0000
  C   C60       1.0  0.9672366250173354  0.47696567539316714  0.3299617117795675  1.0000
  C   C61       1.0  0.5098628491659764  0.20280587698168495  0.9671361660198414  1.0000
  C   C62       1.0  0.3071321359926027  0.9771449314640107  0.49009380901097893  1.0000
  C   C63       1.0  0.3299396462513895  0.29718011417143925  0.6930388018153835  1.0000
  C   C64       1.0  0.032807471036214335  0.5230942506278778  0.6700156646143327  1.0000
  C   C65       1.0  0.3984226766264527  0.777967589362561  0.06928637894330336  1.0000
  C   C66       1.0  0.6203842777385233  0.9676048498381963  0.6016346677904421  1.0000
  C   C67       1.0  0.652776842664295  0.7219910995667436  0.3794262481382232  1.0000
  C   C68       1.0  0.9307070936581141  0.532095976560271  0.3472615904237982  1.0000
  C   C69       1.0  0.6015668968508121  0.22207417025517628  0.9306318844505412  1.0000
  C   C70       1.0  0.37955152550609467  0.032339713988591326  0.39835879946880237  1.0000
  C   C71       1.0  0.3472477986558431  0.27793935032360656  0.6206132620181606  1.0000
  C   C72       1.0  0.06935504049328484  0.46798582086012164  0.6527108807326202  1.0000
  C   C73       1.0  0.31456489728609677  0.7041980323285346  0.060917574307111984  1.0000
  C   C74       1.0  0.61031770384087  0.8754035448727464  0.6855116103727283  1.0000
  C   C75       1.0  0.7348855486365621  0.7957899029109825  0.3895364649448325  1.0000
  C   C76       1.0  0.9390834748002775  0.62435680640737  0.2651406771692918  1.0000
  C   C77       1.0  0.6854299562014249  0.29582739698861366  0.9390339311035587  1.0000
  C   C78       1.0  0.38963905234280105  0.12455504025199102  0.31449188992289817  1.0000
  C   C79       1.0  0.2651356797743744  0.20417996718256853  0.6104838510179745  1.0000
  C   C80       1.0  0.060957108281741064  0.375700126049999  0.7348460770701024  1.0000
  N   N1        1.0  0.4769488519903789  0.6037553439256912  0.9003587551531282  1.0000
  N   N2        1.0  0.8731802558646604  0.8772492713078608  0.5231457455306411  1.0000
  N   N3        1.0  0.9960678756111889  0.8963213210206789  0.12678004687504785  1.0000
  N   N4        1.0  0.09972908775383624  0.6227726745473207  0.0039824330490602754  1.0000
  N   N5        1.0  0.5230259869780766  0.3962420805664166  0.09961606446850621  1.0000
  N   N6        1.0  0.1268355534533112  0.12275026164896718  0.4769308388889684  1.0000
  N   N7        1.0  0.00396575797617507  0.1037200434894315  0.8732251704051351  1.0000
  N   N8        1.0  0.9002207496270029  0.3771972077917809  0.9960054258508109  1.0000
  N   N9        1.0  0.3143552037219877  0.5343872296896636  0.9449976061389477  1.0000
  N   N10       1.0  0.7799939358877238  0.7593544763191674  0.6857432233646179  1.0000
  N   N11       1.0  0.02075196627130522  0.9658253718735494  0.2198913689173593  1.0000
  N   N12       1.0  0.055011583628953475  0.7406365655310554  0.9792953760169566  1.0000
  N   N13       1.0  0.6856043821484405  0.4655377429573166  0.05503762590112146  1.0000
  N   N14       1.0  0.22002713544375033  0.2406593680580258  0.3142968750320776  1.0000
  N   N15       1.0  0.9792801809924468  0.03421316349034953  0.7801078287943566  1.0000
  N   N16       1.0  0.9449515586328373  0.259369158050369  0.02068265488257018  1.0000
  N   N17       1.0  0.31871710245757606  0.6517871090469926  0.018821715517461216  1.0000
  N   N18       1.0  0.6669084705394752  0.837477647290392  0.6813788507986943  1.0000
  N   N19       1.0  0.8294265229539306  0.8482401005746214  0.3330017830562538  1.0000
  N   N20       1.0  0.9812083819981865  0.6623782647414487  0.17059757781392185  1.0000
  N   N21       1.0  0.6812641505424322  0.34820467331108074  0.981159852977079  1.0000
  N   N22       1.0  0.3330804994409817  0.16249293576814242  0.3186616933187452  1.0000
  N   N23       1.0  0.1705926395050881  0.15176966269085312  0.6670047979616812  1.0000
  N   N24       1.0  0.01881187716055859  0.3376553789145191  0.8293888573556032  1.0000
  O   O1        1.0  0.5797519013909208  0.5380481933792609  0.8237994349950879  1.0000
  O   O2        1.0  0.0416277340981922  0.9034410707119778  0.42027146407738064  1.0000
  O   O3        1.0  0.1383007716396135  0.9619350462173984  0.9583035381900231  1.0000
  O   O4        1.0  0.1762662864545062  0.5965263135864022  0.8617201699990601  1.0000
  O   O5        1.0  0.4202520338209936  0.46197615155298893  0.17617304199563924  1.0000
  O   O6        1.0  0.9583457899048609  0.09651534189684689  0.5797779533353165  1.0000
  O   O7        1.0  0.8616982016151837  0.03806697644429861  0.041711006591114486  1.0000
  O   O8        1.0  0.8237584025416638  0.40352305343791534  0.13822919919087429  1.0000
  O   O9        1.0  0.4413393429285789  0.4229354427902548  0.8150042591213663  1.0000
  O   O10       1.0  0.018385711952013842  0.7563041665510679  0.5587279382723623  1.0000
  O   O11       1.0  0.26224564745101714  0.07717213356943373  0.981492513613297  1.0000
  O   O12       1.0  0.18511496222196647  0.7437727720286205  0.7377641546350803  1.0000
  O   O13       1.0  0.5586614809115673  0.5770488393023498  0.1849901707463743  1.0000
  O   O14       1.0  0.981622991400684  0.2436983390458494  0.4413313303378601  1.0000
  O   O15       1.0  0.7377677415770307  0.9228723380782854  0.018468846954796274  1.0000
  O   O16       1.0  0.8148262538063022  0.25623086126416456  0.262223797550753  1.0000
  O   O17       1.0  0.23587313597116097  0.324774899358033  0.8909604344707844  1.0000
  O   O18       1.0  0.9113007243419845  0.6270365595309003  0.764243118216079  1.0000
  O   O19       1.0  0.28443154582779323  0.17566398033072517  0.08853525281632103  1.0000
  O   O20       1.0  0.10907290942556343  0.8731950675721194  0.7155821258065984  1.0000
  O   O21       1.0  0.764088571206294  0.6750993323756306  0.10914035298944197  1.0000
  O   O22       1.0  0.08874603850807007  0.3729980683184452  0.23581564526236315  1.0000
  O   O23       1.0  0.7155999837910513  0.8244328390781845  0.9113945279408497  1.0000
  O   O24       1.0  0.8908757666058731  0.12678816615813568  0.28438950349300274  1.0000
  O   O25       1.0  0.15377724476829258  0.36138396230083464  0.9701511925336774  1.0000
  O   O26       1.0  0.7923835783166876  0.6238814176797334  0.8463400898886204  1.0000
  O   O27       1.0  0.1686111128854435  0.13880623275925072  0.20744550216303992  1.0000
  O   O28       1.0  0.029850153643415537  0.8760225456933807  0.8314464725566991  1.0000
  O   O29       1.0  0.8461951762799202  0.6385375828564364  0.029880151935593163  1.0000
  O   O30       1.0  0.20762436373178164  0.37610286981799135  0.15370307938766103  1.0000
  O   O31       1.0  0.8314187319132528  0.861263402591128  0.7925247273310914  1.0000
  O   O32       1.0  0.9701443150979115  0.12399675272129704  0.1685277191772555  1.0000
