data_image0
_chemical_formula_structural       C48Cl2H34N16Zn4
_chemical_formula_sum              "C48 Cl2 H34 N16 Zn4"
_cell_length_a       15.57192136461433
_cell_length_b       15.572554065739016
_cell_length_c       16.016684557659858
_cell_angle_alpha    129.32578132192324
_cell_angle_beta     112.28249901529396
_cell_angle_gamma    87.6049844845096

_space_group_name_H-M_alt    "P 1"
_space_group_IT_number       1

loop_
  _space_group_symop_operation_xyz
  'x, y, z'

loop_
  _atom_site_type_symbol
  _atom_site_label
  _atom_site_symmetry_multiplicity
  _atom_site_fract_x
  _atom_site_fract_y
  _atom_site_fract_z
  _atom_site_occupancy
  C   C1        1.0  0.7553830986932225  0.2762749621472266  0.234156274173884  1.0000
  C   C2        1.0  0.3189417763218145  0.512347301578174  0.48604600911518486  1.0000
  C   C3        1.0  0.02630040179868573  0.8328990120318667  0.513976478018691  1.0000
  C   C4        1.0  0.012289445023192529  0.4509406643939897  0.14122398587578291  1.0000
  C   C5        1.0  0.3096866646255376  0.8710400253995302  0.8587293202142944  1.0000
  C   C6        1.0  0.5877153543062617  0.6144341651605741  0.5988334125658594  1.0000
  C   C7        1.0  0.015596100929272216  0.9888754194699914  0.4011877623985214  1.0000
  C   C8        1.0  0.04208622991736614  0.5212225880480901  0.7658336567994936  1.0000
  C   C9        1.0  0.5980158235640829  0.5657358539966707  0.4948962963947848  1.0000
  C   C10       1.0  0.07084921301650834  0.10311972488072749  0.5051289079994206  1.0000
  C   C11       1.0  0.5085967397688975  0.5060682555496356  0.3886136695202183  1.0000
  C   C12       1.0  0.11745426963205562  0.12000270293996354  0.6114285044875274  1.0000
  C   C13       1.0  0.41981580598159224  0.49334772698981055  0.3871826031924073  1.0000
  C   C14       1.0  0.10614946866265024  0.03265759795405655  0.6128693160637155  1.0000
  C   C15       1.0  0.4107849593216667  0.5396322248671623  0.49212868830206696  1.0000
  C   C16       1.0  0.047489097964323386  0.9186760736226347  0.507911685131667  1.0000
  C   C17       1.0  0.4987072690476637  0.6029726073496845  0.5976598888057225  1.0000
  C   C18       1.0  0.005293471562573707  0.9010488439712248  0.40236723051260276  1.0000
  C   C19       1.0  0.5425713366617089  0.6728202074209193  0.7330782870302953  1.0000
  C   C20       1.0  0.9397531475520962  0.809460641306373  0.26692916031186087  1.0000
  C   C21       1.0  0.026571853543522574  0.20372853212106895  0.41992931421740554  1.0000
  C   C22       1.0  0.783824160160478  0.6066052109296578  0.5800708515877773  1.0000
  C   C23       1.0  0.6425933396623973  0.6885498351524363  0.7348612645328245  1.0000
  C   C24       1.0  0.016012887738561837  0.8546788500551938  0.6087895058177394  1.0000
  C   C25       1.0  0.9537070114040986  0.9077080764939254  0.2651497649730529  1.0000
  C   C26       1.0  0.979556565558333  0.5779348505569784  0.9180744456496511  1.0000
  C   C27       1.0  0.6598410713752259  0.06148691652682454  0.0819283609723981  1.0000
  C   C28       1.0  0.024287130919560487  0.526463473627466  0.9596441343666483  1.0000
  C   C29       1.0  0.5667960560085702  0.06464822565064302  0.04035841351740284  1.0000
  C   C30       1.0  0.24590775484279692  0.407240819640883  0.39121084854551913  1.0000
  C   C31       1.0  0.043088212031591334  0.4678758049261448  0.07692383981090253  1.0000
  C   C32       1.0  0.39091155328596006  0.9661629506243232  0.9230446510374932  1.0000
  C   C33       1.0  0.9979659862517988  0.5137314860189405  0.028610272998349656  1.0000
  C   C34       1.0  0.4850827940341556  0.9693628703919828  0.9713755205747815  1.0000
  C   C35       1.0  0.14741565466091788  0.30845377799320783  0.6049922593599533  1.0000
  C   C36       1.0  0.7034677135144062  0.5424083904504116  0.3950146560102253  1.0000
  C   C37       1.0  0.9799426441242434  0.6696863831885835  0.8309814543757665  1.0000
  C   C38       1.0  0.8387041116322819  0.1489732225196507  0.16903006552730906  1.0000
  C   C39       1.0  0.7449748739662069  0.1563619960966634  0.15701921518930823  1.0000
  C   C40       1.0  0.9993228783205266  0.5879581998040778  0.8429722887691611  1.0000
  C   C41       1.0  0.08088734474253552  0.19820948581449477  0.5088947634606384  1.0000
  C   C42       1.0  0.6893349726959456  0.5719690924490167  0.4911212712540163  1.0000
  C   C43       1.0  0.002394879669154246  0.7117437830170843  0.425995041424649  1.0000
  C   C44       1.0  0.2857670756018393  0.5764116953971268  0.5740403103074527  1.0000
  C   C45       1.0  0.06306012110160696  0.4229763496439888  0.21131465874883298  1.0000
  C   C46       1.0  0.21162195211749688  0.8516718987269057  0.7886117658393558  1.0000
  C   C47       1.0  0.3087839944775368  0.7750498783668791  0.8498441321110519  1.0000
  C   C48       1.0  0.9252035591685723  0.4589388516113714  0.15014223962362658  1.0000
  Cl  Cl1       1.0  0.7268958437779247  0.6321427828414699  0.7895269900815834  1.0000
  Cl  Cl2       1.0  0.8426305894280831  0.9373178490735014  0.21039119433363146  1.0000
  H   H1        1.0  0.7021779713945405  0.322336996924399  0.2564072911013823  1.0000
  H   H2        1.0  0.9679485587871776  0.7372350578801417  0.21399611319666426  1.0000
  H   H3        1.0  0.52331221458315  0.7539629188031469  0.7860371800955192  1.0000
  H   H4        1.0  0.5356565161221738  0.624554101137093  0.7597113658128547  1.0000
  H   H5        1.0  0.8648429419099982  0.7758782004201804  0.24023657249124847  1.0000
  H   H6        1.0  0.6820184128037635  0.7776874662311428  0.788253151372757  1.0000
  H   H7        1.0  0.9894306265455274  0.8937572488067148  0.21174237929412248  1.0000
  H   H8        1.0  0.06588754037009882  0.44577447761496114  0.7436198561915006  1.0000
  H   H9        1.0  0.9351813253338365  0.5429429546325865  0.04137763864753197  1.0000
  H   H10       1.0  0.5014921636220037  0.8937849023515837  0.958565084460261  1.0000
  H   H11       1.0  0.08352173220643518  0.4922249438199061  0.939981413229887  1.0000
  H   H12       1.0  0.5522484378074638  0.14355503530806146  0.0600301868855837  1.0000
  H   H13       1.0  0.10756025489722994  0.4417929429628983  0.06749920023123931  1.0000
  H   H14       1.0  0.3742541549828785  0.04007087104267982  0.9324903422354963  1.0000
  H   H15       1.0  0.9235874775970245  0.616193182520206  0.9436657761973635  1.0000
  H   H16       1.0  0.6724848181421592  0.9799204148812847  0.05634764215029973  1.0000
  H   H17       1.0  0.9652645702784141  0.13861179021462552  0.3317272897837071  1.0000
  H   H18       1.0  0.8069751240928722  0.6335161376993881  0.6682805221483716  1.0000
  H   H19       1.0  0.9455670878308239  0.7375282765423495  0.8728404651746897  1.0000
  H   H20       1.0  0.864696140303593  0.0727454079293111  0.12719773216663532  1.0000
  H   H21       1.0  0.001322595463825784  0.6569650453853272  0.33788858069431177  1.0000
  H   H22       1.0  0.3190501479030202  0.6634572982607735  0.6621505040845433  1.0000
  H   H23       1.0  0.13473137631237364  0.41024413464641196  0.23113154288976287  1.0000
  H   H24       1.0  0.35438769239677004  0.44486159937965647  0.3008920268157169  1.0000
  H   H25       1.0  0.17901160679940592  0.9034727679247824  0.76875961785926  1.0000
  H   H26       1.0  0.36799383901899313  0.7524764166161904  0.8889091176625854  1.0000
  H   H27       1.0  0.8635877072814465  0.4790947740980298  0.11106794502831721  1.0000
  H   H28       1.0  0.025030084068703207  0.9365593554834888  0.6944331968115732  1.0000
  H   H29       1.0  0.24209746585037095  0.3306026553347722  0.3055406248271026  1.0000
  H   H30       1.0  0.1439286817495784  0.053489417200694216  0.6991468911152195  1.0000
  H   H31       1.0  0.5087558894119013  0.46626189036229704  0.3029862873499241  1.0000
  H   H32       1.0  0.16327786620735182  0.205816438914134  0.6970205951359174  1.0000
  H   H33       1.0  0.20383307358844133  0.3443132856272727  0.6931945624778492  1.0000
  H   H34       1.0  0.6511508007891039  0.510646106212363  0.3068098193819894  1.0000
  N   N1        1.0  0.8473535048006581  0.3348068790636916  0.2861176614035655  1.0000
  N   N2        1.0  0.7982704787186491  0.5599437869252667  0.42599481326449506  1.0000
  N   N3        1.0  0.13396047483545462  0.37226783622089243  0.5740025119534806  1.0000
  N   N4        1.0  0.01124448370271114  0.6539643547970684  0.755854280557905  1.0000
  N   N5        1.0  0.8981147128372767  0.25539717009455387  0.24415496846420115  1.0000
  N   N6        1.0  0.979165002749845  0.6650256512259602  0.46518188423896584  1.0000
  N   N7        1.0  0.19986489379294148  0.5139775830104797  0.5348339062847032  1.0000
  N   N8        1.0  0.04867017416320619  0.5612226622391602  0.7138718853951785  1.0000
  N   N9        1.0  0.010879150631602318  0.4152867050821669  0.25797908908415923  1.0000
  N   N10       1.0  0.15728634810825753  0.7528442609469439  0.741982613743737  1.0000
  N   N11       1.0  0.2180767752846932  0.7061024721677641  0.7808796875399864  1.0000
  N   N12       1.0  0.9252389576554165  0.4372025047171347  0.21911839770090316  1.0000
  N   N13       1.0  0.9871552268697878  0.7543131857766524  0.5781161223654719  1.0000
  N   N14       1.0  0.1762172800236001  0.4090517456551481  0.42189253236304575  1.0000
  N   N15       1.0  0.058609664834491954  0.30821552345141606  0.45974555103070697  1.0000
  N   N16       1.0  0.8484827394068051  0.5988322346461034  0.5402390733505413  1.0000
  Zn  Zn1       1.0  0.8811761405212193  0.4992263861570904  0.3438750912571961  1.0000
  Zn  Zn2       1.0  0.15534761000267844  0.5373122993214708  0.6561460267289688  1.0000
  Zn  Zn3       1.0  0.03654500605905742  0.33637339303204783  0.33748232861871946  1.0000
  Zn  Zn4       1.0  0.9988675597401198  0.6990230775481481  0.6624960349685408  1.0000
