data_image0
_chemical_formula_structural       Zn4H32C48N16Cl8O4
_chemical_formula_sum              "Zn4 H32 C48 N16 Cl8 O4"
_cell_length_a       5.278295339
_cell_length_b       12.372050656507401
_cell_length_c       20.48
_cell_angle_alpha    90.0
_cell_angle_beta     90.0
_cell_angle_gamma    94.72500317001074

_space_group_name_H-M_alt    "P 1"
_space_group_IT_number       1

loop_
  _space_group_symop_operation_xyz
  'x, y, z'

loop_
  _atom_site_type_symbol
  _atom_site_label
  _atom_site_symmetry_multiplicity
  _atom_site_fract_x
  _atom_site_fract_y
  _atom_site_fract_z
  _atom_site_occupancy
  Zn  Zn1       1.0  0.8973914069766167  0.4068741360797574  0.6651616210937519  1.0000
  Zn  Zn2       1.0  0.1026067344464252  0.0931272964014482  0.1651625976562485  1.0000
  Zn  Zn3       1.0  0.10260858032259532  0.5931230516747519  0.3348364257812477  1.0000
  Zn  Zn4       1.0  0.8973904033076394  0.9068747575312628  0.8348374023437515  1.0000
  H   H1        1.0  0.8184689671544094  0.19318565262425838  0.6124360351562501  1.0000
  H   H2        1.0  0.181534701328971  0.3068149688272541  0.11243603515625009  1.0000
  H   H3        1.0  0.18152723104269336  0.806811535130258  0.3875639648437499  1.0000
  H   H4        1.0  0.8184698580364866  0.6931862740757637  0.8875664062500023  1.0000
  H   H5        1.0  0.5318487734890098  0.0825263271848655  0.5381538085937478  1.0000
  H   H6        1.0  0.4681520608863535  0.4174694280884381  0.0381513671875027  1.0000
  H   H7        1.0  0.4681534369840463  0.9174627502726409  0.46184716796874886  1.0000
  H   H8        1.0  0.5318384382204542  0.5825374920224817  0.9618510742187496  1.0000
  H   H9        1.0  0.1622337318602618  0.3737484389883221  0.4924321289062518  1.0000
  H   H10       1.0  0.8377491119986543  0.1262424501067727  0.9924291992187478  1.0000
  H   H11       1.0  0.8377631081452821  0.6262422605285849  0.5075664062499996  1.0000
  H   H12       1.0  0.162260802397185  0.873766903093248  0.007573730468749299  1.0000
  H   H13       1.0  0.4615352674984337  0.4719617026422611  0.5710283203125002  1.0000
  H   H14       1.0  0.5384590848224988  0.0280397298389516  0.0710302734375006  1.0000
  H   H15       1.0  0.5384621988784133  0.5280322409934541  0.42896777343749903  1.0000
  H   H16       1.0  0.4615584077775523  0.9719696233610691  0.9289707031250032  1.0000
  H   H17       1.0  0.4329851661261586  0.9326144071393044  0.2227016601562468  1.0000
  H   H18       1.0  0.5670130191028093  0.5673890792746192  0.722701171875002  1.0000
  H   H19       1.0  0.56700296865111  0.0673900798825144  0.7772949218749972  1.0000
  H   H20       1.0  0.43298396205842954  0.4326121636283986  0.2772934570312486  1.0000
  H   H21       1.0  0.7648906960857431  0.930873126372113  0.3096303710937534  1.0000
  H   H22       1.0  0.23510086593309862  0.5691254938636092  0.80963134765625  1.0000
  H   H23       1.0  0.2350977673143149  0.0691232503527033  0.690365722656253  1.0000
  H   H24       1.0  0.7648965850066178  0.4308781821285095  0.190365722656253  1.0000
  H   H25       1.0  0.5646139166437508  0.2503502700415652  0.367235839843751  1.0000
  H   H26       1.0  0.4353891254683191  0.249647107291139  0.8672338867187506  1.0000
  H   H27       1.0  0.4353919109014512  0.7496477287426515  0.6327646484375009  1.0000
  H   H28       1.0  0.5646157470827902  0.7503557576712794  0.1327670898437532  1.0000
  H   H29       1.0  0.2301274164782825  0.2349463829380127  0.279679199218748  1.0000
  H   H30       1.0  0.7698664660641654  0.2650526164540992  0.7796752929687472  1.0000
  H   H31       1.0  0.769871459234004  0.7650548599650051  0.7203232421874972  1.0000
  H   H32       1.0  0.23012862054601868  0.7349486264489187  0.2203232421874972  1.0000
  C   C1        1.0  0.6697057299458039  0.229671445765284  0.5851801757812467  1.0000
  C   C2        1.0  0.3302985803460103  0.2703226874486191  0.0851796875000019  1.0000
  C   C3        1.0  0.3302917364310431  0.7703224978704242  0.4148217773437466  1.0000
  C   C4        1.0  0.6697020333245122  0.7296777444246985  0.9148266601562512  1.0000
  C   C5        1.0  0.5085279359087025  0.16853683796352933  0.5439042968749987  1.0000
  C   C6        1.0  0.4914716302869166  0.3314621614285826  0.0439018554687465  1.0000
  C   C7        1.0  0.49146984365380325  0.8314587277315865  0.45609863281249835  1.0000
  C   C8        1.0  0.5085346515996392  0.6685480028011456  0.9561020507812472  1.0000
  C   C9        1.0  0.32152105960707905  0.2190039721132564  0.5092636718749972  1.0000
  C   C10       1.0  0.6784747329235613  0.280985294922445  0.0092622070312487  1.0000
  C   C11       1.0  0.6784745122187203  0.7809899715224589  0.49073876953124806  1.0000
  C   C12       1.0  0.3215434014849308  0.7190175700399734  0.9907431640625006  1.0000
  C   C13       1.0  0.3032742639678077  0.3304207992930088  0.5183540039062535  1.0000
  C   C14       1.0  0.6967134651429988  0.1695757670100022  0.0183549804687502  1.0000
  C   C15       1.0  0.6967145280550326  0.6695674671347973  0.4816435546875013  1.0000
  C   C16       1.0  0.3033030724629597  0.8304384523682272  0.9816499023437474  1.0000
  C   C17       1.0  0.4727611146743841  0.38576384400276  0.5614863281249995  1.0000
  C   C18       1.0  0.5272390933296691  0.1142286671517425  0.0614873046875033  1.0000
  C   C19       1.0  0.5272328757860124  0.6142317216923487  0.43851269531249676  1.0000
  C   C20       1.0  0.4727836131450687  0.8857782529591773  0.9385166015624976  1.0000
  C   C21       1.0  0.16721304526555514  0.1494216789500129  0.46498291015625176  1.0000
  C   C22       1.0  0.8327857379659279  0.3505732652935905  0.9649809570312513  1.0000
  C   C23       1.0  0.8327782676796575  0.8505698315965944  0.5350170898437483  1.0000
  C   C24       1.0  0.16722780893918812  0.6494352768767301  0.0350209960937491  1.0000
  C   C25       1.0  0.8928199208167699  0.0916049936534193  0.39318652343749966  1.0000
  C   C26       1.0  0.10717522990542962  0.4083907616198843  0.893185546875003  1.0000
  C   C27       1.0  0.10718670512969909  0.9083873279228882  0.6068134765625004  1.0000
  C   C28       1.0  0.8928098987338728  0.5916177805504361  0.10681542968750081  1.0000
  C   C29       1.0  0.4656108044440829  0.000138686078806  0.2566855468749978  1.0000
  C   C30       1.0  0.5343811835473105  0.4998603133133059  0.7566865234375015  1.0000
  C   C31       1.0  0.5343863333099819  0.9998633678539122  0.7433120117187499  1.0000
  C   C32       1.0  0.4656053853016928  0.5001360634115102  0.2433134765624985  1.0000
  C   C33       1.0  0.6500251862577855  0.9997417133988264  0.3048310546874973  1.0000
  C   C34       1.0  0.3499752221450266  0.5002536627180945  0.8048305664062526  1.0000
  C   C35       1.0  0.3499680058013439  0.0002595295041914  0.6951669921875023  1.0000
  C   C36       1.0  0.6500285542562949  0.4997435250364148  0.1951669921875023  1.0000
  C   C37       1.0  0.6895980346479861  0.0908247830814375  0.345609863281247  1.0000
  C   C38       1.0  0.3103955347088103  0.4091725942512667  0.8456083984374986  1.0000
  C   C39       1.0  0.3104017960584002  0.9091715936433715  0.654390136718753  1.0000
  C   C40       1.0  0.689599238715722  0.5908270265923505  0.1543906249999978  1.0000
  C   C41       1.0  0.5371754394348116  0.1773973374426134  0.3374448242187498  1.0000
  C   C42       1.0  0.46282191902409414  0.3226000398900908  0.8374428710937495  1.0000
  C   C43       1.0  0.46282865015216157  0.8226014723712964  0.6625561523437469  1.0000
  C   C44       1.0  0.53717316758609  0.6774012030129271  0.1625556640625021  1.0000
  C   C45       1.0  0.3545676417347607  0.1701775510478498  0.2884487304687511  1.0000
  C   C46       1.0  0.6454317678680326  0.3298206373145618  0.7884453125000022  1.0000
  C   C47       1.0  0.6454274448754234  0.829823691855168  0.7115517578125008  1.0000
  C   C48       1.0  0.35456853261683824  0.6701781724993552  0.21155273437499741  1.0000
  N   N1        1.0  0.6534476476099372  0.3368660523236997  0.5940336914062527  1.0000
  N   N2        1.0  0.3465541263223813  0.16313456912781282  0.0940351562500013  1.0000
  N   N3        1.0  0.3465518699107903  0.6631287023417158  0.4059682617187478  1.0000
  N   N4        1.0  0.6534586376185986  0.8368699178940062  0.9059702148437481  1.0000
  N   N5        1.0  0.20855672031996167  0.0483981973834915  0.4516157226562498  1.0000
  N   N6        1.0  0.7914439574625689  0.4515967468601119  0.9516147460937532  1.0000
  N   N7        1.0  0.7914372701404346  0.9515973683116243  0.5483833007812535  1.0000
  N   N8        1.0  0.2085613848670178  0.5484085511914074  0.048384765625002005  1.0000
  N   N9        1.0  0.033449227022849505  0.0112595253334717  0.4057221679687474  1.0000
  N   N10       1.0  0.9665538150892204  0.4887378519992325  0.9057207031249989  1.0000
  N   N11       1.0  0.9665532966358584  0.9887311741834351  0.5942763671874971  1.0000
  N   N12       1.0  0.0334425242635774  0.5112698791413877  0.0942763671874971  1.0000
  N   N13       1.0  0.3215282254226892  0.0838961563491836  0.24823193359375043  1.0000
  N   N14       1.0  0.6784678648564721  0.4161044651023218  0.74822998046875  1.0000
  N   N15       1.0  0.6784633852710443  0.9161067086132277  0.7517666015625011  1.0000
  N   N16       1.0  0.32153259222121733  0.5838951557412955  0.2517656249999973  1.0000
  Cl  Cl1       1.0  0.1418619675264736  0.2733997341327026  0.6909418945312495  1.0000
  Cl  Cl2       1.0  0.8581361738965684  0.2266016983485031  0.1909414062499977  1.0000
  Cl  Cl3       1.0  0.8581345438562806  0.7265990756812073  0.3090585937500023  1.0000
  Cl  Cl4       1.0  0.14186080726467049  0.7733995445545148  0.8090590820312471  1.0000
  Cl  Cl5       1.0  0.03427983097255801  0.5725374958140463  0.6316660156250009  1.0000
  Cl  Cl6       1.0  0.9657161465197037  0.9274643685404769  0.1316669921874976  1.0000
  Cl  Cl7       1.0  0.9657293158962759  0.4274580698810624  0.3683305664062502  1.0000
  Cl  Cl8       1.0  0.03427372621579391  0.0725393074516418  0.868331054687502  1.0000
  O   O1        1.0  0.966841796440349  0.1820640023398852  0.42973828125000324  1.0000
  O   O2        1.0  0.0331533542818505  0.3179317529334185  0.9297373046874995  1.0000
  O   O3        1.0  0.03316024200274367  0.8179339964443315  0.5702636718749972  1.0000
  O   O4        1.0  0.9668519880477435  0.6820735451181008  0.0702680664062498  1.0000
