data_image0
_chemical_formula_structural       K4H28C28N32O16
_chemical_formula_sum              "K4 H28 C28 N32 O16"
_cell_length_a       9.339062497
_cell_length_b       9.384147826711853
_cell_length_c       13.8834
_cell_angle_alpha    90.0
_cell_angle_beta     90.0
_cell_angle_gamma    111.21576465868641

_space_group_name_H-M_alt    "P 1"
_space_group_IT_number       1

loop_
  _space_group_symop_operation_xyz
  'x, y, z'

loop_
  _atom_site_type_symbol
  _atom_site_label
  _atom_site_symmetry_multiplicity
  _atom_site_fract_x
  _atom_site_fract_y
  _atom_site_fract_z
  _atom_site_occupancy
  K   K1        1.0  0.4236171745529377  0.2676183267459962  0.014984801993748  1.0000
  K   K2        1.0  0.07638452033668133  0.7323850652930943  0.5149891237016888  1.0000
  K   K3        1.0  0.5763843866508864  0.7323850652930943  0.9850101560136577  1.0000
  K   K4        1.0  0.9236147231044853  0.2676148974418027  0.4850123168676248  1.0000
  H   H1        1.0  0.18026275149594542  0.5878318918862462  0.1199374792918135  1.0000
  H   H2        1.0  0.319739182837381  0.412169213950051  0.6199360387224998  1.0000
  H   H3        1.0  0.8197375627165046  0.4121680708486508  0.8800646815621533  1.0000
  H   H4        1.0  0.6802611313750689  0.587830748784846  0.3800639612775  1.0000
  H   H5        1.0  0.06362887337148491  0.2641455847007919  0.0615180719420323  1.0000
  H   H6        1.0  0.4363705037554766  0.7358543780341051  0.5615187922266855  1.0000
  H   H7        1.0  0.9363703700696819  0.7358543780341051  0.9384819280579677  1.0000
  H   H8        1.0  0.5636293947931891  0.2641444415993917  0.4384812077733144  1.0000
  H   H9        1.0  0.029009755790319506  0.3105715048534563  0.1812056124580437  1.0000
  H   H10       1.0  0.47099027644414093  0.6894273147800405  0.6812063327426969  1.0000
  H   H11       1.0  0.970991629193428  0.6894284578814336  0.8187943875419561  1.0000
  H   H12       1.0  0.5290096221045246  0.3105715048534563  0.3187936672573031  1.0000
  H   H13       1.0  0.8889394629506029  0.2939096588854397  0.08910641485515208  1.0000
  H   H14       1.0  0.6110596468047618  0.7060903038494573  0.589106414855152  1.0000
  H   H15       1.0  0.11105978049055666  0.7060903038494573  0.9108935851448479  1.0000
  H   H16       1.0  0.3889406674076881  0.2939096588854397  0.4108935851448479  1.0000
  H   H17       1.0  0.6941148540893566  0.9250330868927676  0.1941808202601649  1.0000
  H   H18       1.0  0.8058863972085958  0.0749668758421294  0.6941815405448253  1.0000
  H   H19       1.0  0.30588504445930914  0.0749657327407292  0.8058199000244883  1.0000
  H   H20       1.0  0.194113917003861  0.9250330868927676  0.3058191797398351  1.0000
  H   H21       1.0  0.6644966905321326  0.0586010931360263  0.112253482576314  1.0000
  H   H22       1.0  0.8355045607658199  0.9413988695988705  0.612253482576314  1.0000
  H   H23       1.0  0.3355046944516147  0.9413988695988705  0.887746517423686  1.0000
  H   H24       1.0  0.1644950983391311  0.0586022362374194  0.3877457971390328  1.0000
  H   H25       1.0  0.7334596191640159  0.1195352562240757  0.2305681605370467  1.0000
  H   H26       1.0  0.7665416321339364  0.8804647065108213  0.7305688808216998  1.0000
  H   H27       1.0  0.266540695048441  0.8804647065108213  0.7694318394629533  1.0000
  H   H28       1.0  0.2334586820785205  0.1195352562240757  0.2694311191783001  1.0000
  C   C1        1.0  0.20564481290397651  0.7088246023919567  0.108518086347722  1.0000
  C   C2        1.0  0.2943577765368559  0.2911753603429332  0.6085173660630687  1.0000
  C   C3        1.0  0.7943565720797707  0.2911753603429332  0.8914833542215914  1.0000
  C   C4        1.0  0.7056425376756011  0.7088246023919567  0.3914826339369313  1.0000
  C   C5        1.0  0.18145074885404  0.9338429693622743  0.0968559574743963  1.0000
  C   C6        1.0  0.3185511854792864  0.0661581364740158  0.5968566777590496  1.0000
  C   C7        1.0  0.8185506361297001  0.0661569933726227  0.9031440425256037  1.0000
  C   C8        1.0  0.6814480579618732  0.9338418262608741  0.4031440425256036  1.0000
  C   C9        1.0  0.9699967142272428  0.9889793221628764  0.1311415071236155  1.0000
  C   C10       1.0  0.5300045370707025  0.0110206405720135  0.6311422274082688  1.0000
  C   C11       1.0  0.0300035999852071  0.0110206405720135  0.8688577725917312  1.0000
  C   C12       1.0  0.46999577714174734  0.9889793221628764  0.36885777259173114  1.0000
  C   C13       1.0  0.9528911847846686  0.7389430380097863  0.1551421121627286  1.0000
  C   C14       1.0  0.5471111372845741  0.2610569247251036  0.6551413918780681  1.0000
  C   C15       1.0  0.047108713763996904  0.2610557816237105  0.8448586081219318  1.0000
  C   C16       1.0  0.45288917692788294  0.7389430380097863  0.3448586081219317  1.0000
  C   C17       1.0  0.8686141257005816  0.579850757929826  0.1853234798392336  1.0000
  C   C18       1.0  0.6313886120324455  0.4201503479064641  0.6853242001238868  1.0000
  C   C19       1.0  0.1313861885118754  0.420149204805071  0.8146765201607662  1.0000
  C   C20       1.0  0.3686117021800044  0.5798496148284258  0.3146765201607663  1.0000
  C   C21       1.0  0.9743606115064978  0.24857425746585446  0.1157194923433735  1.0000
  C   C22       1.0  0.5256406397914475  0.7514257052690354  0.6157202126280339  1.0000
  C   C23       1.0  0.02564118914103372  0.7514268483704356  0.8842805076566265  1.0000
  C   C24       1.0  0.474359258757211  0.24857311436446142  0.384279787371966  1.0000
  C   C25       1.0  0.7372388109754056  0.0442437395850916  0.1708940173156464  1.0000
  C   C26       1.0  0.7627602987799591  0.9557562231497981  0.6708947376002996  1.0000
  C   C27       1.0  0.2627604324657539  0.9557562231497981  0.8291052623997003  1.0000
  C   C28       1.0  0.23724001543249068  0.0442437395850916  0.3291052623997004  1.0000
  N   N1        1.0  0.10237236406674552  0.780725680286352  0.12297059798032  1.0000
  N   N2        1.0  0.3976299859303722  0.2192765686513383  0.62297059798032  1.0000
  N   N3        1.0  0.897629436580786  0.2192754255499452  0.87702940201968  1.0000
  N   N4        1.0  0.602370743945869  0.7807245371849518  0.37702940201968  1.0000
  N   N5        1.0  0.1164820422402713  0.039444999918949  0.1002693864615267  1.0000
  N   N6        1.0  0.3835184056579806  0.9605549628159479  0.600270106746187  1.0000
  N   N7        1.0  0.8835172012008955  0.9605549628159479  0.8997298932538129  1.0000
  N   N8        1.0  0.6164819085544693  0.039444999918949  0.3997298932538129  1.0000
  N   N9        1.0  0.32339059660858993  0.951023783364704  0.0696500857138744  1.0000
  N   N10       1.0  0.1766087805183716  0.0489761793701931  0.5696508059985277  1.0000
  N   N11       1.0  0.6766086468325767  0.0489761793701931  0.9303491940014722  1.0000
  N   N12       1.0  0.8233904629227952  0.951023783364704  0.43034991428612557  1.0000
  N   N13       1.0  0.8873709235410487  0.8395931160479577  0.1587161646282595  1.0000
  N   N14       1.0  0.6126303277568965  0.1604068466869322  0.6587161646282595  1.0000
  N   N15       1.0  0.11262939067140819  0.1604068466869322  0.8412838353717405  1.0000
  N   N16       1.0  0.38736957079176193  0.8395919729465646  0.3412838353717405  1.0000
  N   N17       1.0  0.3357631011318674  0.8087328076232438  0.0765179999135626  1.0000
  N   N18       1.0  0.1642388332014662  0.1912682982130534  0.5765179999135623  1.0000
  N   N19       1.0  0.6642382838518799  0.1912671551116532  0.9234820000864372  1.0000
  N   N20       1.0  0.8357614810109909  0.8087316645218436  0.4234820000864374  1.0000
  N   N21       1.0  0.7471748737666033  0.4891959585102299  0.1291614446029072  1.0000
  N   N22       1.0  0.752825722423843  0.5108051473260602  0.6291614446029071  1.0000
  N   N23       1.0  0.2528254404458536  0.51080400422466  0.870839275681746  1.0000
  N   N24       1.0  0.2471735210173165  0.48919481540883686  0.3708385553970928  1.0000
  N   N25       1.0  0.9074528449757864  0.535078905499148  0.2741100883068981  1.0000
  N   N26       1.0  0.5925484063221589  0.4649210572357418  0.7741100883068981  1.0000
  N   N27       1.0  0.09254746923666349  0.4649210572357418  0.7258899116931019  1.0000
  N   N28       1.0  0.4074514922265067  0.535077762397755  0.2258899116931019  1.0000
  N   N29       1.0  0.8951754881461156  0.0872952244127347  0.1371702896984885  1.0000
  N   N30       1.0  0.6048242767167551  0.912703595220762  0.6371710099831489  1.0000
  N   N31       1.0  0.10482482606634139  0.9127047383221623  0.8628297103015115  1.0000
  N   N32       1.0  0.39517603749570185  0.0872963675141278  0.3628289900168511  1.0000
  O   O1        1.0  0.7363047588126577  0.541067613719953  0.0456869354769012  1.0000
  O   O2        1.0  0.7636958373777886  0.458933492116337  0.5456862151922408  1.0000
  O   O3        1.0  0.2636944846285019  0.45893234901493685  0.9543137848077592  1.0000
  O   O4        1.0  0.2363044768346683  0.54106647061856  0.4543137848077592  1.0000
  O   O5        1.0  0.6548329688198606  0.3625517546959358  0.157315210971376  1.0000
  O   O6        1.0  0.8451665565992954  0.6374493511403614  0.6573152109713759  1.0000
  O   O7        1.0  0.34516627462129884  0.6374482080389612  0.842684789028624  1.0000
  O   O8        1.0  0.1548326868418712  0.3625506115945356  0.342684789028624  1.0000
  O   O9        1.0  0.8359063313759164  0.4077042598919292  0.31143812034515855  1.0000
  O   O10       1.0  0.6640938491507384  0.5922957028429607  0.8114374000605054  1.0000
  O   O11       1.0  0.164092912065243  0.5922957028429607  0.6885625999394946  1.0000
  O   O12       1.0  0.3359064650617114  0.4077042598919292  0.18856187965484134  1.0000
  O   O13       1.0  0.022727738024350675  0.6344052721191673  0.3144489102093146  1.0000
  O   O14       1.0  0.4772720547663951  0.3655958337171228  0.8144481899246614  1.0000
  O   O15       1.0  0.9772719210806002  0.3655958337171228  0.6855510897906852  1.0000
  O   O16       1.0  0.5227271886747644  0.6344041290177742  0.1855510897906854  1.0000
