data_image0
_chemical_formula_structural       Nd4H24C24N8O32
_chemical_formula_sum              "Nd4 H24 C24 N8 O32"
_cell_length_a       7.680126644880839
_cell_length_b       8.099434867723149
_cell_length_c       17.23692874501141
_cell_angle_alpha    89.9998830930531
_cell_angle_beta     89.99997887290657
_cell_angle_gamma    108.89303216495166

_space_group_name_H-M_alt    "P 1"
_space_group_IT_number       1

loop_
  _space_group_symop_operation_xyz
  'x, y, z'

loop_
  _atom_site_type_symbol
  _atom_site_label
  _atom_site_symmetry_multiplicity
  _atom_site_fract_x
  _atom_site_fract_y
  _atom_site_fract_z
  _atom_site_occupancy
  Nd  Nd1       1.0  0.1852094983327319  0.23731794407966328  0.9167130645456185  1.0000
  Nd  Nd2       1.0  0.8147954029885157  0.2626883372807427  0.4167109372858065  1.0000
  Nd  Nd3       1.0  0.8147916681528288  0.7626773814357077  0.08328760744402083  1.0000
  Nd  Nd4       1.0  0.18520667956991596  0.737320133450261  0.5832874140983648  1.0000
  H   H1        1.0  0.5522897212765229  0.0955497415805198  0.7170226586226961  1.0000
  H   H2        1.0  0.44770829612041757  0.4044551155506468  0.21702335065446482  1.0000
  H   H3        1.0  0.4477112581131593  0.9044521731928795  0.2829745324652322  1.0000
  H   H4        1.0  0.5522849416441103  0.5955469989528835  0.7829744205837061  1.0000
  H   H5        1.0  0.6793532152907317  0.10541632703738198  0.8541532220440972  1.0000
  H   H6        1.0  0.3206396135233689  0.39458532153824416  0.3541533628825918  1.0000
  H   H7        1.0  0.3206445177680593  0.8945909390265071  0.14584454919123863  1.0000
  H   H8        1.0  0.6793586395294469  0.6054127129176265  0.64584498850693  1.0000
  H   H9        1.0  0.5723988757508137  0.3384721563488426  0.9723824160696567  1.0000
  H   H10       1.0  0.42760123817431145  0.16152474264571737  0.47238218642657154  1.0000
  H   H11       1.0  0.4275977541331315  0.6615285537456116  0.027618836067468108  1.0000
  H   H12       1.0  0.5724039449165517  0.8384744298941412  0.5276190657106528  1.0000
  H   H13       1.0  0.5929820751154437  0.49735801319652495  0.9186656914388538  1.0000
  H   H14       1.0  0.4070178470904366  0.0026418021086129975  0.41866445870105207  1.0000
  H   H15       1.0  0.40701698952143056  0.5026386834393078  0.0813314996517462  1.0000
  H   H16       1.0  0.5929866702171083  0.9973626551563725  0.5813327323853699  1.0000
  H   H17       1.0  0.3348249486192856  0.9747097992042411  0.8993082029507137  1.0000
  H   H18       1.0  0.6651728601479122  0.5252939977786467  0.399311550058613  1.0000
  H   H19       1.0  0.6651733044274336  0.025288235239791797  0.10069478963686153  1.0000
  H   H20       1.0  0.3348256844827445  0.4747119304415435  0.6006943432738936  1.0000
  H   H21       1.0  0.252407066010754  0.9091586221741393  0.9808007168997648  1.0000
  H   H22       1.0  0.7475976457286464  0.5908393080493822  0.48080282757268833  1.0000
  H   H23       1.0  0.747583778308197  0.09083696964855648  0.0192005352402944  1.0000
  H   H24       1.0  0.2524154247789596  0.4091636116476849  0.5191995848616245  1.0000
  C   C1        1.0  0.6931239025399877  0.168749838516149  0.7339229549213828  1.0000
  C   C2        1.0  0.3068748820272518  0.3312535946091444  0.23392083867277352  1.0000
  C   C3        1.0  0.3068795115949997  0.8312480627838424  0.2660759766175715  1.0000
  C   C4        1.0  0.6931196460095349  0.6687484866087416  0.7660757722658077  1.0000
  C   C5        1.0  0.8411572207714924  0.27985654928962583  0.6923273125775822  1.0000
  C   C6        1.0  0.1588394254665886  0.22014452018931507  0.1923253266531049  1.0000
  C   C7        1.0  0.1588458604683964  0.7201439943662606  0.30767219910987365  1.0000
  C   C8        1.0  0.8411536665025422  0.7798536474194789  0.8076736048865031  1.0000
  C   C9        1.0  0.8359600992481617  0.3189508750751103  0.6085420663053256  1.0000
  C   C10       1.0  0.16403533111724036  0.18104670808768464  0.10854417854624643  1.0000
  C   C11       1.0  0.16404475095218637  0.6810509398295255  0.39145628508185853  1.0000
  C   C12       1.0  0.8359524539720482  0.8189476457778183  0.8914570735946443  1.0000
  C   C13       1.0  0.9869922416905368  0.3365244145775677  0.747670079770387  1.0000
  C   C14       1.0  0.013008754394519402  0.16348152421822695  0.24766817104332975  1.0000
  C   C15       1.0  0.013014710363073393  0.6634760292154738  0.2523282716173015  1.0000
  C   C16       1.0  0.986985773639212  0.8365205569937401  0.7523307604942746  1.0000
  C   C17       1.0  0.18520840711686762  0.44871655020735807  0.7458814848472459  1.0000
  C   C18       1.0  0.8147893886430281  0.05128421285675699  0.24588130302500846  1.0000
  C   C19       1.0  0.8147935296469342  0.5512879736303874  0.2541174466886105  1.0000
  C   C20       1.0  0.1852045149078734  0.9487126169275654  0.7541182086649486  1.0000
  C   C21       1.0  0.0869138754326785  0.5781771579279039  0.9902880789498671  1.0000
  C   C22       1.0  0.9130864618751813  0.9218195192476272  0.49028810298337083  1.0000
  C   C23       1.0  0.9130840447250466  0.421823518883869  0.009710852588163704  1.0000
  C   C24       1.0  0.08691919990922509  0.07818095783697739  0.5097090881048914  1.0000
  N   N1        1.0  0.9300594152692055  0.2615295100137161  0.8167468114326015  1.0000
  N   N2        1.0  0.0699352808119542  0.23847360057666117  0.3167471418999171  1.0000
  N   N3        1.0  0.06993994095388707  0.7384750804027078  0.1832515399536589  1.0000
  N   N4        1.0  0.9300586227374196  0.7615232292046982  0.6832535300895515  1.0000
  N   N5        1.0  0.7530936894100008  0.16488999762631099  0.8071529352775145  1.0000
  N   N6        1.0  0.24690538138857934  0.3351143665668204  0.3071508244358441  1.0000
  N   N7        1.0  0.24690905893632484  0.8351131883884477  0.19284599625892443  1.0000
  N   N8        1.0  0.7530907698117418  0.6648850390021225  0.6928469468034211  1.0000
  O   O1        1.0  0.2833344182473708  0.43009377153473577  0.8024791561045319  1.0000
  O   O2        1.0  0.7166645190380335  0.06990666959757161  0.3024789711965639  1.0000
  O   O3        1.0  0.7166659366579466  0.5699028918080558  0.19751977543525362  1.0000
  O   O4        1.0  0.2833346913889017  0.9300939739226377  0.6975211206408859  1.0000
  O   O5        1.0  0.24675678092966538  0.554786697523461  0.690455661517696  1.0000
  O   O6        1.0  0.7532435327906555  0.9452128465958366  0.19045510710794392  1.0000
  O   O7        1.0  0.7532493595398932  0.4452150840896181  0.3095438501689217  1.0000
  O   O8        1.0  0.24674989207127854  0.054782678652614394  0.8095449847324334  1.0000
  O   O9        1.0  0.936823937792191  0.4642400728732311  0.5819688087607844  1.0000
  O   O10       1.0  0.0631746216402576  0.03575888376766299  0.08197107727200151  1.0000
  O   O11       1.0  0.06318430453291772  0.5357603376326877  0.41802896247706667  1.0000
  O   O12       1.0  0.9368163684733232  0.9642406549482839  0.918029594716373  1.0000
  O   O13       1.0  0.7275750127487227  0.20380975880193114  0.5643294976677568  1.0000
  O   O14       1.0  0.27243505968343135  0.29618504130650797  0.06433264202308211  1.0000
  O   O15       1.0  0.27242725691092323  0.79619212268139  0.43566827356984567  1.0000
  O   O16       1.0  0.7275707891938055  0.7038088465141497  0.9356703505659143  1.0000
  O   O17       1.0  0.21476376629742336  0.5482697988602894  0.9529960574014641  1.0000
  O   O18       1.0  0.7852350458531278  0.9517297441473218  0.45299607194091623  1.0000
  O   O19       1.0  0.7852386904565807  0.45172549336204076  0.047006355037360906  1.0000
  O   O20       1.0  0.21476077244752634  0.04827230376864829  0.5470057603453855  1.0000
  O   O21       1.0  0.087733949618901  0.7267491737403091  0.014344423814989704  1.0000
  O   O22       1.0  0.9122694074794707  0.7732512019458609  0.5143469854440996  1.0000
  O   O23       1.0  0.9122730024308934  0.27325127004533567  0.9856568283214885  1.0000
  O   O24       1.0  0.0877330079687155  0.2267546264188809  0.48565484683986443  1.0000
  O   O25       1.0  0.5245480365575617  0.3694275836932661  0.9236939166167561  1.0000
  O   O26       1.0  0.4754518724314493  0.13057220596426328  0.4236942898373003  1.0000
  O   O27       1.0  0.47544715726330383  0.6305692128009711  0.07630617522286802  1.0000
  O   O28       1.0  0.5245531235597269  0.8694335558262338  0.5763063821469885  1.0000
  O   O29       1.0  0.33602727391177467  0.013270061090530302  0.9532881228619489  1.0000
  O   O30       1.0  0.6639738475691813  0.48672954434703536  0.4532898624148488  1.0000
  O   O31       1.0  0.6639640490938491  0.9867268352635961  0.04671428957694702  1.0000
  O   O32       1.0  0.3360366423954346  0.5132734419242766  0.5467137103191464  1.0000
