data_image0
_chemical_formula_structural       Co2H28C48S2N4O12
_chemical_formula_sum              "Co2 H28 C48 S2 N4 O12"
_cell_length_a       7.713837902447646
_cell_length_b       12.457319204615555
_cell_length_c       12.457130218747455
_cell_angle_alpha    112.6146557478209
_cell_angle_beta     101.3678310714482
_cell_angle_gamma    101.36818293172043

_space_group_name_H-M_alt    "P 1"
_space_group_IT_number       1

loop_
  _space_group_symop_operation_xyz
  'x, y, z'

loop_
  _atom_site_type_symbol
  _atom_site_label
  _atom_site_symmetry_multiplicity
  _atom_site_fract_x
  _atom_site_fract_y
  _atom_site_fract_z
  _atom_site_occupancy
  Co  Co1       1.0  0.1281532566043282  0.2015676613147761  0.3896520095697511  1.0000
  Co  Co2       1.0  0.628164414701331  0.3896663221573677  0.20158471391332716  1.0000
  H   H1        1.0  0.13549511491254404  0.6440100773633546  0.4203166210626678  1.0000
  H   H2        1.0  0.6355068876626433  0.4203298193466907  0.6440121213074335  1.0000
  H   H3        1.0  0.381987527909402  0.8187023715677454  0.5967508438100851  1.0000
  H   H4        1.0  0.8819886776108278  0.59676048475  0.81870989366017  1.0000
  H   H5        1.0  0.10721380125036724  0.43489577052884  0.624236725050487  1.0000
  H   H6        1.0  0.6072190992643699  0.6242391086510821  0.43488757514104043  1.0000
  H   H7        1.0  0.6105967666892412  0.9676914136695558  0.7843382698568249  1.0000
  H   H8        1.0  0.11060987102374038  0.7843451197766242  0.9677042850762803  1.0000
  H   H9        1.0  0.8347752548181616  0.09852545076732612  0.991079278870316  1.0000
  H   H10       1.0  0.3347736254784692  0.9910841925605852  0.09852539095366816  1.0000
  H   H11       1.0  0.6791414239644737  0.8190758060138565  0.10620093444943297  1.0000
  H   H12       1.0  0.17913610505598143  0.10619730852219084  0.819073519343867  1.0000
  H   H13       1.0  0.4635574977988099  0.14741036325536785  0.3152645611059341  1.0000
  H   H14       1.0  0.9635428774300223  0.3152703067000715  0.14742657947406465  1.0000
  H   H15       1.0  0.5890374090007812  0.9712183686399813  0.26065023119989683  1.0000
  H   H16       1.0  0.08905482452101406  0.26066311011859966  0.9712349945052167  1.0000
  H   H17       1.0  0.178109352215877  0.8018110458663231  0.3862358125860015  1.0000
  H   H18       1.0  0.678109531312792  0.38624076573444194  0.8018066111233182  1.0000
  H   H19       1.0  0.07814833562647285  0.9866258017616544  0.44146158520894113  1.0000
  H   H20       1.0  0.578142698106987  0.44146227521150644  0.9866271515848339  1.0000
  H   H21       1.0  0.7410985659097662  0.8472795674100838  0.3211410249255168  1.0000
  H   H22       1.0  0.2410880580005212  0.32114816482343406  0.8472747631949673  1.0000
  H   H23       1.0  0.8246906996468866  0.6532348765445734  0.2633965218985637  1.0000
  H   H24       1.0  0.32467222868853446  0.26339737583001016  0.653229134474408  1.0000
  H   H25       1.0  0.2786981326356893  0.44677342650575724  0.16258902294138983  1.0000
  H   H26       1.0  0.7786851097581575  0.1625767513626784  0.44676826324116087  1.0000
  H   H27       1.0  0.16900862036344938  0.6302312579524172  0.21169956871661824  1.0000
  H   H28       1.0  0.669018242239339  0.2116970969959908  0.630237384877347  1.0000
  C   C1        1.0  0.9588900139926366  0.42678992024512036  0.40329051149385003  1.0000
  C   C2        1.0  0.458916741654548  0.4032923439852213  0.4267917865023563  1.0000
  C   C3        1.0  0.10897364131084683  0.5291808973744948  0.5106988844301341  1.0000
  C   C4        1.0  0.6089951322143891  0.5107015749011623  0.5291742884385116  1.0000
  C   C5        1.0  0.18646460921872435  0.6377146192274595  0.504893239765302  1.0000
  C   C6        1.0  0.6864738445747776  0.5049048668977248  0.6377185446884468  1.0000
  C   C7        1.0  0.3227394526713284  0.7356785594826578  0.6038355127517934  1.0000
  C   C8        1.0  0.822741606584884  0.6038415661584935  0.7356852900687869  1.0000
  C   C9        1.0  0.38083861916125267  0.7261299367643019  0.712409466352959  1.0000
  C   C10       1.0  0.8808393050660329  0.7124085337930879  0.7261336759339656  1.0000
  C   C11       1.0  0.3010477778528228  0.616958846102854  0.7172075230944445  1.0000
  C   C12       1.0  0.8010466570347816  0.7172165906226553  0.6169652587717991  1.0000
  C   C13       1.0  0.16797479786270483  0.5183150406582584  0.6189284851786853  1.0000
  C   C14       1.0  0.667988793505785  0.6189377618327612  0.5183186225603934  1.0000
  C   C15       1.0  0.517870882520576  0.8179431063241227  0.827626241091984  1.0000
  C   C16       1.0  0.01786599748214713  0.8276257073752334  0.8179416546555204  1.0000
  C   C17       1.0  0.6232774831744621  0.9349775668007612  0.8540738293010791  1.0000
  C   C18       1.0  0.12327963944569838  0.8540743602604766  0.9349784931408536  1.0000
  C   C19       1.0  0.7494488862237887  0.008083599349284  0.9696212454627825  1.0000
  C   C20       1.0  0.2494436124194266  0.9696205961013717  0.00808406386873639  1.0000
  C   C21       1.0  0.7692726698496983  0.9681140361956507  0.06095688956803257  1.0000
  C   C22       1.0  0.2692649110549823  0.0609537910492577  0.9681170534640202  1.0000
  C   C23       1.0  0.6633829235244804  0.8507906244683665  0.03569281735390478  1.0000
  C   C24       1.0  0.16337583516843776  0.035693542132406705  0.8507928177817019  1.0000
  C   C25       1.0  0.5414549528569879  0.7782328938841163  0.9196042744997825  1.0000
  C   C26       1.0  0.04144512613659403  0.9196048210791331  0.778233077698772  1.0000
  C   C27       1.0  0.8982877427333379  0.051185532094656615  0.1855359415340274  1.0000
  C   C28       1.0  0.3982875871916037  0.18553286647249934  0.05119079540585863  1.0000
  C   C29       1.0  0.4058559609423682  0.069162525266357  0.330810102480406  1.0000
  C   C30       1.0  0.9058526898595006  0.3308157442800805  0.06917332108224629  1.0000
  C   C31       1.0  0.4725628104643961  0.9689354265571667  0.2980451487237732  1.0000
  C   C32       1.0  0.9725678938723803  0.2980522689788287  0.9689454881547803  1.0000
  C   C33       1.0  0.3885235513262586  0.8670863062540377  0.3129441468588183  1.0000
  C   C34       1.0  0.8885224715780637  0.3129481452342375  0.8670923654105777  1.0000
  C   C35       1.0  0.2445883889013914  0.8745934658892197  0.36651544353234317  1.0000
  C   C36       1.0  0.7445858866749618  0.366517457313428  0.87459655220934  1.0000
  C   C37       1.0  0.18826523137052215  0.9785836019184728  0.3988895378963378  1.0000
  C   C38       1.0  0.6882570337982018  0.3988885236310936  0.9785861008381431  1.0000
  C   C39       1.0  0.4468857952940014  0.7560572467270391  0.27433465032875404  1.0000
  C   C40       1.0  0.9468813528079351  0.2743348002765202  0.7560615572027487  1.0000
  C   C41       1.0  0.6331504153904747  0.7604321613244522  0.28457694519296  1.0000
  C   C42       1.0  0.13314248959009942  0.28457600364369995  0.7604260899824808  1.0000
  C   C43       1.0  0.6807230185097595  0.6527720399148367  0.2525968802589277  1.0000
  C   C44       1.0  0.180712094599123  0.2526002429518286  0.6527650422947744  1.0000
  C   C45       1.0  0.3749949030380506  0.5373952252262201  0.19734032164871715  1.0000
  C   C46       1.0  0.8749842831990617  0.1973377650048249  0.537392026137951  1.0000
  C   C47       1.0  0.3165813877054689  0.6405033243956029  0.2268770466603415  1.0000
  C   C48       1.0  0.8165828965299866  0.22687488230034353  0.6405044869500428  1.0000
  S   S1        1.0  0.39454462597103673  0.626335494787938  0.864332628924771  1.0000
  S   S2        1.0  0.8945474786238137  0.864330718712516  0.6263315431227312  1.0000
  N   N1        1.0  0.2640676568437712  0.0738515519883478  0.37912588286064863  1.0000
  N   N2        1.0  0.7640673301881548  0.379130488711418  0.07386065304699943  1.0000
  N   N3        1.0  0.5549832960049486  0.5427506388342779  0.21193059448313545  1.0000
  N   N4        1.0  0.05497442273269121  0.21193030523222944  0.5427402486061936  1.0000
  O   O1        1.0  0.9373338636501174  0.3177279693357988  0.384781883934096  1.0000
  O   O2        1.0  0.4373453612784105  0.3847870149301544  0.3177178152853557  1.0000
  O   O3        1.0  0.8575025393140618  0.46181016785212853  0.3361302128952062  1.0000
  O   O4        1.0  0.3575049094175712  0.336119593149327  0.46180096560525646  1.0000
  O   O5        1.0  0.03143244889198371  0.14079382655279465  0.20142122902416304  1.0000
  O   O6        1.0  0.5314241620973732  0.20140352079560844  0.14078580822560843  1.0000
  O   O7        1.0  0.8746532534429505  0.03270156128293421  0.2762144356180585  1.0000
  O   O8        1.0  0.374642737660217  0.27620082638036797  0.03270728056482147  1.0000
  O   O9        1.0  0.25384332937832704  0.6216529198627896  0.9262678630149495  1.0000
  O   O10       1.0  0.7538324845553319  0.9262675579234242  0.6216474659703836  1.0000
  O   O11       1.0  0.5037071146617506  0.5426672546295919  0.8592479095711523  1.0000
  O   O12       1.0  0.003694980263148378  0.8592447233019487  0.5426688319988529  1.0000
