data_image0
_chemical_formula_structural       FeH8C12N10
_chemical_formula_sum              "Fe1 H8 C12 N10"
_cell_length_a       6.204262512983272
_cell_length_b       7.151355659369364
_cell_length_c       9.330938448556902
_cell_angle_alpha    112.64855781848145
_cell_angle_beta     107.3551454271587
_cell_angle_gamma    90.00911225856285

_space_group_name_H-M_alt    "P 1"
_space_group_IT_number       1

loop_
  _space_group_symop_operation_xyz
  'x, y, z'

loop_
  _atom_site_type_symbol
  _atom_site_label
  _atom_site_symmetry_multiplicity
  _atom_site_fract_x
  _atom_site_fract_y
  _atom_site_fract_z
  _atom_site_occupancy
  Fe  Fe1       1.0  0.49308483236267625  0.011444559795968702  0.023433679563836993  1.0000
  H   H1        1.0  0.2658404066602174  0.6808122881314914  0.36072962131927255  1.0000
  H   H2        1.0  0.7425616822217691  0.3117484449347928  0.6231823006813073  1.0000
  H   H3        1.0  0.6625973113557038  0.6704067481581788  0.33925924203025193  1.0000
  H   H4        1.0  0.34978336464049425  0.32753046695261645  0.6546582842038404  1.0000
  H   H5        1.0  0.9975549069217352  0.8037790721321941  0.606833643787283  1.0000
  H   H6        1.0  0.008124377200282105  0.19483068936580147  0.3893664253306071  1.0000
  H   H7        1.0  0.8969007610975198  0.9337247455441401  0.8682962413753328  1.0000
  H   H8        1.0  0.0939024242848063  0.0630408588032125  0.1259131725184517  1.0000
  C   C1        1.0  0.41748162519408544  0.7351351563086441  0.46956959275701854  1.0000
  C   C2        1.0  0.5873136893140228  0.2588087437912493  0.5170243436219407  1.0000
  C   C3        1.0  0.637325332668354  0.7297224309092131  0.4584352661246455  1.0000
  C   C4        1.0  0.37098257228409887  0.2673747637257692  0.534085981562356  1.0000
  C   C5        1.0  0.81952354313232  0.8019375922121769  0.6032213832408644  1.0000
  C   C6        1.0  0.18519140119838803  0.19570449205873083  0.39088320111903835  1.0000
  C   C7        1.0  0.7657762583091028  0.8742546418282162  0.7487257135065163  1.0000
  C   C8        1.0  0.2296747631573623  0.12155085263609072  0.24279391310229667  1.0000
  C   C9        1.0  0.19023499954273151  0.6036272608981579  0.8953183985960749  1.0000
  C   C10       1.0  0.8071771304787417  0.7152895455837722  0.11686783584872258  1.0000
  C   C11       1.0  0.8071812367054179  0.401550956102007  0.1169575057001708  1.0000
  C   C12       1.0  0.1902536585161059  0.2904338256780861  0.8954114720963415  1.0000
  N   N1        1.0  0.5511333839412984  0.8750701771008095  0.7506397572696812  1.0000
  N   N2        1.0  0.4444034880769294  0.11748695743497001  0.23492599505638617  1.0000
  N   N3        1.0  0.3755997111629411  0.8063975683861457  0.612860328037712  1.0000
  N   N4        1.0  0.6238220920552493  0.1861377909322997  0.3721515564852282  1.0000
  N   N5        1.0  0.27202184732635  0.7733270049381318  0.9413177651246513  1.0000
  N   N6        1.0  0.7170327905638201  0.8462212498226335  0.08609532525306918  1.0000
  N   N7        1.0  0.7170475392699985  0.2397052096431125  0.0862656104238866  1.0000
  N   N8        1.0  0.27203222858504716  0.16707551440365617  0.9415525604784845  1.0000
  N   N9        1.0  0.09052078210728347  0.41687132055715637  0.8354152446746566  1.0000
  N   N10       1.0  0.9179163706832371  0.5789907734445094  0.15781068592595907  1.0000
