data_image0
_chemical_formula_structural       Cd4Cu2H24C20N8Cl8O14
_chemical_formula_sum              "Cd4 Cu2 H24 C20 N8 Cl8 O14"
_cell_length_a       6.507565320525054
_cell_length_b       9.818332464526728
_cell_length_c       17.786921055125056
_cell_angle_alpha    75.00379827023963
_cell_angle_beta     90.34849513736624
_cell_angle_gamma    74.14365006764159

_space_group_name_H-M_alt    "P 1"
_space_group_IT_number       1

loop_
  _space_group_symop_operation_xyz
  'x, y, z'

loop_
  _atom_site_type_symbol
  _atom_site_label
  _atom_site_symmetry_multiplicity
  _atom_site_fract_x
  _atom_site_fract_y
  _atom_site_fract_z
  _atom_site_occupancy
  Cd  Cd1       1.0  0.78382854464828  0.40949873256883496  0.9905100501323648  1.0000
  Cd  Cd2       1.0  0.2161831624020252  0.5904879402891722  0.009493682529182527  1.0000
  Cd  Cd3       1.0  0.21009041135310005  0.5905484162809671  0.50306000482896  1.0000
  Cd  Cd4       1.0  0.7899205960828369  0.40946382332050724  0.49693325486080664  1.0000
  Cu  Cu1       1.0  0.5215723391595832  0.9889614097563206  0.7503873355876325  1.0000
  Cu  Cu2       1.0  0.4784279701372539  0.011036917773779475  0.24961140669006462  1.0000
  H   H1        1.0  0.46148805356805417  0.21856499004352495  0.9680262108437178  1.0000
  H   H2        1.0  0.5385321507566375  0.7814236932895181  0.0319783479859908  1.0000
  H   H3        1.0  0.875945572828016  0.3636363594568051  0.8105229785011904  1.0000
  H   H4        1.0  0.12403739525748858  0.6363809690128617  0.1894718018341663  1.0000
  H   H5        1.0  0.787690482951163  0.21774954820742196  0.7209981432559902  1.0000
  H   H6        1.0  0.21227868195406796  0.7822677398185147  0.27899680689343154  1.0000
  H   H7        1.0  0.5437892241535992  0.7799206158950296  0.5256463365362765  1.0000
  H   H8        1.0  0.4561942336230516  0.22009212161425742  0.47435002958674505  1.0000
  H   H9        1.0  0.10692884365693095  0.6553704616968826  0.6781727554013417  1.0000
  H   H10       1.0  0.8930757492642982  0.34462537510688646  0.32182788115778754  1.0000
  H   H11       1.0  0.19643079470396438  0.8007848184965807  0.7670615509905974  1.0000
  H   H12       1.0  0.8035666062017768  0.1992139756010402  0.23294057010776478  1.0000
  H   H13       1.0  0.8109239561575027  0.7182884246100864  0.8372080565501395  1.0000
  H   H14       1.0  0.1890522449903926  0.28171349281814867  0.16279457034335826  1.0000
  H   H15       1.0  0.8789554819851659  0.8352681045896444  0.866859805252169  1.0000
  H   H16       1.0  0.12105542853087314  0.16472346894950352  0.13314061878444516  1.0000
  H   H17       1.0  0.10365411376999836  0.12844614540590268  0.006459259187970205  1.0000
  H   H18       1.0  0.8963565598773328  0.8715387459263079  0.9935424044060853  1.0000
  H   H19       1.0  0.9159846408860162  0.08878636541725628  0.05537786934915092  1.0000
  H   H20       1.0  0.0840319523534492  0.9111959364421193  0.9446262439372011  1.0000
  H   H21       1.0  0.8902724449666692  0.8620858023513731  0.4855839357596141  1.0000
  H   H22       1.0  0.10972847801640741  0.13791190573720505  0.5144182521926057  1.0000
  H   H23       1.0  0.07470463380666817  0.8995148531838311  0.43785633967886656  1.0000
  H   H24       1.0  0.925288537495362  0.10049739508666986  0.5621427846302184  1.0000
  C   C1        1.0  0.4825046933869217  0.1401111271072252  0.8638960574262601  1.0000
  C   C2        1.0  0.5174973785533153  0.8598806885439385  0.13610896946212142  1.0000
  C   C3        1.0  0.5333441578327938  0.21807386721143712  0.9129211163682744  1.0000
  C   C4        1.0  0.46667099072786294  0.7819158976368995  0.0870833944758118  1.0000
  C   C5        1.0  0.7635641522291152  0.29811195799574336  0.8256310710844733  1.0000
  C   C6        1.0  0.23642820350517021  0.7018907315454965  0.1743673283048822  1.0000
  C   C7        1.0  0.7166880361599508  0.21845118325902024  0.7762888402882171  1.0000
  C   C8        1.0  0.2832798128938095  0.7815583230697027  0.22370747287720158  1.0000
  C   C9        1.0  0.3234131406120468  0.0520376184533545  0.878486288228061  1.0000
  C   C10       1.0  0.6765753973232549  0.9479677276484605  0.12151528080132587  1.0000
  C   C11       1.0  0.5185876376955322  0.8645569624837534  0.6277965125246682  1.0000
  C   C12       1.0  0.4814038086308727  0.13544791705054135  0.37220167768404633  1.0000
  C   C13       1.0  0.46710130331049277  0.785355572951836  0.5794846642111653  1.0000
  C   C14       1.0  0.5328962883552747  0.21465213848578896  0.4205097768012467  1.0000
  C   C15       1.0  0.22550245623740056  0.7162477167522493  0.6643751320237998  1.0000
  C   C16       1.0  0.7745121676449003  0.28375013502031265  0.33562631183526304  1.0000
  C   C17       1.0  0.2745694652040598  0.7953889521864281  0.7134844395613555  1.0000
  C   C18       1.0  0.7254307418117348  0.20460947858393297  0.2865137284372495  1.0000
  C   C19       1.0  0.6802329055030116  0.9501200912636202  0.6126418195761759  1.0000
  C   C20       1.0  0.3197588020867315  0.049885160585432686  0.3873602859958397  1.0000
  N   N1        1.0  0.5786296419272928  0.13904929452586853  0.7969926169622144  1.0000
  N   N2        1.0  0.4213672692873017  0.8609540905321251  0.20300791834847598  1.0000
  N   N3        1.0  0.6758355902528095  0.2951544959739251  0.8938463978239927  1.0000
  N   N4        1.0  0.3241509158637471  0.7048437911124521  0.10615251426777662  1.0000
  N   N5        1.0  0.4206516381379333  0.8687887842507318  0.6940063846034692  1.0000
  N   N6        1.0  0.5793410700192467  0.1312129135342345  0.3059915450971077  1.0000
  N   N7        1.0  0.319648057767175  0.7125670523693156  0.5978869449076074  1.0000
  N   N8        1.0  0.6803395140589928  0.287439904930295  0.4021116481360283  1.0000
  Cl  Cl1       1.0  0.9221595399014504  0.5257987384614323  0.09577429706621392  1.0000
  Cl  Cl2       1.0  0.07784466829024694  0.47419120141117327  0.9042291972973048  1.0000
  Cl  Cl3       1.0  0.500433034124697  0.34295037757949115  0.08138702355714865  1.0000
  Cl  Cl4       1.0  0.49957521814211253  0.6570407740111432  0.9186157353322745  1.0000
  Cl  Cl5       1.0  0.07896740789819041  0.4724445278504843  0.4011548102583974  1.0000
  Cl  Cl6       1.0  0.9210403948961031  0.5275713019675974  0.5988364316913819  1.0000
  Cl  Cl7       1.0  0.5116929522850314  0.6530908208199405  0.4167621489035227  1.0000
  Cl  Cl8       1.0  0.48832117922555807  0.34692200656429123  0.5832338398549057  1.0000
  O   O1        1.0  0.2968403417081975  0.9912217238882444  0.8252317401325802  1.0000
  O   O2        1.0  0.703168911126056  0.008765873638296272  0.17476684288541128  1.0000
  O   O3        1.0  0.225337991303114  0.04084263720813645  0.9397854291742365  1.0000
  O   O4        1.0  0.774671942511212  0.959147733600474  0.060215692600017724  1.0000
  O   O5        1.0  0.7093251380448178  0.012068797367184863  0.6655635093616753  1.0000
  O   O6        1.0  0.2906686035153428  0.9879346819435635  0.33443648940638593  1.0000
  O   O7        1.0  0.7781375453427231  0.9600339955419342  0.5519046733878172  1.0000
  O   O8        1.0  0.221862080822369  0.03997039025983176  0.44809629387518873  1.0000
  O   O9        1.0  0.8224584152616646  0.8186288403782309  0.8190014279874874  1.0000
  O   O10       1.0  0.1775357137086004  0.18137015121239125  0.18099958228916085  1.0000
  O   O11       1.0  0.0062463060960880135  0.15854708462993017  0.045781997466832515  1.0000
  O   O12       1.0  0.993778036143844  0.8414310616988202  0.9542213101496846  1.0000
  O   O13       1.0  0.9849712063315936  0.8311034182730308  0.44608166583526554  1.0000
  O   O14       1.0  0.01502541975393261  0.1689043512648425  0.5539184322459363  1.0000
