data_image0
_chemical_formula_structural       V4H20C24N4Cl12
_chemical_formula_sum              "V4 H20 C24 N4 Cl12"
_cell_length_a       9.236378167191006
_cell_length_b       10.365236894984275
_cell_length_c       10.698404535987125
_cell_angle_alpha    96.24164500308055
_cell_angle_beta     114.67999663099955
_cell_angle_gamma    106.31728804503032

_space_group_name_H-M_alt    "P 1"
_space_group_IT_number       1

loop_
  _space_group_symop_operation_xyz
  'x, y, z'

loop_
  _atom_site_type_symbol
  _atom_site_label
  _atom_site_symmetry_multiplicity
  _atom_site_fract_x
  _atom_site_fract_y
  _atom_site_fract_z
  _atom_site_occupancy
  V   V1        1.0  0.5171129229899949  0.6329122529829976  0.8976972673838549  1.0000
  V   V2        1.0  0.48288635704442834  0.36708474653070067  0.10230202855065326  1.0000
  V   V3        1.0  0.9950191899187003  0.8637955120295046  0.10027559236876717  1.0000
  V   V4        1.0  0.004978866355870123  0.13620148289412276  0.8997260580738812  1.0000
  H   H1        1.0  0.25045023780588604  0.6967829095964793  0.5669701918455633  1.0000
  H   H2        1.0  0.7495464195553865  0.3032161950173134  0.43302836427810837  1.0000
  H   H3        1.0  0.9349536789242309  0.35372416651197375  0.19042436302715526  1.0000
  H   H4        1.0  0.06504344904205796  0.6462759788896194  0.8095744761574439  1.0000
  H   H5        1.0  0.04136321513581015  0.6054244846545134  0.307223828279355  1.0000
  H   H6        1.0  0.9586339366963373  0.3945756690347936  0.6927731510258824  1.0000
  H   H7        1.0  0.03539485711932141  0.19218391401122406  0.33014725100577647  1.0000
  H   H8        1.0  0.9646039532788965  0.8078172726243695  0.6698504466713049  1.0000
  H   H9        1.0  0.2432601752908994  0.2820246591202888  0.5898825120222497  1.0000
  H   H10       1.0  0.7567388937912727  0.7179744422420672  0.41011412490418314  1.0000
  H   H11       1.0  0.08450274204670913  0.8601503304799397  0.4617161422661626  1.0000
  H   H12       1.0  0.9154970085927233  0.1398477098215523  0.5382834367292801  1.0000
  H   H13       1.0  0.27990576256679156  0.9570105598388217  0.7232761005863683  1.0000
  H   H14       1.0  0.7200994582417195  0.04299162837705239  0.2767240567061648  1.0000
  H   H15       1.0  0.5495978242945725  0.15907603545024077  0.81105074681917  1.0000
  H   H16       1.0  0.45040903121415704  0.8409271774242058  0.18895198872456118  1.0000
  H   H17       1.0  0.6246393682762984  0.2679861090211518  0.6400664880069301  1.0000
  H   H18       1.0  0.3753658405992867  0.732016075050865  0.3599345992252837  1.0000
  H   H19       1.0  0.43084284036070397  0.17101937206475534  0.37789976768697653  1.0000
  H   H20       1.0  0.5691559213369859  0.828976570085715  0.6221029649453202  1.0000
  C   C1        1.0  0.2589505021712455  0.49472593918298463  0.5930561308557359  1.0000
  C   C2        1.0  0.7410502254770038  0.5052741951256652  0.40694122444253383  1.0000
  C   C3        1.0  0.2027522379529288  0.5869834158312133  0.5131434016030385  1.0000
  C   C4        1.0  0.7972444313412694  0.413015692926443  0.4868542245809451  1.0000
  C   C5        1.0  0.08612315603587457  0.5352402774821599  0.36937865167777784  1.0000
  C   C6        1.0  0.9138756185635515  0.4647608967218702  0.630621835818346  1.0000
  C   C7        1.0  0.02532787941385097  0.3932166602237289  0.30362342853077  1.0000
  C   C8        1.0  0.9746699778414082  0.6067824406924204  0.6963746329641226  1.0000
  C   C9        1.0  0.08144349615876222  0.30223536416571056  0.38271750086958894  1.0000
  C   C10       1.0  0.9185553261723811  0.6977658266137396  0.6172792668678114  1.0000
  C   C11       1.0  0.1977949421428633  0.3513082906089481  0.5269498770265812  1.0000
  C   C12       1.0  0.8022057855053859  0.6486918436997018  0.47304747827168825  1.0000
  C   C13       1.0  0.24761843675187836  0.009379250407604905  0.40488133333336424  1.0000
  C   C14       1.0  0.7523789260325131  0.99061880143303  0.5951183049799554  1.0000
  C   C15       1.0  0.20324029636699958  0.9490236638623916  0.5024434096036573  1.0000
  C   C16       1.0  0.7967608422216089  0.05097749051476801  0.49755887845395114  1.0000
  C   C17       1.0  0.3123875673754101  0.0036227763145432997  0.6475525167808416  1.0000
  C   C18       1.0  0.6876176176343166  0.9963793994697531  0.35245043033073403  1.0000
  C   C19       1.0  0.4644627502428804  0.11757439548520673  0.697033327458705  1.0000
  C   C20       1.0  0.5355398120937025  0.8824298853991905  0.30296887984203386  1.0000
  C   C21       1.0  0.5067123318662112  0.17850388523134345  0.6005341376558775  1.0000
  C   C22       1.0  0.49329402917163645  0.8214982785675888  0.39947017470628066  1.0000
  C   C23       1.0  0.3999951015513474  0.12548135977009883  0.45470724519751843  1.0000
  C   C24       1.0  0.6000062599224378  0.8745176969022523  0.5452967719284844  1.0000
  N   N1        1.0  0.37163370489939507  0.5466645845539518  0.7341599797679947  1.0000
  N   N2        1.0  0.6283658109219344  0.4533355493084913  0.2658388000987344  1.0000
  N   N3        1.0  0.14140386853014064  0.9525213275604049  0.2629866660875921  1.0000
  N   N4        1.0  0.8585932355702824  0.047478809553474825  0.7370140329763687  1.0000
  Cl  Cl1       1.0  0.44572671948911585  0.8180732531756123  0.9140173661682099  1.0000
  Cl  Cl2       1.0  0.5542723376601302  0.18192584404289397  0.08598020069790382  1.0000
  Cl  Cl3       1.0  0.3729837235079217  0.5484855952137482  0.03165871544368312  1.0000
  Cl  Cl4       1.0  0.6270141576131962  0.4515135139901148  0.9683374861718408  1.0000
  Cl  Cl5       1.0  0.7285189519838297  0.7132141068788301  0.8384544727182189  1.0000
  Cl  Cl6       1.0  0.271481739865628  0.28678601499824913  0.16154567239909312  1.0000
  Cl  Cl7       1.0  0.7875917738331283  0.7758591117257155  0.1625658805899236  1.0000
  Cl  Cl8       1.0  0.212403435914311  0.22413685809312517  0.8374346161699793  1.0000
  Cl  Cl9       1.0  0.07608530176990064  0.6846993499171108  0.08318145993802524  1.0000
  Cl  Cl10      1.0  0.9239160955026691  0.31529971918681104  0.916819767368935  1.0000
  Cl  Cl11      1.0  0.8729925015302628  0.04258561839225192  0.03705913512692411  1.0000
  Cl  Cl12      1.0  0.12700459063723468  0.9574145145777637  0.9629424938767246  1.0000
