data_image0
_chemical_formula_structural       K2H16C24N10O8
_chemical_formula_sum              "K2 H16 C24 N10 O8"
_cell_length_a       7.600553640929364
_cell_length_b       9.30812271852143
_cell_length_c       9.784547671914046
_cell_angle_alpha    82.04053024421245
_cell_angle_beta     81.21386341122556
_cell_angle_gamma    81.49151237313072

_space_group_name_H-M_alt    "P 1"
_space_group_IT_number       1

loop_
  _space_group_symop_operation_xyz
  'x, y, z'

loop_
  _atom_site_type_symbol
  _atom_site_label
  _atom_site_symmetry_multiplicity
  _atom_site_fract_x
  _atom_site_fract_y
  _atom_site_fract_z
  _atom_site_occupancy
  K   K1        1.0  0.2701161968716619  0.5763465134730694  0.9636645731909327  1.0000
  K   K2        1.0  0.729855308641568  0.4236312424045534  0.03632904157258571  1.0000
  H   H1        1.0  0.1834394905204704  0.07790891044600558  0.09993072447669961  1.0000
  H   H2        1.0  0.8165682703379459  0.9220859201192151  0.9000725811674214  1.0000
  H   H3        1.0  0.11332205535626372  0.9039572560597688  0.9519801680917439  1.0000
  H   H4        1.0  0.8866860207576721  0.09603540315661258  0.048022333869042186  1.0000
  H   H5        1.0  0.49794345789092626  0.06368334178264938  0.6150000776041082  1.0000
  H   H6        1.0  0.5020475206386266  0.9363247924179274  0.38499663005320883  1.0000
  H   H7        1.0  0.5754249178506895  0.2335222677596319  0.7667125635868288  1.0000
  H   H8        1.0  0.42457040881560476  0.7664836452575441  0.2332848757746504  1.0000
  H   H9        1.0  0.39922099945739825  0.542220629205225  0.38977853736061263  1.0000
  H   H10       1.0  0.6007860212333681  0.4577786423329895  0.6102202447097227  1.0000
  H   H11       1.0  0.23433299291961154  0.5494552299512205  0.6295611032129145  1.0000
  H   H12       1.0  0.7656792442723417  0.4505450635451778  0.3704399575785331  1.0000
  H   H13       1.0  0.994503219943354  0.1683699815806036  0.5860133287215561  1.0000
  H   H14       1.0  0.0054950108125097815  0.8316347606715622  0.4139879681640651  1.0000
  H   H15       1.0  0.160035645341587  0.16100800128878487  0.3470969329204507  1.0000
  H   H16       1.0  0.8399591830441011  0.8389924481002992  0.6529012212109748  1.0000
  C   C1        1.0  0.3818910001145142  0.16961364994271116  0.9422555574970061  1.0000
  C   C2        1.0  0.6181070293401589  0.830383473711755  0.057744628651811125  1.0000
  C   C3        1.0  0.2515639800229437  0.0741550567634235  0.994172833518185  1.0000
  C   C4        1.0  0.7484352513277911  0.9258431223045777  0.005829117787641258  1.0000
  C   C5        1.0  0.2127263495216666  0.9774249383280772  0.9119007164233112  1.0000
  C   C6        1.0  0.7872726785110514  0.022574367362402398  0.0880990821656553  1.0000
  C   C7        1.0  0.3003341596051143  0.9753357654182365  0.7749496383207699  1.0000
  C   C8        1.0  0.6996628327024864  0.024667954178831098  0.2250478497610047  1.0000
  C   C9        1.0  0.4301094472870303  0.06816732583152428  0.7207592914011158  1.0000
  C   C10       1.0  0.5698870264470272  0.9318396917368544  0.2792368476471411  1.0000
  C   C11       1.0  0.47102853630583047  0.16343088014288296  0.8047598280810319  1.0000
  C   C12       1.0  0.5289671421681917  0.8365728287670107  0.19523885124392854  1.0000
  C   C13       1.0  0.2925077974738386  0.3506745668189237  0.3522579657903933  1.0000
  C   C14       1.0  0.7074908970272559  0.649326926599606  0.6477416146585071  1.0000
  C   C15       1.0  0.31348765243731685  0.4589394239842403  0.4347547765957671  1.0000
  C   C16       1.0  0.6865193682534495  0.5410598475539814  0.5652440054745682  1.0000
  C   C17       1.0  0.22325555688714613  0.46268107091220384  0.5683889601885213  1.0000
  C   C18       1.0  0.7767541828512775  0.5373181401042542  0.4316125485124971  1.0000
  C   C19       1.0  0.10930251580356297  0.356425324021309  0.6221129244497021  1.0000
  C   C20       1.0  0.8907029123503065  0.6435760754201068  0.3778898961939845  1.0000
  C   C21       1.0  0.08607852154981542  0.24747845321851253  0.5424975528081148  1.0000
  C   C22       1.0  0.9139256681557908  0.7525219235678191  0.4575014590317323  1.0000
  C   C23       1.0  0.17774738884742897  0.24374452258756912  0.4100722525762849  1.0000
  C   C24       1.0  0.8222509538459447  0.7562591749382361  0.5899260879091344  1.0000
  N   N1        1.0  0.2576556185171057  0.8734631364857175  0.691397166373534  1.0000
  N   N2        1.0  0.7423487562304132  0.12653613005736014  0.3086029763597579  1.0000
  N   N3        1.0  0.013360244373067999  0.359121841969717  0.7587525429210089  1.0000
  N   N4        1.0  0.9866424281809502  0.6408796507519054  0.24124550744515721  1.0000
  N   N5        1.0  0.426779724912663  0.2715233077968904  0.0180912891787912  1.0000
  N   N6        1.0  0.5732168056665189  0.728474915413649  0.9819089573197671  1.0000
  N   N7        1.0  0.3468553517727245  0.26034965183198006  0.14691022454360336  1.0000
  N   N8        1.0  0.6531438978541076  0.7396485108567954  0.8530927485856381  1.0000
  N   N9        1.0  0.38205505752512886  0.36047408666652797  0.21712502015218862  1.0000
  N   N10       1.0  0.6179445073572297  0.6395219046734224  0.7828771492937109  1.0000
  O   O1        1.0  0.16308929500001318  0.7760612483384077  0.7499418557397705  1.0000
  O   O2        1.0  0.8369212602913619  0.22393250973713916  0.2500591764880156  1.0000
  O   O3        1.0  0.31366127825138784  0.883599551139703  0.5642033172894684  1.0000
  O   O4        1.0  0.6863429480064198  0.11640079288817869  0.435797738197195  1.0000
  O   O5        1.0  0.04502345322703148  0.44813935574467917  0.8353548061508107  1.0000
  O   O6        1.0  0.9549712449450425  0.5518621547499833  0.1646452825574087  1.0000
  O   O7        1.0  0.8975839289993316  0.2737733571530399  0.8006784175033559  1.0000
  O   O8        1.0  0.10241870700248512  0.7262281683270327  0.19931758921598697  1.0000
