data_image0
_chemical_formula_structural       Cu2P2H44C40O8
_chemical_formula_sum              "Cu2 P2 H44 C40 O8"
_cell_length_a       8.46125383441435
_cell_length_b       10.16760883584676
_cell_length_c       11.15171286583777
_cell_angle_alpha    84.30880671086103
_cell_angle_beta     86.49678177741986
_cell_angle_gamma    81.38525510320915

_space_group_name_H-M_alt    "P 1"
_space_group_IT_number       1

loop_
  _space_group_symop_operation_xyz
  'x, y, z'

loop_
  _atom_site_type_symbol
  _atom_site_label
  _atom_site_symmetry_multiplicity
  _atom_site_fract_x
  _atom_site_fract_y
  _atom_site_fract_z
  _atom_site_occupancy
  Cu  Cu1       1.0  0.5000006118282627  0.5000012633999306  0.49999945402486634  1.0000
  Cu  Cu2       1.0  2.0727542704095318e-06  0.4999960354144405  0.5000002994995966  1.0000
  P   P1        1.0  0.764852231820072  0.3790384091296063  0.6759426700074584  1.0000
  P   P2        1.0  0.23514966906252252  0.6209601222548358  0.32405746523173207  1.0000
  H   H1        1.0  0.2305180355388785  0.6228984733014258  0.8557506293596827  1.0000
  H   H2        1.0  0.7694808187165735  0.37710406088053366  0.14424839100494316  1.0000
  H   H3        1.0  0.42036590395331785  0.187603190732375  0.361105012872862  1.0000
  H   H4        1.0  0.5796327783819706  0.8123933537692521  0.6388945595148879  1.0000
  H   H5        1.0  0.8020731772345329  0.25748124520103494  0.4739665769986912  1.0000
  H   H6        1.0  0.19792719823063015  0.7425122990893486  0.5260340837767925  1.0000
  H   H7        1.0  0.6706039676714823  0.2962724989715113  0.3534589022336902  1.0000
  H   H8        1.0  0.3293965817530022  0.7037270351647323  0.6465421031310182  1.0000
  H   H9        1.0  0.76192180790666  0.1301126864399365  0.3890254492298266  1.0000
  H   H10       1.0  0.23807551685305134  0.8698848603169441  0.6109723034464023  1.0000
  H   H11       1.0  0.7784242882233557  0.8781819738284471  0.875774899445197  1.0000
  H   H12       1.0  0.22157575073262592  0.12182055666246332  0.12422406476197516  1.0000
  H   H13       1.0  0.19729316116373502  0.10311489172740815  0.7105108923621444  1.0000
  H   H14       1.0  0.8027046792270698  0.8968866474158902  0.28948916341655456  1.0000
  H   H15       1.0  0.1187416747736876  0.8823761195108943  0.981501665249176  1.0000
  H   H16       1.0  0.8812597258361948  0.1176254090557904  0.018500911894214808  1.0000
  H   H17       1.0  0.02987949035406959  0.9750082862383993  0.8531179470563824  1.0000
  H   H18       1.0  0.9701205547193864  0.02499424474905961  0.14688370698782893  1.0000
  H   H19       1.0  0.2183282899834325  0.8701595111105362  0.8383478489334305  1.0000
  H   H20       1.0  0.7816731085872914  0.12984201729062766  0.16165383159761856  1.0000
  H   H21       1.0  0.5383205542549591  0.6420789894511644  0.7945374786725662  1.0000
  H   H22       1.0  0.46168235641396654  0.3579205366409113  0.2054598279278536  1.0000
  H   H23       1.0  0.5352090410363105  0.7954863655427148  0.860098728951648  1.0000
  H   H24       1.0  0.46479403842933914  0.20451216165412228  0.13989866029304918  1.0000
  H   H25       1.0  0.5380687355239858  0.6429346949116167  0.9523948620817532  1.0000
  H   H26       1.0  0.4619316389863002  0.35706583762330985  0.047603370801638754  1.0000
  H   H27       1.0  0.0539273786182761  0.3104978992351874  0.8408965868141676  1.0000
  H   H28       1.0  0.9460772283039632  0.6895056152212221  0.15910117350659186  1.0000
  H   H29       1.0  0.216906778807747  0.37530520401544015  0.8937338296599361  1.0000
  H   H30       1.0  0.7830954627917424  0.6246983181541027  0.10626583620041424  1.0000
  H   H31       1.0  0.18469631243895887  0.3894834301620307  0.7370090593117806  1.0000
  H   H32       1.0  0.8153067783067627  0.6105220862724468  0.26299128171490327  1.0000
  H   H33       1.0  0.5224301425998734  0.02693734625509591  0.8773780702435016  1.0000
  H   H34       1.0  0.4775677018692477  0.9730641932192302  0.12262377875989465  1.0000
  H   H35       1.0  0.3239367834512734  0.11322237583520693  0.8869558862505397  1.0000
  H   H36       1.0  0.6760605433475961  0.8867751710871944  0.11304276303803104  1.0000
  H   H37       1.0  0.4913534462374684  0.20115376497219029  0.8838345705385249  1.0000
  H   H38       1.0  0.5086408461692072  0.7988477857408187  0.11616834354956038  1.0000
  H   H39       1.0  0.09203891950301818  0.22196653517242748  0.4198163869621111  1.0000
  H   H40       1.0  0.9079619613974473  0.7780310006768048  0.5801820938541125  1.0000
  H   H41       1.0  0.05022773403717912  0.09859545044496801  0.5368234868985267  1.0000
  H   H42       1.0  0.9497717933660321  0.901403087990552  0.46317496743087355  1.0000
  H   H43       1.0  0.16655573881163832  0.05297772924279799  0.40411706609913256  1.0000
  H   H44       1.0  0.833448533511181  0.947020794925045  0.595883853437506  1.0000
  C   C1        1.0  0.5656649383474885  0.1943958590005579  0.5108523519288112  1.0000
  C   C2        1.0  0.4343345910948815  0.8056026796004829  0.4891469990129307  1.0000
  C   C3        1.0  0.7647602963111879  0.6710292375134089  0.8601933189853097  1.0000
  C   C4        1.0  0.2352409314236468  0.3289732896174797  0.13980738228910639  1.0000
  C   C5        1.0  0.8558868131684534  0.5444693542444626  0.8453555741810913  1.0000
  C   C6        1.0  0.14411339866257578  0.455532177682244  0.15464526589505562  1.0000
  C   C7        1.0  0.10036632299870972  0.6374793000127781  0.852709622433039  1.0000
  C   C8        1.0  0.8996305055666056  0.3625212442573727  0.14729236537208118  1.0000
  C   C9        1.0  0.0143226185569389  0.7639014458351028  0.866793811289696  1.0000
  C   C10       1.0  0.9856762418159873  0.23610108884341238  0.1332078989119693  1.0000
  C   C11       1.0  0.024350413951900376  0.5271276253359078  0.8395900406779471  1.0000
  C   C12       1.0  0.9756487819753232  0.47287291138662363  0.1604109381999308  1.0000
  C   C13       1.0  0.5733451500115405  0.17461832723990514  0.6379882379257891  1.0000
  C   C14       1.0  0.4266530259335611  0.8253812139474166  0.36201108652912223  1.0000
  C   C15       1.0  0.42545400595611227  0.17603485925203446  0.45907103570756636  1.0000
  C   C16       1.0  0.5745456922829888  0.8239626804537679  0.5409283978784527  1.0000
  C   C17       1.0  0.7689097089331085  0.43047179349988346  0.8328422056144046  1.0000
  C   C18       1.0  0.23108931819739098  0.5695297421178793  0.1671586906191962  1.0000
  C   C19       1.0  0.4411466210117467  0.1381816266720364  0.7113350628883592  1.0000
  C   C20       1.0  0.558852574915477  0.8618189100504878  0.2886659159895188  1.0000
  C   C21       1.0  0.7073162256270465  0.22206662446157577  0.4287157290056454  1.0000
  C   C22       1.0  0.29268228791151785  0.7779309189352831  0.5712837607378274  1.0000
  C   C23       1.0  0.2917535422410609  0.1436736150592353  0.529128878349283  1.0000
  C   C24       1.0  0.7082470051442727  0.8563259189114875  0.47087123040307666  1.0000
  C   C25       1.0  0.8466714218661622  0.7790902543782964  0.868019929977201  1.0000
  C   C26       1.0  0.15332862116814278  0.2209122764436415  0.13198082745466874  1.0000
  C   C27       1.0  0.7136808686244153  0.20343367261597226  0.6982452679807734  1.0000
  C   C28       1.0  0.2863171405631205  0.7965668676321016  0.3017548704422096  1.0000
  C   C29       1.0  0.3020058223723722  0.1258955507237474  0.6547096451525574  1.0000
  C   C30       1.0  0.6979932047581274  0.874105984894008  0.3452912510810434  1.0000
  C   C31       1.0  0.09963526629660185  0.8793978577299483  0.8850065387221941  1.0000
  C   C32       1.0  0.9003649475735856  0.12060367436227891  0.11499519796630146  1.0000
  C   C33       1.0  0.584732276212769  0.6891114898765097  0.8670061955103417  1.0000
  C   C34       1.0  0.41527249638276237  0.3108840371090977  0.13299228212209602  1.0000
  C   C35       1.0  0.12430172458836347  0.3934691746461567  0.8269434034432376  1.0000
  C   C36       1.0  0.8757006878470079  0.6065333487936686  0.17305724167373165  1.0000
  C   C37       1.0  0.44456959667696344  0.11915774201550279  0.8469011286377889  1.0000
  C   C38       1.0  0.5554272298491938  0.8808428020891346  0.15309996255498948  1.0000
  C   C39       1.0  0.1419915510790801  0.1278678090752621  0.4700770823949511  1.0000
  C   C40       1.0  0.8580091651029776  0.8721307260002292  0.5299231090016929  1.0000
  O   O1        1.0  0.6790968212552997  0.3830048422526247  0.9104080088323057  1.0000
  O   O2        1.0  0.32089949684151253  0.6169986983721927  0.08959193781528539  1.0000
  O   O3        1.0  0.7932106454273864  0.12676020244803252  0.7716538901461545  1.0000
  O   O4        1.0  0.20678398253359384  0.8732393503089994  0.2283482926181505  1.0000
  O   O5        1.0  0.6258624628494758  0.4821145052709496  0.6300281875748934  1.0000
  O   O6        1.0  0.3741414678015715  0.5178860163563286  0.3699707734484931  1.0000
  O   O7        1.0  0.9259734580327716  0.37104234820585463  0.6048536277875909  1.0000
  O   O8        1.0  0.07402776250031448  0.6289531900184288  0.3951459149295359  1.0000
