data_image0
_chemical_formula_structural       Zn4H36C60O20
_chemical_formula_sum              "Zn4 H36 C60 O20"
_cell_length_a       7.870153352309033
_cell_length_b       14.010805339409762
_cell_length_c       14.010792880465033
_cell_angle_alpha    73.50507582588051
_cell_angle_beta     77.69648696916002
_cell_angle_gamma    77.69695026301852

_space_group_name_H-M_alt    "P 1"
_space_group_IT_number       1

loop_
  _space_group_symop_operation_xyz
  'x, y, z'

loop_
  _atom_site_type_symbol
  _atom_site_label
  _atom_site_symmetry_multiplicity
  _atom_site_fract_x
  _atom_site_fract_y
  _atom_site_fract_z
  _atom_site_occupancy
  Zn  Zn1       1.0  0.9913274197830972  0.2672824854132615  0.20485095293505395  1.0000
  Zn  Zn2       1.0  0.5086694401970248  0.7951509489876116  0.7327161190897514  1.0000
  Zn  Zn3       1.0  0.008672484625321896  0.7327188633686389  0.7951501181281132  1.0000
  Zn  Zn4       1.0  0.4913281559834317  0.20484955855351225  0.26728190421231807  1.0000
  H   H1        1.0  0.1509352514586979  0.5411682047921644  0.04149200556525304  1.0000
  H   H2        1.0  0.5604536194296303  0.7147484765736465  0.00908549623042632  1.0000
  H   H3        1.0  0.521422511415146  0.4427223567875203  0.2488150730847138  1.0000
  H   H4        1.0  0.7838783501296546  0.4615282419534027  0.2524246824232108  1.0000
  H   H5        1.0  0.6342833289089924  0.5484969513372562  0.3145668968614003  1.0000
  H   H6        1.0  0.9580816811767577  0.43709522813401247  0.3884574422091376  1.0000
  H   H7        1.0  0.1980717302538793  0.4893176427573636  0.43720592022570065  1.0000
  H   H8        1.0  0.11907065997527871  0.7750762392500476  0.21821881178698277  1.0000
  H   H9        1.0  0.8811955714122848  0.7202964142184811  0.16784983810857307  1.0000
  H   H10       1.0  0.3490611774436871  0.9585040982813811  0.45883517573960814  1.0000
  H   H11       1.0  0.9395484542241874  0.9909138006322067  0.28524976883156233  1.0000
  H   H12       1.0  0.9785740011285143  0.7511827762199774  0.5572768855537831  1.0000
  H   H13       1.0  0.7161222567468569  0.7475772644301912  0.5384718247846438  1.0000
  H   H14       1.0  0.8657150282687096  0.6854341913558529  0.45150316618754976  1.0000
  H   H15       1.0  0.5419186382873349  0.6115385104795552  0.5629087915547827  1.0000
  H   H16       1.0  0.30193331812815666  0.5627875150708874  0.5106806287428824  1.0000
  H   H17       1.0  0.3809277694021701  0.7817820549879428  0.22492615566033441  1.0000
  H   H18       1.0  0.6187974031187624  0.832150434832201  0.2797089898828062  1.0000
  H   H19       1.0  0.8490628273309894  0.4588398585624419  0.9585043675600673  1.0000
  H   H20       1.0  0.4395495406894411  0.2852551461606083  0.9909152201166975  1.0000
  H   H21       1.0  0.4785722614497986  0.5572834876455063  0.7511837856316319  1.0000
  H   H22       1.0  0.21612072396226972  0.5384715457118006  0.7475748190754389  1.0000
  H   H23       1.0  0.36571574518293914  0.45150283632795424  0.6854326046372493  1.0000
  H   H24       1.0  0.04191848373139343  0.5629053114007831  0.6115417042869495  1.0000
  H   H25       1.0  0.8019273211880958  0.5106776036129688  0.5627942575234002  1.0000
  H   H26       1.0  0.8809273996818447  0.22492218907795095  0.7817869333554553  1.0000
  H   H27       1.0  0.118802804870576  0.2797057094701074  0.8321518856330102  1.0000
  H   H28       1.0  0.6509451034840767  0.04148824789494651  0.5411700558095021  1.0000
  H   H29       1.0  0.0604617097537883  0.009083650579171399  0.7147470311585735  1.0000
  H   H30       1.0  0.021416391733495667  0.24882007907829973  0.4427241034644993  1.0000
  H   H31       1.0  0.2838781351849775  0.2524225025446754  0.46152681772769444  1.0000
  H   H32       1.0  0.1342847101562299  0.31456329697314805  0.5484955336515043  1.0000
  H   H33       1.0  0.4580886068611463  0.3884552500647446  0.4370923272255284  1.0000
  H   H34       1.0  0.6980702340003477  0.43720549829733824  0.48932114242931135  1.0000
  H   H35       1.0  0.6190698805097625  0.2182133037906766  0.7750784325334124  1.0000
  H   H36       1.0  0.3811987688817027  0.1678456438223321  0.7202941201143603  1.0000
  C   C1        1.0  0.24676678872498317  0.39151721478830126  0.19992233884683228  1.0000
  C   C2        1.0  0.3294502908821002  0.4832325445024566  0.14975080276818886  1.0000
  C   C3        1.0  0.26413394526388584  0.5525082209298945  0.06734582684973843  1.0000
  C   C4        1.0  0.34778441326118076  0.6358554420194198  0.016787845764483215  1.0000
  C   C5        1.0  0.49420530713567257  0.650451452314819  0.04910894040487783  1.0000
  C   C6        1.0  0.5568733416849625  0.5819693540456399  0.133438310851254  1.0000
  C   C7        1.0  0.4746985715223815  0.49798017148880547  0.18393302549265664  1.0000
  C   C8        1.0  0.28294948108725737  0.7062750317535066  0.9250075981674755  1.0000
  C   C9        1.0  0.7487158186779228  0.5415839253032289  0.2539685657903163  1.0000
  C   C10       1.0  0.9004345991889977  0.5760177511277504  0.2760184096012851  1.0000
  C   C11       1.0  0.9919417411495528  0.5120128886383882  0.35173756771206405  1.0000
  C   C12       1.0  0.1280284283941526  0.541854434688176  0.379202419291218  1.0000
  C   C13       1.0  0.178063260502114  0.6369761775128496  0.3321697590632411  1.0000
  C   C14       1.0  0.08630159702261149  0.7001550682000828  0.2555184534959167  1.0000
  C   C15       1.0  0.9502587512344151  0.6701712656983005  0.2275158573594638  1.0000
  C   C16       1.0  0.25324553849631565  0.8000855814563722  0.6084754056976607  1.0000
  C   C17       1.0  0.1705395182045066  0.8502457162691358  0.5167664393245204  1.0000
  C   C18       1.0  0.23587274578976286  0.9326534000137344  0.44749248014920084  1.0000
  C   C19       1.0  0.15221420304642647  0.9832085636103047  0.36414068859188825  1.0000
  C   C20       1.0  0.00580401969678224  0.9508867663506066  0.34954709206748197  1.0000
  C   C21       1.0  0.9431307081720846  0.8665595932918324  0.41802563376036517  1.0000
  C   C22       1.0  0.025305894383556907  0.8160658365573639  0.5020171677517169  1.0000
  C   C23       1.0  0.21708461977937082  0.0749872648688594  0.2937372610889141  1.0000
  C   C24       1.0  0.7512794084235352  0.7460328860746231  0.45841836175597445  1.0000
  C   C25       1.0  0.5995594474240561  0.7239804264591925  0.42398775980024783  1.0000
  C   C26       1.0  0.5080573667790133  0.6482611845312861  0.487990115410696  1.0000
  C   C27       1.0  0.3719722136290359  0.6207942993722354  0.45814787667973184  1.0000
  C   C28       1.0  0.32193113779333543  0.6678318582618203  0.3630222339148191  1.0000
  C   C29       1.0  0.4136935753943405  0.744481539464786  0.2998487514098117  1.0000
  C   C30       1.0  0.5497370803618085  0.7724861205078712  0.32983063145200475  1.0000
  C   C31       1.0  0.7532202444808148  0.6084885703508862  0.800074570870798  1.0000
  C   C32       1.0  0.670544952768239  0.5167717364671134  0.8502463376889864  1.0000
  C   C33       1.0  0.7358656281752972  0.44749910420520683  0.9326513141804966  1.0000
  C   C34       1.0  0.6522175461841898  0.36414807300004526  0.9832087575273222  1.0000
  C   C35       1.0  0.5057989772756813  0.3495528856018383  0.9508900003563596  1.0000
  C   C36       1.0  0.4431277204917949  0.41803267323148674  0.8665595640426886  1.0000
  C   C37       1.0  0.5252964116282115  0.5020249187278837  0.8160660395316057  1.0000
  C   C38       1.0  0.7170641607108621  0.29373305847081355  0.07498912149695514  1.0000
  C   C39       1.0  0.25128174402647835  0.45841661892507096  0.746030878095084  1.0000
  C   C40       1.0  0.0995638440459814  0.42398429918647196  0.7239804729736363  1.0000
  C   C41       1.0  0.008055594531171563  0.48798842814984766  0.6482623801570924  1.0000
  C   C42       1.0  0.87197277120422  0.4581423521085028  0.6207984690360817  1.0000
  C   C43       1.0  0.8219331611719697  0.3630236698766324  0.6678321706997181  1.0000
  C   C44       1.0  0.9136965128485953  0.2998433050971485  0.7444851607715324  1.0000
  C   C45       1.0  0.04974115317400422  0.3298300830835998  0.7724852137037032  1.0000
  C   C46       1.0  0.7467524949934727  0.1999133993084783  0.3915223199285691  1.0000
  C   C47       1.0  0.8294574244690551  0.1497525126261223  0.4832316413042719  1.0000
  C   C48       1.0  0.7641308792027671  0.06734409961859461  0.5525064838975453  1.0000
  C   C49       1.0  0.8477933085137083  0.0167889473253595  0.63585853966255  1.0000
  C   C50       1.0  0.994203558815464  0.049110671210691216  0.6504492950203088  1.0000
  C   C51       1.0  0.05687400763667939  0.133438658210089  0.5819729752838185  1.0000
  C   C52       1.0  0.9746934067320507  0.1839331785479033  0.4979818297631837  1.0000
  C   C53       1.0  0.7829183743562137  0.925012497412489  0.7062610840341035  1.0000
  C   C54       1.0  0.24872116031788488  0.253966163371075  0.5415819076475898  1.0000
  C   C55       1.0  0.4004389062088621  0.2760171559345181  0.5760146401917864  1.0000
  C   C56       1.0  0.4919441864385448  0.35173416720707007  0.5120140266990774  1.0000
  C   C57       1.0  0.6280276179153503  0.3792025631455616  0.5418560015088829  1.0000
  C   C58       1.0  0.6780628919626469  0.3321672396048356  0.6369801995453556  1.0000
  C   C59       1.0  0.5863034269226121  0.2555161003064512  0.7001559281518724  1.0000
  C   C60       1.0  0.450259938693172  0.2275115009197748  0.6701733378180137  1.0000
  O   O1        1.0  0.11367591418061816  0.3832984447619836  0.16599107021603743  1.0000
  O   O2        1.0  0.30996814875509676  0.32586023473889714  0.2735971852021635  1.0000
  O   O3        1.0  0.1342127052341624  0.6971100785582749  0.9097791797609388  1.0000
  O   O4        1.0  0.379494861316097  0.7705620063426792  0.8693455114147355  1.0000
  O   O5        1.0  0.6995471594209945  0.6024195602732335  0.16010706703561794  1.0000
  O   O6        1.0  0.3863012949302205  0.8340022260352454  0.6166998981851322  1.0000
  O   O7        1.0  0.1900178601174858  0.7263938415486705  0.6741432347624041  1.0000
  O   O8        1.0  0.36576771834349847  0.0902169246854001  0.3028862892805719  1.0000
  O   O9        1.0  0.12048904840794705  0.13066230465079093  0.22943334127376153  1.0000
  O   O10       1.0  0.8004529105726665  0.8398917831789561  0.39757885447225755  1.0000
  O   O11       1.0  0.8863175910585145  0.616707365330619  0.8340065166116446  1.0000
  O   O12       1.0  0.6900288165684145  0.6741425354512386  0.7264002191761775  1.0000
  O   O13       1.0  0.8657884179827917  0.3028873157060232  0.0902158199251346  1.0000
  O   O14       1.0  0.6205011624366392  0.22944389077436264  0.13065532948194664  1.0000
  O   O15       1.0  0.300454273112976  0.39758101360198606  0.83989335134914  1.0000
  O   O16       1.0  0.6136849616905665  0.16599684922474722  0.3833020068596582  1.0000
  O   O17       1.0  0.8099736619509912  0.2736005913114852  0.3258552002958979  1.0000
  O   O18       1.0  0.6342476594712848  0.909779983045702  0.6971186457388114  1.0000
  O   O19       1.0  0.8795357537457207  0.869338282013622  0.7705665314821603  1.0000
  O   O20       1.0  0.1995503273246229  0.1601071881988787  0.6024182763753458  1.0000
