data_image0
_chemical_formula_structural       Cu8H48C50I8N8O8
_chemical_formula_sum              "Cu8 H48 C50 I8 N8 O8"
_cell_length_a       11.772578673676392
_cell_length_b       12.84410459550607
_cell_length_c       12.89789743005133
_cell_angle_alpha    78.41701262206024
_cell_angle_beta     62.84645219279436
_cell_angle_gamma    63.89877468314471

_space_group_name_H-M_alt    "P 1"
_space_group_IT_number       1

loop_
  _space_group_symop_operation_xyz
  'x, y, z'

loop_
  _atom_site_type_symbol
  _atom_site_label
  _atom_site_symmetry_multiplicity
  _atom_site_fract_x
  _atom_site_fract_y
  _atom_site_fract_z
  _atom_site_occupancy
  Cu  Cu1       1.0  0.8374313764499632  0.28024452689889745  0.1416309320164686  1.0000
  Cu  Cu2       1.0  0.7598253222741178  0.21984942040997876  0.3551059647563903  1.0000
  Cu  Cu3       1.0  0.9795112650264245  0.8581440628937287  0.7824908364394432  1.0000
  Cu  Cu4       1.0  0.11172994678278053  0.645667835454944  0.7217765546210515  1.0000
  Cu  Cu5       1.0  0.16256760460489514  0.7197499621301304  0.8583701827081284  1.0000
  Cu  Cu6       1.0  0.2401731465123689  0.7801489918301456  0.6448960213233264  1.0000
  Cu  Cu7       1.0  0.02048487787421751  0.1418546616233129  0.2175094069300414  1.0000
  Cu  Cu8       1.0  0.8882676511440482  0.35433328065714403  0.2782236887484331  1.0000
  H   H1        1.0  0.8563920875722176  0.1740908814486912  0.9450761163012728  1.0000
  H   H2        1.0  0.4777466123683922  0.3255910440045042  0.5515338059940404  1.0000
  H   H3        1.0  0.8068939832050861  0.05064963364448962  0.672714904777699  1.0000
  H   H4        1.0  0.027713837776758496  0.4467237440378612  0.8277908462441843  1.0000
  H   H5        1.0  0.14360910033473584  0.8259055927296541  0.0549223843579796  1.0000
  H   H6        1.0  0.5222526227229735  0.6744093063000492  0.4484646946652049  1.0000
  H   H7        1.0  0.19309996781910832  0.9493521541060019  0.3272835958815463  1.0000
  H   H8        1.0  0.9722917778166716  0.5532763410766534  0.1722050403497164  1.0000
  H   H9        1.0  0.6945888870501521  0.5095854672404981  0.0632072288071512  1.0000
  H   H10       1.0  0.7654010659997614  0.99095191431023  0.4378481039238622  1.0000
  H   H11       1.0  0.7544846723391103  0.9394176832075302  0.011096707410622698  1.0000
  H   H12       1.0  0.20137018070923332  0.5643556802178722  0.4913545362172727  1.0000
  H   H13       1.0  0.30541804906338416  0.49041155463990543  0.9367921432072207  1.0000
  H   H14       1.0  0.23459387541451804  0.009047576014680241  0.5621530108007349  1.0000
  H   H15       1.0  0.24551684619455472  0.06058072903491053  0.988899179183278  1.0000
  H   H16       1.0  0.7986325822510096  0.4356462958745124  0.508641350376628  1.0000
  H   H17       1.0  0.7782671960542231  0.24775543354144247  0.7835033510850025  1.0000
  H   H18       1.0  0.31202094414729237  0.249613674368689  0.7142794151973391  1.0000
  H   H19       1.0  0.5685320700206304  0.21030948817756476  0.7452508614637736  1.0000
  H   H20       1.0  0.027142589699643314  0.282049931725652  0.7520779288027839  1.0000
  H   H21       1.0  0.22172929145541806  0.75224486967722  0.2164968922844821  1.0000
  H   H22       1.0  0.6879784389357582  0.750389067529909  0.2857216995272651  1.0000
  H   H23       1.0  0.4314628232647024  0.7896959105064454  0.2547519959710556  1.0000
  H   H24       1.0  0.9728606229210611  0.7179516850045857  0.247919700501356  1.0000
  H   H25       1.0  0.4318741763841415  0.7424021354276464  0.8852480026365157  1.0000
  H   H26       1.0  0.5597726563580282  0.7515638523272868  0.617811690232287  1.0000
  H   H27       1.0  0.3139775934601019  0.1156682766078347  0.2450572989431379  1.0000
  H   H28       1.0  0.17736216333489102  0.38085138572268556  0.2538292309025181  1.0000
  H   H29       1.0  0.5681300690701934  0.25759880966220555  0.11475659750855269  1.0000
  H   H30       1.0  0.44022530016008693  0.24843848312394098  0.38219116720254215  1.0000
  H   H31       1.0  0.6860248388734363  0.884331761420455  0.7549412017161146  1.0000
  H   H32       1.0  0.8226402405373962  0.619146667157942  0.7461675270465022  1.0000
  H   H33       1.0  0.5318005712497822  0.6247773483479192  0.7868441266022614  1.0000
  H   H34       1.0  0.4452587275413649  0.8689758492029329  0.7164203347189612  1.0000
  H   H35       1.0  0.3185185178160951  0.21258492253802072  0.1260179910362211  1.0000
  H   H36       1.0  0.1604802257629174  0.2828118462999214  0.3720006691132483  1.0000
  H   H37       1.0  0.46819760985022213  0.37522345548592295  0.2131613448979266  1.0000
  H   H38       1.0  0.5547404299664294  0.1310230165678092  0.2835851367812197  1.0000
  H   H39       1.0  0.6814833877701076  0.7874166941912294  0.8739822523332635  1.0000
  H   H40       1.0  0.8395195645370418  0.7171889104513414  0.6279978315460042  1.0000
  H   H41       1.0  0.6496120971322838  0.4591106000929699  0.7644171886097554  1.0000
  H   H42       1.0  0.3740332765174871  0.0370963569899843  0.7361208025514471  1.0000
  H   H43       1.0  0.4169168015005341  0.23264714745862136  0.9580000553915227  1.0000
  H   H44       1.0  0.11078870529652113  0.26170479850509304  0.5390159183881522  1.0000
  H   H45       1.0  0.35038135510914964  0.5408920476335268  0.2355882828904328  1.0000
  H   H46       1.0  0.6259663311474455  0.9629048532912279  0.2638829262385016  1.0000
  H   H47       1.0  0.5830815762167844  0.7673528434827972  0.0420028020433136  1.0000
  H   H48       1.0  0.889212195420633  0.738296771139595  0.4609825822710931  1.0000
  C   C1        1.0  0.8013892251534427  0.2664914961993361  0.9335402459118569  1.0000
  C   C2        1.0  0.5027397423706361  0.2328110405218311  0.5643252991065637  1.0000
  C   C3        1.0  0.738861447431539  0.06331013829662885  0.7655508216165215  1.0000
  C   C4        1.0  0.06572325904875247  0.43446613538286977  0.7347362192710846  1.0000
  C   C5        1.0  0.19860999545894492  0.7335065095950739  0.066459126102508  1.0000
  C   C6        1.0  0.49725862136439514  0.7671893097820615  0.4356749442629209  1.0000
  C   C7        1.0  0.26113449934847205  0.9366921029854679  0.2344485503978433  1.0000
  C   C8        1.0  0.9342822654755096  0.5655355284329245  0.2652605386779356  1.0000
  C   C9        1.0  0.7117650825713823  0.4532787137919527  0.9998590838405832  1.0000
  C   C10       1.0  0.6639157114806551  0.04655090427782931  0.5004183721407358  1.0000
  C   C11       1.0  0.7107633807129969  0.0008589501103912678  0.9537940242434217  1.0000
  C   C12       1.0  0.16266128217874623  0.5006648399851983  0.5474358228804093  1.0000
  C   C13       1.0  0.28823778494363955  0.5467186203640537  0.0001420308840139  1.0000
  C   C14       1.0  0.33607934946405027  0.9534489924934629  0.4995836139389809  1.0000
  C   C15       1.0  0.2892366201865569  0.9991406343859666  0.0462044764158307  1.0000
  C   C16       1.0  0.8373433570068869  0.4993371831924095  0.4525600637134914  1.0000
  C   C17       1.0  0.6620283226078314  0.5013544653543605  0.9134511536973379  1.0000
  C   C18       1.0  0.576285239904351  0.9970383793927339  0.5876802302983037  1.0000
  C   C19       1.0  0.575216337610904  0.08660097275930674  0.0014359932322491997  1.0000
  C   C20       1.0  0.16315852959176882  0.4125664048152943  0.4981110237918287  1.0000
  C   C21       1.0  0.33797290774266747  0.4986436346091736  0.0865517037374914  1.0000
  C   C22       1.0  0.42371148666614294  0.002962736718686206  0.4123217557814129  1.0000
  C   C23       1.0  0.42478225120268587  0.9134005497998176  0.9985633787821158  1.0000
  C   C24       1.0  0.8368452097762782  0.5874336332139906  0.501884862802072  1.0000
  C   C25       1.0  0.756652468399963  0.30835901671645166  0.844777042888289  1.0000
  C   C26       1.0  0.4113741047633822  0.1896059898254309  0.6538465810816234  1.0000
  C   C27       1.0  0.6059338165300757  0.15115745516853002  0.8068765807341974  1.0000
  C   C28       1.0  0.06516266737858695  0.3439032063473704  0.6916328957154292  1.0000
  C   C29       1.0  0.24334567025649523  0.6916401613322024  0.1552240718363151  1.0000
  C   C30       1.0  0.5886242874329  0.8103963456261241  0.3461554049980933  1.0000
  C   C31       1.0  0.39406280498895546  0.8488455990066583  0.193123662635287  1.0000
  C   C32       1.0  0.9348419573280824  0.6560964723200937  0.308363862233584  1.0000
  C   C33       1.0  0.6249409743544444  0.749314943430569  0.751007904719529  1.0000
  C   C34       1.0  0.3750609167527871  0.25068432878853747  0.24899321000507507  1.0000
  C   C35       1.0  0.5385866620031408  0.6816931920301952  0.8348845482488869  1.0000
  C   C36       1.0  0.5554471820047058  0.8140603729115553  0.6678300879937282  1.0000
  C   C37       1.0  0.37184146971087984  0.16592217956308997  0.1828521285201461  1.0000
  C   C38       1.0  0.22265246952299128  0.33212360878101066  0.3156222503553323  1.0000
  C   C39       1.0  0.46141503248677646  0.318306893081342  0.1651191805410619  1.0000
  C   C40       1.0  0.44455175092120686  0.18594002447657232  0.3321727694411081  1.0000
  C   C41       1.0  0.6281618479612803  0.8340774991033868  0.817147243494226  1.0000
  C   C42       1.0  0.7773488523933596  0.6678756163538534  0.6843762503039201  1.0000
  C   C43       1.0  0.6848518468078664  0.426987487050461  0.8337814126712004  1.0000
  C   C44       1.0  0.4463705675791588  0.0703777606282117  0.6664411479377748  1.0000
  C   C45       1.0  0.5210029285458687  0.16391321108947196  0.9261485404572554  1.0000
  C   C46       1.0  0.11268339169630083  0.3321525832524229  0.5720986581022558  1.0000
  C   C47       1.0  0.31514477421448833  0.5730128632521102  0.1662223161187555  1.0000
  C   C48       1.0  0.5536262785217615  0.929623761929598  0.3335617094970615  1.0000
  C   C49       1.0  0.47899610992818253  0.8360879521075049  0.0738525742673417  1.0000
  C   C50       1.0  0.8873198209243968  0.6678490334778217  0.427898971201877  1.0000
  I   I1        1.0  0.8656562971124656  0.060099292961545994  0.1796986943529646  1.0000
  I   I2        1.0  0.6130773705331124  0.4380935399509695  0.3173649605886482  1.0000
  I   I3        1.0  0.04900527438828567  0.8192349373045145  0.5618149250154758  1.0000
  I   I4        1.0  0.9240400279935844  0.6831654853112712  0.9418573305003406  1.0000
  I   I5        1.0  0.13433972576107314  0.9398963212365032  0.8203041630818717  1.0000
  I   I6        1.0  0.38692300343669916  0.5619096083946716  0.6826352827808364  1.0000
  I   I7        1.0  0.9509971434662817  0.18076275621363883  0.43818444699889614  1.0000
  I   I8        1.0  0.07596028855703453  0.316830988866414  0.058142912869144  1.0000
  N   N1        1.0  0.7783116809070236  0.3388294904403891  0.0105538531729437  1.0000
  N   N2        1.0  0.6275711856875293  0.16135136402970576  0.4880625565865486  1.0000
  N   N3        1.0  0.7902173055509466  0.9886245093656356  0.838881454168991  1.0000
  N   N4        1.0  0.11351245850701014  0.5123523330364108  0.6626612094417226  1.0000
  N   N5        1.0  0.22168995666039126  0.6611666243758093  0.9894463901965408  1.0000
  N   N6        1.0  0.37242662283889433  0.8386485798274702  0.5119376867829359  1.0000
  N   N7        1.0  0.2097779664900371  0.011376919023369712  0.1611170464902614  1.0000
  N   N8        1.0  0.8864918360696309  0.4876481114395831  0.3373346771521781  1.0000
  O   O1        1.0  0.5933943731540127  0.6188078549708037  0.9187786188805802  1.0000
  O   O2        1.0  0.6299687752883258  0.8792839131765148  0.5834733277950903  1.0000
  O   O3        1.0  0.5100448298973816  0.08268406423265155  0.1195812907894762  1.0000
  O   O4        1.0  0.21302922067201288  0.41721869770986325  0.3798968891803868  1.0000
  O   O5        1.0  0.40660873342186954  0.3811902920779601  0.0812242385542561  1.0000
  O   O6        1.0  0.3700275156040007  0.12071720293457835  0.416529529639746  1.0000
  O   O7        1.0  0.4899561758712281  0.9173155673482684  0.8804189525800082  1.0000
  O   O8        1.0  0.7869702394979188  0.5827828248499285  0.6201007401237462  1.0000
