data_image0
_chemical_formula_structural       La2H26C36N4O14
_chemical_formula_sum              "La2 H26 C36 N4 O14"
_cell_length_a       9.008550090032724
_cell_length_b       10.09487342066398
_cell_length_c       10.590965989686767
_cell_angle_alpha    72.25665419890979
_cell_angle_beta     77.8510608138405
_cell_angle_gamma    70.03249709069912

_space_group_name_H-M_alt    "P 1"
_space_group_IT_number       1

loop_
  _space_group_symop_operation_xyz
  'x, y, z'

loop_
  _atom_site_type_symbol
  _atom_site_label
  _atom_site_symmetry_multiplicity
  _atom_site_fract_x
  _atom_site_fract_y
  _atom_site_fract_z
  _atom_site_occupancy
  La  La1       1.0  0.4173289162590307  0.5873509678048235  0.16646419252360548  1.0000
  La  La2       1.0  0.5826723877723976  0.41264750213002793  0.8335359665864535  1.0000
  H   H1        1.0  0.307814318973854  0.38458405369440374  0.4749342451308467  1.0000
  H   H2        1.0  0.6921851465219362  0.6154165917826473  0.5250665650916988  1.0000
  H   H3        1.0  0.13138239916784752  0.3837531860894572  0.6910031044216327  1.0000
  H   H4        1.0  0.8686155017566789  0.6162452819483376  0.30899861542881285  1.0000
  H   H5        1.0  0.9219148895686613  0.6144566062971177  0.7191851019331641  1.0000
  H   H6        1.0  0.07808264963180991  0.38554295990920906  0.2808144790356695  1.0000
  H   H7        1.0  0.784104166500754  0.874386386411103  0.6204711369804133  1.0000
  H   H8        1.0  0.2158933726997176  0.12561317979522363  0.3795284439884129  1.0000
  H   H9        1.0  0.7542178290516616  0.09145436360487479  0.4297637771752464  1.0000
  H   H10       1.0  0.24578015136906822  0.9085473678869251  0.5702379336289952  1.0000
  H   H11       1.0  0.8528831679430481  0.2121716856043747  0.20069100764921202  1.0000
  H   H12       1.0  0.14711671811431867  0.787831146760837  0.799307208877764  1.0000
  H   H13       1.0  0.05344620868542898  0.1947641869156627  0.9956749707153565  1.0000
  H   H14       1.0  0.9465547336219444  0.8052353811877282  0.004323049513097011  1.0000
  H   H15       1.0  0.2673422890463327  0.9577545599825042  0.9944687494321091  1.0000
  H   H16       1.0  0.7326586656562526  0.04224499515926539  0.0055321049149270754  1.0000
  H   H17       1.0  0.4862253777495126  0.07108143153147489  0.36721342797378065  1.0000
  H   H18       1.0  0.5137759262819229  0.9289170384033766  0.6327867311362854  1.0000
  H   H19       1.0  0.5131315541910411  0.961412358402491  0.1183980332881518  1.0000
  H   H20       1.0  0.4868701704019641  0.03858829842052809  0.8815995321263517  1.0000
  H   H21       1.0  0.12514142921568092  0.43820070335534206  0.8915807281016231  1.0000
  H   H22       1.0  0.8748583856089525  0.5617988569147911  0.10841938688394497  1.0000
  H   H23       1.0  0.6201238033410661  0.47141974686360294  0.38707351894532865  1.0000
  H   H24       1.0  0.37987827884425934  0.528579816111417  0.6129252406445932  1.0000
  H   H25       1.0  0.5605319681668561  0.3298561090536225  0.4345671606313745  1.0000
  H   H26       1.0  0.43946862894340916  0.6701445399361389  0.5654324995402434  1.0000
  C   C1        1.0  0.2189949541130574  0.4849447832363368  0.49089978783827365  1.0000
  C   C2        1.0  0.7810033673730385  0.5150558716896185  0.5090993383166097  1.0000
  C   C3        1.0  0.11920621363642435  0.48438802840367845  0.6123359462737243  1.0000
  C   C4        1.0  0.880792465441992  0.515611532674285  0.3876643740565698  1.0000
  C   C5        1.0  0.004394746188047802  0.6119929324273627  0.6279565591982109  1.0000
  C   C6        1.0  0.9956039287586406  0.388006632971141  0.37204281642588927  1.0000
  C   C7        1.0  0.9892849327611084  0.7390795866800133  0.5220194207480164  1.0000
  C   C8        1.0  0.010712252978777285  0.2609210690537651  0.47797991075158575  1.0000
  C   C9        1.0  0.8661157077705467  0.8717439006304701  0.5290530381070159  1.0000
  C   C10       1.0  0.13388559212914694  0.12825457362492898  0.47094617629684893  1.0000
  C   C11       1.0  0.8501032966604923  0.9916621478993477  0.4235098096850082  1.0000
  C   C12       1.0  0.1498958153747125  0.008339587105155  0.5764907510683133  1.0000
  C   C13       1.0  0.9596186249107748  0.9885916010581961  0.3043724323928104  1.0000
  C   C14       1.0  0.040382766880327395  0.0114101236895792  0.69562960708344  1.0000
  C   C15       1.0  0.9488380390566249  0.11203737632828846  0.19467851506581016  1.0000
  C   C16       1.0  0.051162566317117325  0.8879632640203995  0.8053230345181962  1.0000
  C   C17       1.0  0.0593235342217255  0.10267055685137187  0.08299704672812423  1.0000
  C   C18       1.0  0.9406759271423298  0.8973300929462195  0.9170028187882198  1.0000
  C   C19       1.0  0.17888253317074987  0.9699725685398664  0.08130249872257878  1.0000
  C   C20       1.0  0.8211180680712502  0.030028076129362095  0.9186981061552333  1.0000
  C   C21       1.0  0.08516025090371217  0.8588618657416162  0.29373484338459144  1.0000
  C   C22       1.0  0.9148395763161333  0.14113768156690296  0.7062681057195593  1.0000
  C   C23       1.0  0.0982666390541098  0.7306755174787156  0.403934253978477  1.0000
  C   C24       1.0  0.9017316865637285  0.2693251331267063  0.5960658168825931  1.0000
  C   C25       1.0  0.48118563914674445  0.22244802607245617  0.16677749229530292  1.0000
  C   C26       1.0  0.5188149579635208  0.7775526229173053  0.8332221678763151  1.0000
  C   C27       1.0  0.49508538006684677  0.07604340459626258  0.2614935744851438  1.0000
  C   C28       1.0  0.5049178461281654  0.9239561489298609  0.7385068691724404  1.0000
  C   C29       1.0  0.5056740167912964  0.9574936538058408  0.2236403735270259  1.0000
  C   C30       1.0  0.4943277119334509  0.04250699869663779  0.7763581365936648  1.0000
  C   C31       1.0  0.5053771908810633  0.814646140328392  0.32054578066547645  1.0000
  C   C32       1.0  0.49462340622920214  0.18535450866136927  0.6794538795061418  1.0000
  C   C33       1.0  0.18619775419507079  0.5426458767097839  0.019878504138134204  1.0000
  C   C34       1.0  0.8138036252008262  0.45735586099960546  0.9801207012195339  1.0000
  C   C35       1.0  0.0761754792970208  0.4912674382596192  0.973205820381843  1.0000
  C   C36       1.0  0.9238251219449793  0.5087332064096086  0.02679478449597637  1.0000
  N   N1        1.0  0.21180665542947713  0.6043969330611388  0.39059544269234453  1.0000
  N   N2        1.0  0.7881905344421439  0.39560371835210617  0.609404833513459  1.0000
  N   N3        1.0  0.19238213376952024  0.8510719132413057  0.1825889010583453  1.0000
  N   N4        1.0  0.8076169823974197  0.1489298174426636  0.8174126044011631  1.0000
  O   O1        1.0  0.40931919101889486  0.33075791136229776  0.21675926075126745  1.0000
  O   O2        1.0  0.5906787057738895  0.6692405609960375  0.783241514392984  1.0000
  O   O3        1.0  0.5377429187975267  0.23018168305573278  0.04456026916234633  1.0000
  O   O4        1.0  0.46225313119614947  0.7698189734858758  0.9554392676819892  1.0000
  O   O5        1.0  0.4771098758025614  0.8067616731831677  0.4441120315997226  1.0000
  O   O6        1.0  0.5228929969318656  0.19323896987039998  0.5558881625886374  1.0000
  O   O7        1.0  0.5361587743673367  0.7064162680779446  0.2690142134913459  1.0000
  O   O8        1.0  0.4638410445890314  0.2935832878716553  0.7309868462004164  1.0000
  O   O9        1.0  0.14074361044592376  0.5982559288738541  0.11915454651111194  1.0000
  O   O10       1.0  0.8592581224105587  0.401744719308084  0.8808449083157801  1.0000
  O   O11       1.0  0.3268843736203876  0.5284939286627051  0.9566238856823336  1.0000
  O   O12       1.0  0.6731148013840738  0.47151108707795675  0.04337288720000741  1.0000
  O   O13       1.0  0.5854912879099317  0.40745138363843125  0.35461965941144075  1.0000
  O   O14       1.0  0.4145093092003407  0.5925492653513371  0.6453800007601772  1.0000
