data_image0
_chemical_formula_structural       Zn4H8C8N12Cl4
_chemical_formula_sum              "Zn4 H8 C8 N12 Cl4"
_cell_length_a       6.060674700342208
_cell_length_b       8.779759455699322
_cell_length_c       9.81905498034299
_cell_angle_alpha    89.99935997380307
_cell_angle_beta     90.00079530173808
_cell_angle_gamma    98.79276679334511

_space_group_name_H-M_alt    "P 1"
_space_group_IT_number       1

loop_
  _space_group_symop_operation_xyz
  'x, y, z'

loop_
  _atom_site_type_symbol
  _atom_site_label
  _atom_site_symmetry_multiplicity
  _atom_site_fract_x
  _atom_site_fract_y
  _atom_site_fract_z
  _atom_site_occupancy
  Zn  Zn1       1.0  0.45402098157749277  0.18681665729066307  0.5773712143887834  1.0000
  Zn  Zn2       1.0  0.04597683626192148  0.31318176904424166  0.0773716512517026  1.0000
  Zn  Zn3       1.0  0.5459813798565278  0.8131817449591947  0.4226264851023487  1.0000
  Zn  Zn4       1.0  0.9540208453262053  0.6868178069055159  0.9226250297857631  1.0000
  H   H1        1.0  0.8404241784876376  0.9715326151663246  0.1753068044906527  1.0000
  H   H2        1.0  0.6595671912847151  0.5284729668495414  0.6752983304106337  1.0000
  H   H3        1.0  0.1595831281367168  0.0284657658797656  0.824693950305381  1.0000
  H   H4        1.0  0.34042937255382094  0.47152892118133827  0.3246973321825521  1.0000
  H   H5        1.0  0.7473289097621107  0.39670093988353716  0.3470203170748434  1.0000
  H   H6        1.0  0.7526692780215855  0.10330168262420607  0.8470149371503554  1.0000
  H   H7        1.0  0.25267536540270186  0.6032986077997646  0.6529794192745512  1.0000
  H   H8        1.0  0.24732042701038634  0.8966990811193865  0.152986835987079  1.0000
  C   C1        1.0  0.7909833432590434  0.05803775999326177  0.2429612690882621  1.0000
  C   C2        1.0  0.7090218108979655  0.4419624331112145  0.7429623080200756  1.0000
  C   C3        1.0  0.20902561175167725  0.9419606139901401  0.7570394857147988  1.0000
  C   C4        1.0  0.2909789021705294  0.5580359761908509  0.2570374283199257  1.0000
  C   C5        1.0  0.7383472716563516  0.27379459047623544  0.3275230921043502  1.0000
  C   C6        1.0  0.7616515787272888  0.22621284262400815  0.8275206297392613  1.0000
  C   C7        1.0  0.2616567382056871  0.7262038046899872  0.6724786811055878  1.0000
  C   C8        1.0  0.23834030533824796  0.7737902190700934  0.17248114339589188  1.0000
  N   N1        1.0  0.627464346183018  0.16438013055302747  0.40601748621822503  1.0000
  N   N2        1.0  0.87253339974248  0.3356218920647294  0.9060138483192901  1.0000
  N   N3        1.0  0.3725421080257617  0.8356217150755466  0.5939832685568261  1.0000
  N   N4        1.0  0.12745986736498338  0.6643800100705731  0.0939858879716411  1.0000
  N   N5        1.0  0.6616968967635798  0.02560155973818469  0.3517371358754815  1.0000
  N   N6        1.0  0.8382994737399372  0.4743998688159435  0.8517287611327261  1.0000
  N   N7        1.0  0.3383087615056509  0.9743968283548763  0.648266674197373  1.0000
  N   N8        1.0  0.16169682477500655  0.5256008667083375  0.1482669014651137  1.0000
  N   N9        1.0  0.8426584554638054  0.21177708216706037  0.22433468868158  1.0000
  N   N10       1.0  0.6573437604655438  0.28823369634008594  0.7243297019379752  1.0000
  N   N11       1.0  0.15734635036903194  0.7882247705189652  0.7756670845143958  1.0000
  N   N12       1.0  0.34265333406184334  0.7117704966830443  0.2756700343576952  1.0000
  Cl  Cl1       1.0  0.18780070681055613  0.33314231445495324  0.5500917784732167  1.0000
  Cl  Cl2       1.0  0.31218724990534247  0.16685181782122527  0.05008982834040409  1.0000
  Cl  Cl3       1.0  0.8121920861049077  0.6668503605596142  0.4499089762899118  1.0000
  Cl  Cl4       1.0  0.6878101664008298  0.8331466056009729  0.9499109264135014  1.0000
