data_image0
_chemical_formula_structural       Co4H24C32S8N16
_chemical_formula_sum              "Co4 H24 C32 S8 N16"
_cell_length_a       7.755202833169438
_cell_length_b       7.68920953118217
_cell_length_c       16.160679550042783
_cell_angle_alpha    89.99979715466014
_cell_angle_beta     90.00015256844237
_cell_angle_gamma    89.99924633849989

_space_group_name_H-M_alt    "P 1"
_space_group_IT_number       1

loop_
  _space_group_symop_operation_xyz
  'x, y, z'

loop_
  _atom_site_type_symbol
  _atom_site_label
  _atom_site_symmetry_multiplicity
  _atom_site_fract_x
  _atom_site_fract_y
  _atom_site_fract_z
  _atom_site_occupancy
  Co  Co1       1.0  0.0828266051654012  0.8162861370900599  0.3733772229891272  1.0000
  Co  Co2       1.0  0.41717301684244024  0.183709909454123  0.8733785798972846  1.0000
  Co  Co3       1.0  0.9171877235838792  0.31627960206338196  0.12661560220428206  1.0000
  Co  Co4       1.0  0.5828177573022231  0.6837208259307771  0.62662006557089  1.0000
  H   H1        1.0  0.42187921136297035  0.7451884770870975  0.2932533709284612  1.0000
  H   H2        1.0  0.0781147616628743  0.2548081655461232  0.7932461758984528  1.0000
  H   H3        1.0  0.5781283183585942  0.2452013991990185  0.20674576189955465  1.0000
  H   H4        1.0  0.9218802326345781  0.7547971321623878  0.7067560625085105  1.0000
  H   H5        1.0  0.5329990471024502  0.557162349610934  0.1774577197040443  1.0000
  H   H6        1.0  0.9670015875172666  0.44284550339269657  0.67745250914205  1.0000
  H   H7        1.0  0.46700193657186156  0.057181069874310694  0.3225435862882762  1.0000
  H   H8        1.0  0.033008978909620595  0.9428244583860987  0.8225487936621432  1.0000
  H   H9        1.0  0.31262281878276343  0.372035817002427  0.10092445802690969  1.0000
  H   H10       1.0  0.18738029100102688  0.6279648572767513  0.6009241846880896  1.0000
  H   H11       1.0  0.6873843271011141  0.8720641438021417  0.3990756986277119  1.0000
  H   H12       1.0  0.8126266921254485  0.12794726265811818  0.8990739359553572  1.0000
  H   H13       1.0  0.041634891037801915  0.4267769312414842  0.37250565829990717  1.0000
  H   H14       1.0  0.45835312046301624  0.5732256244926502  0.8725039308763272  1.0000
  H   H15       1.0  0.9583573490869597  0.9267530037929036  0.12749193101051046  1.0000
  H   H16       1.0  0.5416339531818368  0.07324221567660061  0.6274973758893125  1.0000
  H   H17       1.0  0.8788616586183694  0.2050955360790923  0.45922916234672323  1.0000
  H   H18       1.0  0.6211303875933395  0.7948972157047364  0.9592279131495332  1.0000
  H   H19       1.0  0.12113866334119901  0.7050884364510281  0.0407688004770748  1.0000
  H   H20       1.0  0.37885634097261794  0.2949126853604582  0.5407693073952868  1.0000
  H   H21       1.0  0.6948479959898107  0.3231552603076082  0.5753849641867816  1.0000
  H   H22       1.0  0.8051494341421235  0.6768416472766603  0.0753847153913441  1.0000
  H   H23       1.0  0.30514222834990795  0.8231493946121091  0.9246134463362237  1.0000
  H   H24       1.0  0.19486028662629445  0.17684497027137522  0.42461081989210203  1.0000
  C   C1        1.0  0.05135072334049081  0.5884000078589295  0.22595970994742484  1.0000
  C   C2        1.0  0.44864670557723235  0.41160103686539157  0.7259625752427397  1.0000
  C   C3        1.0  0.9486537166613545  0.0884153728968755  0.2740347367712204  1.0000
  C   C4        1.0  0.551353957280469  0.9115878600392334  0.7740400177663673  1.0000
  C   C5        1.0  0.33480514745659923  0.6691826787687842  0.2547717112769163  1.0000
  C   C6        1.0  0.16519503699521473  0.33081164902880983  0.754765106596494  1.0000
  C   C7        1.0  0.665204674261652  0.1691993746836573  0.2452275496154925  1.0000
  C   C8        1.0  0.8348041126550072  0.8307910672852968  0.7452357661868019  1.0000
  C   C9        1.0  0.3960097177903635  0.5642250411012595  0.19119344391590687  1.0000
  C   C10       1.0  0.103990076874318  0.43578276486825723  0.6911896862781289  1.0000
  C   C11       1.0  0.6039950410101725  0.0642563725915366  0.3088078501676392  1.0000
  C   C12       1.0  0.8960102671150807  0.9357518038043722  0.8088085344996612  1.0000
  C   C13       1.0  0.2755698110746252  0.46449532083867945  0.1488363293200194  1.0000
  C   C14       1.0  0.22443230291404603  0.5355062975801347  0.6488325414483214  1.0000
  C   C15       1.0  0.7244335363101726  0.964520917055097  0.35116243397300195  1.0000
  C   C16       1.0  0.7755681630732597  0.035486944285573  0.8511669725530167  1.0000
  C   C17       1.0  0.8721934154276311  0.6907083686484299  0.5122265207859796  1.0000
  C   C18       1.0  0.6278036274868839  0.3093020139892246  0.012227925953624196  1.0000
  C   C19       1.0  0.1277998455060896  0.19069259336614408  0.987776444415047  1.0000
  C   C20       1.0  0.3721978988147967  0.8093026021997504  0.48777914306918285  1.0000
  C   C21       1.0  0.9639523937499844  0.464974872306044  0.4256740912300926  1.0000
  C   C22       1.0  0.5360381572834  0.5350246317126449  0.9256731825557694  1.0000
  C   C23       1.0  0.03603547408462051  0.9649621365328969  0.0743265276359324  1.0000
  C   C24       1.0  0.4639519991755492  0.035041336737300796  0.5743300449360405  1.0000
  C   C25       1.0  0.8736423525848807  0.3436650320893975  0.47229779999097576  1.0000
  C   C26       1.0  0.6263459053148707  0.6563328246155535  0.9722924587411013  1.0000
  C   C27       1.0  0.12637032563258538  0.843652759025481  0.027705498433782297  1.0000
  C   C28       1.0  0.37361944079462006  0.15634585895096356  0.5277049952681523  1.0000
  C   C29       1.0  0.7730141971614587  0.40782289337344935  0.5364818705292365  1.0000
  C   C30       1.0  0.7269817050443734  0.5921730031074046  0.036476105889399  1.0000
  C   C31       1.0  0.22698393656353485  0.9078177634135185  0.9635201100517887  1.0000
  C   C32       1.0  0.2730136590360033  0.0921815141778595  0.46351833447251056  1.0000
  S   S1        1.0  0.83611287153186  0.6027395814547702  0.2414564011056157  1.0000
  S   S2        1.0  0.6638829976015542  0.39726259339130376  0.7414577271825207  1.0000
  S   S3        1.0  0.16389653735834736  0.10272243702305421  0.2585361651241627  1.0000
  S   S4        1.0  0.3361062491689352  0.8972666605955836  0.7585467463227217  1.0000
  S   S5        1.0  0.890049828642141  0.8990754542339517  0.5443667118316425  1.0000
  S   S6        1.0  0.6099525692185708  0.10091648196326018  0.0443653537473665  1.0000
  S   S7        1.0  0.10994713093814569  0.39908096059270537  0.9556346646929156  1.0000
  S   S8        1.0  0.3900529952200742  0.600924878231595  0.45564021003360006  1.0000
  N   N1        1.0  0.16628471635608122  0.6802030533503114  0.2732411259486724  1.0000
  N   N2        1.0  0.33371171293304497  0.31979243759892745  0.7732365890016479  1.0000
  N   N3        1.0  0.8337081971320187  0.18020857286283126  0.2267587351605229  1.0000
  N   N4        1.0  0.6663056343936872  0.8197846074990168  0.726768633849197  1.0000
  N   N5        1.0  0.10674118617607319  0.4767407975515212  0.16550693228715826  1.0000
  N   N6        1.0  0.3932610300480448  0.523254194229409  0.6655058333603561  1.0000
  N   N7        1.0  0.8932736049521707  0.9767434950378587  0.3344936667562237  1.0000
  N   N8        1.0  0.6067331501634711  0.023254086062948404  0.8345011266957272  1.0000
  N   N9        1.0  0.9627263457195666  0.6349948881571661  0.44439778864062157  1.0000
  N   N10       1.0  0.5372656095749306  0.36499927447539454  0.9443971678502479  1.0000
  N   N11       1.0  0.037263295840205  0.13498221458304016  0.0556015298698469  1.0000
  N   N12       1.0  0.4627356677728969  0.8650200973674202  0.555607978795834  1.0000
  N   N13       1.0  0.7682305397374378  0.5775581173750767  0.5553311796741625  1.0000
  N   N14       1.0  0.7317745042008497  0.42244284089038336  0.0553349882923726  1.0000
  N   N15       1.0  0.231768081979439  0.07755430445080691  0.9446614568131861  1.0000
  N   N16       1.0  0.268230687484987  0.9224464139257266  0.4446638458767538  1.0000
