data_image0
_chemical_formula_structural       Co2H24C24N12O4
_chemical_formula_sum              "Co2 H24 C24 N12 O4"
_cell_length_a       6.788082911020171
_cell_length_b       9.578567526122116
_cell_length_c       11.768809280600792
_cell_angle_alpha    90.00053433493522
_cell_angle_beta     97.73176857873545
_cell_angle_gamma    90.00014598107491

_space_group_name_H-M_alt    "P 1"
_space_group_IT_number       1

loop_
  _space_group_symop_operation_xyz
  'x, y, z'

loop_
  _atom_site_type_symbol
  _atom_site_label
  _atom_site_symmetry_multiplicity
  _atom_site_fract_x
  _atom_site_fract_y
  _atom_site_fract_z
  _atom_site_occupancy
  Co  Co1       1.0  0.0  0.0  0.0  1.0000
  Co  Co2       1.0  0.499999957571383  0.4999997872869529  0.500000256612303  1.0000
  H   H1        1.0  0.2703122611042446  0.8109453519621043  0.9580534245783527  1.0000
  H   H2        1.0  0.22968750477186725  0.3109433290039476  0.5419427493534955  1.0000
  H   H3        1.0  0.7296876551985181  0.18905422260693433  0.041946239032888945  1.0000
  H   H4        1.0  0.7703109260140835  0.6890593775505494  0.4580559486297916  1.0000
  H   H5        1.0  0.313595236231933  0.07280929506388388  0.8404452144009654  1.0000
  H   H6        1.0  0.1864062026676407  0.5728098406281674  0.6595509787720815  1.0000
  H   H7        1.0  0.6864061679133471  0.9271892355048762  0.15955371561990725  1.0000
  H   H8        1.0  0.813592225792611  0.42719077794116334  0.3404494184295431  1.0000
  H   H9        1.0  0.5163642758530712  0.9625712088921715  0.8917911681457585  1.0000
  H   H10       1.0  0.9836339154437753  0.4625724923009003  0.6082023882402794  1.0000
  H   H11       1.0  0.4836341560815002  0.0374273216676997  0.10820668020740243  1.0000
  H   H12       1.0  0.0163660020218401  0.5374281262607282  0.39179642576179674  1.0000
  H   H13       1.0  0.4157005663729265  0.9210710230683786  0.6825660151567947  1.0000
  H   H14       1.0  0.0842983165825899  0.4210729303241862  0.8174283781483924  1.0000
  H   H15       1.0  0.5842978632473292  0.0789295954960991  0.31743353243146544  1.0000
  H   H16       1.0  0.9157030864083707  0.5789276882443132  0.18257140149422216  1.0000
  H   H17       1.0  0.16793028624021394  0.8825839677001498  0.7061983603534545  1.0000
  H   H18       1.0  0.33206690141052764  0.3825881422426249  0.7937947582987165  1.0000
  H   H19       1.0  0.8320696312225523  0.11741560686403572  0.2938004536444368  1.0000
  H   H20       1.0  0.6679330160607718  0.61741456431389  0.20620405571174424  1.0000
  H   H21       1.0  0.3664132221878873  0.769439148181668  0.7606413484161721  1.0000
  H   H22       1.0  0.1335848330918452  0.26944129611702994  0.7393526770154966  1.0000
  H   H23       1.0  0.6335866964348894  0.23056042637766433  0.23935661596835445  1.0000
  H   H24       1.0  0.8664165687419612  0.7305603664537657  0.2606479522446748  1.0000
  C   C1        1.0  0.23013672247443398  0.9189915618992115  0.3785803621943415  1.0000
  C   C2        1.0  0.26986849697129855  0.4189988725558891  0.12142009223047981  1.0000
  C   C3        1.0  0.7698646770279821  0.0810059246915316  0.6214219662757756  1.0000
  C   C4        1.0  0.73013587475036  0.5810017460360583  0.8785833179199259  1.0000
  C   C5        1.0  0.16541021346256463  0.9266057471211012  0.26079269905962127  1.0000
  C   C6        1.0  0.3345905909031898  0.4266103460152662  0.23920491956878465  1.0000
  C   C7        1.0  0.8345911883683925  0.0733948714522512  0.7392079301963509  1.0000
  C   C8        1.0  0.6654093230767159  0.5733881845660491  0.7607964432649938  1.0000
  C   C9        1.0  0.2960467521595405  0.7922923781323801  0.4286170316970654  1.0000
  C   C10       1.0  0.2039562922973275  0.2922958650675511  0.07138059016108403  1.0000
  C   C11       1.0  0.7039561386739381  0.20770719643583382  0.5713820143551731  1.0000
  C   C12       1.0  0.7960451118507949  0.7077037094986524  0.9286183398639809  1.0000
  C   C13       1.0  0.21528197768422788  0.0391484686596257  0.4451994195032896  1.0000
  C   C14       1.0  0.2847196834568706  0.5391532147994765  0.05479871864824302  1.0000
  C   C15       1.0  0.7847164496160204  0.960852149914558  0.5548018273116925  1.0000
  C   C16       1.0  0.7152846905791037  0.46084531578787136  0.9452029922670636  1.0000
  C   C17       1.0  0.3585652687802607  0.9634697370366893  0.8549704134415919  1.0000
  C   C18       1.0  0.1414323597578075  0.46347186462114104  0.645023354653155  1.0000
  C   C19       1.0  0.6414346486825054  0.036529837527496105  0.14502840055629926  1.0000
  C   C20       1.0  0.8585630976517392  0.5365287539344549  0.35497511126740033  1.0000
  C   C21       1.0  0.3243037547717194  0.8790848516122693  0.7449394921543588  1.0000
  C   C22       1.0  0.1756948993208454  0.3790851674903167  0.7550545640276312  1.0000
  C   C23       1.0  0.6756991383817662  0.12091472294623168  0.2550578546711577  1.0000
  C   C24       1.0  0.8243035302994103  0.6209154510741541  0.24494498356063596  1.0000
  N   N1        1.0  0.10790359366311009  0.937095220887649  0.16277692353405374  1.0000
  N   N2        1.0  0.3920957823425296  0.43709582485973897  0.3372198136602194  1.0000
  N   N3        1.0  0.8920992960103646  0.0629043536854184  0.8372229721315424  1.0000
  N   N4        1.0  0.6079026461120306  0.5629027057147055  0.6627805835330209  1.0000
  N   N5        1.0  0.1493761582761906  0.1846396161838513  0.031658125838546915  1.0000
  N   N6        1.0  0.3506262947455525  0.6846429464674558  0.46834203010316605  1.0000
  N   N7        1.0  0.8506252470290862  0.8153589143800488  0.9683399545689613  1.0000
  N   N8        1.0  0.649375109405419  0.3153576720961837  0.531656899926084  1.0000
  N   N9        1.0  0.19889727833376017  0.1407109178957384  0.4985298445170089  1.0000
  N   N10       1.0  0.3011064219258087  0.6407140399813828  0.0014700747372345037  1.0000
  N   N11       1.0  0.8011011512836461  0.8592886566712888  0.501469703067059  1.0000
  N   N12       1.0  0.6988964665848132  0.35928449059910145  0.9985306705375337  1.0000
  O   O1        1.0  0.2427560293055961  0.9118726333636004  0.9401496939724867  1.0000
  O   O2        1.0  0.257241313335868  0.4118708651169101  0.5598470582748264  1.0000
  O   O3        1.0  0.7572438881571699  0.08812694120058498  0.059849120025404524  1.0000
  O   O4        1.0  0.7427571151215348  0.5881287094549775  0.4401533389226061  1.0000
