data_image0
_chemical_formula_structural       Zn4H48C90N4O30
_chemical_formula_sum              "Zn4 H48 C90 N4 O30"
_cell_length_a       16.489973114512477
_cell_length_b       17.895189337928876
_cell_length_c       33.19653598370827
_cell_angle_alpha    90.24049320517122
_cell_angle_beta     89.78948519103317
_cell_angle_gamma    89.91846539053019

_space_group_name_H-M_alt    "P 1"
_space_group_IT_number       1

loop_
  _space_group_symop_operation_xyz
  'x, y, z'

loop_
  _atom_site_type_symbol
  _atom_site_label
  _atom_site_symmetry_multiplicity
  _atom_site_fract_x
  _atom_site_fract_y
  _atom_site_fract_z
  _atom_site_occupancy
  Zn  Zn1       1.0  0.5838630356559803  0.4991207276843994  0.5007674104801723  1.0000
  Zn  Zn2       1.0  0.4155693148673691  0.5010434539410439  0.5002799994668123  1.0000
  Zn  Zn3       1.0  0.4161942390995321  0.501450590536855  0.9613670238234562  1.0000
  Zn  Zn4       1.0  0.5844317450203677  0.5030674122745253  0.9618433721705202  1.0000
  H   H1        1.0  0.2893179821557155  0.5828924234714137  0.5452437834685995  1.0000
  H   H2        1.0  0.13669244908955142  0.5889517247162885  0.5482272745932661  1.0000
  H   H3        1.0  0.2846832988770771  0.41844130652506817  0.4568298292868462  1.0000
  H   H4        1.0  0.7150746232396517  0.582620091574114  0.5434885781311536  1.0000
  H   H5        1.0  0.7096052315500926  0.41726407596361537  0.4556064625959309  1.0000
  H   H6        1.0  0.8622221323611755  0.4112348869418342  0.45224048094764413  1.0000
  H   H7        1.0  0.631564700388978  0.7347669296818111  0.5007495147157996  1.0000
  H   H8        1.0  0.6362722076092738  0.8747169115444465  0.5001019569042812  1.0000
  H   H9        1.0  0.3708700412760636  0.7418682364286653  0.5004278274212624  1.0000
  H   H10       1.0  0.6298422044666196  0.25758683073830463  0.5000675383570082  1.0000
  H   H11       1.0  0.36918755942411974  0.26613491610230267  0.4998712936330776  1.0000
  H   H12       1.0  0.36359575560963714  0.1261917976258218  0.4996740231615036  1.0000
  H   H13       1.0  0.3709102094371132  0.5010744056413615  0.62783071216856  1.0000
  H   H14       1.0  0.6276453758931453  0.5001167495603981  0.6269880848459052  1.0000
  H   H15       1.0  0.6290317319199444  0.501771874788858  0.8342402466432262  1.0000
  H   H16       1.0  0.37227404070007  0.5011821881195572  0.8351207539397194  1.0000
  H   H17       1.0  0.368281434465537  0.5028783435227809  0.088231032925016  1.0000
  H   H18       1.0  0.36307743916708557  0.5023411994118163  0.1637145347721614  1.0000
  H   H19       1.0  0.6289630384462087  0.5023470355879738  0.0918311704389154  1.0000
  H   H20       1.0  0.37100894290660585  0.5000269345932438  0.37034228952173015  1.0000
  H   H21       1.0  0.6316998782981144  0.500377427571422  0.3739136377552299  1.0000
  H   H22       1.0  0.6368471719100554  0.5011828214388317  0.2984259948272339  1.0000
  H   H23       1.0  0.7103395545612016  0.5849953696460873  0.9170921193654635  1.0000
  H   H24       1.0  0.8629544264808402  0.5912875573298919  0.9141666961747319  1.0000
  H   H25       1.0  0.7157480126721084  0.42122135686784656  0.0051365965104608  1.0000
  H   H26       1.0  0.2848708495298595  0.5845478138476708  0.9186443745920769  1.0000
  H   H27       1.0  0.29058529649248044  0.4199733879059337  0.0061995218390507  1.0000
  H   H28       1.0  0.1379746220821474  0.4142641210101772  0.0095765766336555  1.0000
  H   H29       1.0  0.36823194678613197  0.7375678165526837  0.9608749385508304  1.0000
  H   H30       1.0  0.3639213368414005  0.8775841892659104  0.9609971874600731  1.0000
  H   H31       1.0  0.6289716942258252  0.7434354610963398  0.9612068744955948  1.0000
  H   H32       1.0  0.37036294278854615  0.2600290159698416  0.9617332242416268  1.0000
  H   H33       1.0  0.6310177548033167  0.26792568044508863  0.9616953400290669  1.0000
  H   H34       1.0  0.6366152867731428  0.1279418190691288  0.9614880872283466  1.0000
  H   H35       1.0  0.06838860047376022  0.41325462865295753  0.453374134535963  1.0000
  H   H36       1.0  0.9313580109406203  0.5868998478375926  0.5471179042292249  1.0000
  H   H37       1.0  0.3718946897609641  0.9407973209145624  0.4997783220744764  1.0000
  H   H38       1.0  0.6275038742022191  0.0586519111614123  0.4999074749865501  1.0000
  H   H39       1.0  0.6272173482277735  0.5018080914530857  0.1990667054765538  1.0000
  H   H40       1.0  0.37274363561599694  0.5011677249932093  0.26310298149294903  1.0000
  H   H41       1.0  0.9320256126693351  0.4164242747097191  0.0086639138978413  1.0000
  H   H42       1.0  0.06859091124732691  0.5892895710106104  0.9150988641427347  1.0000
  H   H43       1.0  0.6283995392789025  0.942404297462538  0.9610394257375674  1.0000
  H   H44       1.0  0.37266781502909657  0.061122059634769174  0.9612728385644402  1.0000
  H   H45       1.0  0.28617289653931977  0.5002212296486449  0.8005857025298297  1.0000
  H   H46       1.0  0.28573574383568706  0.4975714923006081  0.6629161044394252  1.0000
  H   H47       1.0  0.714261264935068  0.49803699980792254  0.7991264083889007  1.0000
  H   H48       1.0  0.7136685247438451  0.499336462715867  0.661485964030966  1.0000
  C   C1        1.0  0.49923103809360475  0.6467569114873655  0.5011995692188549  1.0000
  C   C2        1.0  0.49914693233310464  0.5007943417514654  0.5797121263566041  1.0000
  C   C3        1.0  0.5022843680820017  0.35341214414167144  0.49987273508693164  1.0000
  C   C4        1.0  0.4987218208787779  0.49940840148698135  0.42146664855827964  1.0000
  C   C5        1.0  0.5005482943576212  0.6489495336623818  0.9608736922518871  1.0000
  C   C6        1.0  0.5008090158672758  0.5019658818033291  0.882389648351598  1.0000
  C   C7        1.0  0.49791004613722845  0.3555646999800644  0.9620712511713592  1.0000
  C   C8        1.0  0.5012298965634089  0.5021547322892487  0.04068576888739979  1.0000
  C   C9        1.0  0.2513352183784576  0.547539889140559  0.5263294294032193  1.0000
  C   C10       1.0  0.1674628372697171  0.5505268676038213  0.5277315305594144  1.0000
  C   C11       1.0  0.1220793818234824  0.5034451129070306  0.5022790802427224  1.0000
  C   C12       1.0  0.1648100234728886  0.45447142211183683  0.4760637144591087  1.0000
  C   C13       1.0  0.24960533158001408  0.4550944110221736  0.4766364904759186  1.0000
  C   C14       1.0  0.036560694041050106  0.5027765452171451  0.5016747573049826  1.0000
  C   C15       1.0  0.9628180231952115  0.49743669653744144  0.498604387968129  1.0000
  C   C16       1.0  0.8772924797615858  0.49681732403537654  0.49809838721164823  1.0000
  C   C17       1.0  0.8347926728599262  0.5459194716093306  0.5243658040611763  1.0000
  C   C18       1.0  0.7500115969550336  0.5454853710606073  0.5238732521597029  1.0000
  C   C19       1.0  0.747807640174031  0.4526930647529284  0.4743640127356983  1.0000
  C   C20       1.0  0.8316759987177207  0.44972337850443717  0.472776093077087  1.0000
  C   C21       1.0  0.5011937975092381  0.7305671624541219  0.5008630060049413  1.0000
  C   C22       1.0  0.5761339694088221  0.7678466180250964  0.5006954618688582  1.0000
  C   C23       1.0  0.5784729595072094  0.845226446342636  0.500270906314519  1.0000
  C   C24       1.0  0.5060241220576386  0.887280946643898  0.5000487151971456  1.0000
  C   C25       1.0  0.4305727356116478  0.8489812661761391  0.5001813335039458  1.0000
  C   C26       1.0  0.42871159524742813  0.7711659450659596  0.5005397426864135  1.0000
  C   C27       1.0  0.5046117496435727  0.9660842722371258  0.4997425982559704  1.0000
  C   C28       1.0  0.49479913037993123  0.034095828317070684  0.4996191607711181  1.0000
  C   C29       1.0  0.49373930377598185  0.1129102600690643  0.4996080512522382  1.0000
  C   C30       1.0  0.5694504231489574  0.15079133934634112  0.4997069720748968  1.0000
  C   C31       1.0  0.5718222250768292  0.2285948260215775  0.49978877901072144  1.0000
  C   C32       1.0  0.49959751037355465  0.26961659120529197  0.49974561170267856  1.0000
  C   C33       1.0  0.4244096835496833  0.23275741561663213  0.4997189555698043  1.0000
  C   C34       1.0  0.4215661910047999  0.1553787910930637  0.499640002602348  1.0000
  C   C35       1.0  0.4259263312982712  0.5009457311826608  0.6460695183437154  1.0000
  C   C36       1.0  0.4245401648759639  0.5008686446341174  0.688341212429755  1.0000
  C   C37       1.0  0.34991881293984056  0.5006518594632751  0.7107733150275167  1.0000
  C   C38       1.0  0.5728561909556263  0.5005362092212308  0.6455862635201727  1.0000
  C   C39       1.0  0.5747966396976523  0.5007273186815624  0.6878285475243828  1.0000
  C   C40       1.0  0.6497214515195253  0.5005287140740151  0.7097445861112845  1.0000
  C   C41       1.0  0.573993509111176  0.5015898588296679  0.8160173543334963  1.0000
  C   C42       1.0  0.575344366023522  0.5012601404591877  0.7737445120965489  1.0000
  C   C43       1.0  0.6499472795125101  0.5006515608334396  0.7512994654782688  1.0000
  C   C44       1.0  0.42705882063329176  0.5014282779473122  0.8165225481335056  1.0000
  C   C45       1.0  0.42506911203534514  0.5013696226671058  0.7742697867078547  1.0000
  C   C46       1.0  0.3501316454910253  0.5009876210291822  0.7523398307156626  1.0000
  C   C47       1.0  0.4992499488201148  0.5007681011522821  0.6248925407870018  1.0000
  C   C48       1.0  0.49980792171524513  0.5009587427273703  0.7097639491051453  1.0000
  C   C49       1.0  0.5006803024544342  0.5016618720332603  0.837209746866904  1.0000
  C   C50       1.0  0.5000607455540094  0.5012399017734522  0.7523340032744841  1.0000
  C   C51       1.0  0.498708206650825  0.5021891900130484  0.0858654434730184  1.0000
  C   C52       1.0  0.4235999513091144  0.5023963149460614  0.10601644706775909  1.0000
  C   C53       1.0  0.4209708579519856  0.5021832116384316  0.1477450734397934  1.0000
  C   C54       1.0  0.4932987964325407  0.5018626810874737  0.1703346956563863  1.0000
  C   C55       1.0  0.5688920308734566  0.5019089927331206  0.1496226216787804  1.0000
  C   C56       1.0  0.571032669948373  0.5020775221071291  0.1076804519544297  1.0000
  C   C57       1.0  0.49471252914234054  0.5015700768841143  0.2127944951703569  1.0000
  C   C58       1.0  0.5051861053211794  0.5012984700929976  0.24938318159027523  1.0000
  C   C59       1.0  0.5066273995683446  0.5007800937390526  0.2918337043318431  1.0000
  C   C60       1.0  0.4310399416121413  0.5004510209450573  0.3125511687857738  1.0000
  C   C61       1.0  0.4289330124706012  0.49998016027122105  0.35448719671891377  1.0000
  C   C62       1.0  0.5012721618443834  0.4997656636686542  0.3762920148318116  1.0000
  C   C63       1.0  0.5763773138330066  0.5001553523133994  0.3561336004090236  1.0000
  C   C64       1.0  0.5789732907347798  0.5006864328425636  0.31440723347819954  1.0000
  C   C65       1.0  0.7484781767887085  0.5498606631661077  0.9359343416931694  1.0000
  C   C66       1.0  0.8323422739879689  0.5529770643220074  0.9345647336830964  1.0000
  C   C67       1.0  0.8779437359520088  0.5061739929612372  0.9599218126638432  1.0000
  C   C68       1.0  0.8354216462654378  0.4573690408451937  0.9860347130243311  1.0000
  C   C69       1.0  0.7506336195294453  0.4578256742517651  0.9854353958767418  1.0000
  C   C70       1.0  0.9634650605074526  0.5055908177955502  0.9605396291067977  1.0000
  C   C71       1.0  0.03724744801404971  0.5002913616327547  0.9634758471567153  1.0000
  C   C72       1.0  0.12277579615126652  0.4995768356943415  0.9639391294547082  1.0000
  C   C73       1.0  0.1652137066040282  0.5483516301555653  0.9377648367112456  1.0000
  C   C74       1.0  0.2499961440121156  0.5476652977978985  0.9382027938951225  1.0000
  C   C75       1.0  0.2523468273877257  0.4553284512093825  0.9875287721746133  1.0000
  C   C76       1.0  0.16847778862884868  0.4525529692080069  0.9891313950435573  1.0000
  C   C77       1.0  0.4986124209304777  0.7327656642621819  0.9609062937503339  1.0000
  C   C78       1.0  0.42374634723147864  0.7703851634780888  0.9608791504870383  1.0000
  C   C79       1.0  0.42162852926600886  0.8477917713549914  0.9610029768707377  1.0000
  C   C80       1.0  0.49419511689649215  0.8894828196149405  0.9611322242338929  1.0000
  C   C81       1.0  0.5695470641143529  0.8508270920084584  0.9610512131242146  1.0000
  C   C82       1.0  0.5712098045737194  0.7730116047218869  0.9610178383929052  1.0000
  C   C83       1.0  0.4957433137817873  0.9682477747229682  0.9613490366459274  1.0000
  C   C84       1.0  0.5054799711024245  0.03623139338112219  0.9614573213376261  1.0000
  C   C85       1.0  0.506466652958359  0.1150021239426096  0.9616376373344195  1.0000
  C   C86       1.0  0.43078061757555014  0.1531047371222343  0.9616992503362454  1.0000
  C   C87       1.0  0.4284094032936919  0.23091546175489702  0.9618605000487719  1.0000
  C   C88       1.0  0.5006380358465634  0.2717371061047231  0.9619597145760324  1.0000
  C   C89       1.0  0.5758130027513532  0.23465728372130465  0.9618071468897682  1.0000
  C   C90       1.0  0.5786361133579235  0.157266075364177  0.9616603040768297  1.0000
  N   N1        1.0  0.2908365791813168  0.5005468185753799  0.5011785307420595  1.0000
  N   N2        1.0  0.708563831448565  0.4998335750565773  0.4995238875033436  1.0000
  N   N3        1.0  0.7091863810479566  0.5029621993460367  0.9609585382903632  1.0000
  N   N4        1.0  0.29151561951780286  0.5021855978995192  0.9624627972298541  1.0000
  O   O1        1.0  0.5674949538912273  0.6133034951070542  0.50168174310366  1.0000
  O   O2        1.0  0.4298929802685692  0.6153960758361238  0.5008708299098075  1.0000
  O   O3        1.0  0.4304725022413081  0.502346136621064  0.5622666595696729  1.0000
  O   O4        1.0  0.5680629229209515  0.4991843922299141  0.5621853726955948  1.0000
  O   O5        1.0  0.43427371286974653  0.3874255116881215  0.5000008203532572  1.0000
  O   O6        1.0  0.5718684686477502  0.3842157031169506  0.4998929118319566  1.0000
  O   O7        1.0  0.5668392155900364  0.4985447997793101  0.4394880291870821  1.0000
  O   O8        1.0  0.4292419103418227  0.5000952746723256  0.4383662387171441  1.0000
  O   O9        1.0  0.432318735295496  0.6155972500556504  0.9604885743243159  1.0000
  O   O10       1.0  0.5699107357189632  0.617442635353349  0.9612844169967049  1.0000
  O   O11       1.0  0.569488897865952  0.5035764162330807  0.8998372833376252  1.0000
  O   O12       1.0  0.43191408596882047  0.5005448168359549  0.8999289438150981  1.0000
  O   O13       1.0  0.5659023921441033  0.3894528990134916  0.9620584719742453  1.0000
  O   O14       1.0  0.4283129925009704  0.3864917088839235  0.9621135593206135  1.0000
  O   O15       1.0  0.43310588102511355  0.501398891521255  0.022661116675998  1.0000
  O   O16       1.0  0.5706930054497903  0.5029068098569168  0.023773723158818396  1.0000
  O   O17       1.0  0.1271307167386198  0.40706062707643303  0.4504082721644167  1.0000
  O   O18       1.0  0.8726230912647708  0.5932698571425091  0.549990159442828  1.0000
  O   O19       1.0  0.3590912378522404  0.8872891394644498  0.49995060430989474  1.0000
  O   O20       1.0  0.6406833700093131  0.11208117472749278  0.49976186536516554  1.0000
  O   O21       1.0  0.640232130148405  0.5017169808195232  0.1702095867809561  1.0000
  O   O22       1.0  0.35970836548366236  0.5006245874569544  0.2919551129738949  1.0000
  O   O23       1.0  0.873302024401717  0.41023605682716635  0.0116116929525631  1.0000
  O   O24       1.0  0.12731724835911956  0.5955979524317885  0.9122622017630349  1.0000
  O   O25       1.0  0.6411174590258497  0.888844812492664  0.9610349614134392  1.0000
  O   O26       1.0  0.359526319440242  0.11459736099502751  0.9615711575652028  1.0000
  O   O27       1.0  0.2766343874019555  0.5008146096307726  0.77165585808401  1.0000
  O   O28       1.0  0.2762249553839879  0.5001732800308006  0.6918584588104721  1.0000
  O   O29       1.0  0.7236639545673567  0.5003125809544926  0.7701802463822887  1.0000
  O   O30       1.0  0.7231999583475216  0.5001445922292903  0.6904186185049568  1.0000
