data_image0
_chemical_formula_structural       Zn2H36C42N4O12
_chemical_formula_sum              "Zn2 H36 C42 N4 O12"
_cell_length_a       8.27895986977967
_cell_length_b       10.193962567205357
_cell_length_c       13.22756808348861
_cell_angle_alpha    67.17985962201632
_cell_angle_beta     79.49072021666181
_cell_angle_gamma    79.34205809798257

_space_group_name_H-M_alt    "P 1"
_space_group_IT_number       1

loop_
  _space_group_symop_operation_xyz
  'x, y, z'

loop_
  _atom_site_type_symbol
  _atom_site_label
  _atom_site_symmetry_multiplicity
  _atom_site_fract_x
  _atom_site_fract_y
  _atom_site_fract_z
  _atom_site_occupancy
  Zn  Zn1       1.0  0.05509397804515004  0.5701900341186812  0.8442029170306711  1.0000
  Zn  Zn2       1.0  0.9449099446926041  0.4298061737545353  0.1557979078104026  1.0000
  H   H1        1.0  0.7362344597049599  0.7403116412289916  0.9394100909411665  1.0000
  H   H2        1.0  0.26375650175290843  0.25966610816134755  0.06059839093657622  1.0000
  H   H3        1.0  0.5139817617948309  0.791551200791602  0.661120139636772  1.0000
  H   H4        1.0  0.48601321083511095  0.20845459333468594  0.3388774621359119  1.0000
  H   H5        1.0  0.8244747375427863  0.6255159493768331  0.6581412651707127  1.0000
  H   H6        1.0  0.1755176355592241  0.3744757922435155  0.34186299048146657  1.0000
  H   H7        1.0  0.3436637981802377  0.8042874841231081  0.8852007364703668  1.0000
  H   H8        1.0  0.656334903113418  0.19571829944533184  0.11479944737801162  1.0000
  H   H9        1.0  0.3955978926257799  0.960914803535047  0.7740942365627249  1.0000
  H   H10       1.0  0.6044010627914318  0.03908141350797929  0.22590339846044571  1.0000
  H   H11       1.0  0.5903574267582599  0.08142481775115579  0.7156080823947022  1.0000
  H   H12       1.0  0.40964348299262116  0.9185746198910176  0.2843898974424946  1.0000
  H   H13       1.0  0.6717913959559781  0.21144829053727676  0.7419789392526328  1.0000
  H   H14       1.0  0.32821160437545427  0.7885533392622788  0.2580173990749515  1.0000
  H   H15       1.0  0.4587466847449235  0.23187175855702682  0.7291962061595927  1.0000
  H   H16       1.0  0.5412547028898659  0.7681320445138055  0.2707974262807583  1.0000
  H   H17       1.0  0.40509935237432176  0.6650014739973641  0.02765707095942105  1.0000
  H   H18       1.0  0.5948980848760003  0.33500433762697657  0.9723409874486678  1.0000
  H   H19       1.0  0.2872096860134051  0.7007011320976273  0.14201476623308207  1.0000
  H   H20       1.0  0.7127825114226027  0.2993067455800683  0.8579840750043746  1.0000
  H   H21       1.0  0.5006554330547885  0.6378722667083138  0.14447577800690684  1.0000
  H   H22       1.0  0.49933781601812643  0.36213669968709167  0.8555226219002636  1.0000
  H   H23       1.0  0.08848068438514649  0.9601319323373256  0.8229481311396472  1.0000
  H   H24       1.0  0.9115122103574934  0.03987165490961079  0.17705187099169  1.0000
  H   H25       1.0  0.9232905341175836  0.7947860661075691  0.17178120737123248  1.0000
  H   H26       1.0  0.0767066907263114  0.2052208622903818  0.8282142842662737  1.0000
  H   H27       1.0  0.21859313289962762  0.4773214245849287  0.47213837054871993  1.0000
  H   H28       1.0  0.7814176790895075  0.5226855632473926  0.5278615297060797  1.0000
  H   H29       1.0  0.5385414435755677  0.5375771982569975  0.6680493464974901  1.0000
  H   H30       1.0  0.4614667732232578  0.462438324882889  0.3319499007744469  1.0000
  H   H31       1.0  0.9375995858500306  0.649847253745939  0.3743596026515875  1.0000
  H   H32       1.0  0.06239863418078784  0.35015329789376176  0.6256345949305884  1.0000
  H   H33       1.0  0.17881492017875192  0.7820740109914793  0.4847041311592336  1.0000
  H   H34       1.0  0.8211951774728803  0.21791469418007378  0.5153011562150099  1.0000
  H   H35       1.0  0.7261424479523768  0.07046658384944489  0.4295060107084937  1.0000
  H   H36       1.0  0.27386079718829864  0.9295263606467469  0.5704973536078911  1.0000
  C   C1        1.0  0.7216546625477988  0.731605204932485  0.8626992353889594  1.0000
  C   C2        1.0  0.2783387565141595  0.2683801010417213  0.1373067616040444  1.0000
  C   C3        1.0  0.607784812972632  0.756663374060153  0.7166176879841829  1.0000
  C   C4        1.0  0.3922047341624265  0.24333050999948813  0.2833847717366211  1.0000
  C   C5        1.0  0.7591403485666391  0.6742265967603698  0.7162192214787384  1.0000
  C   C6        1.0  0.24084926905099732  0.32575967460360283  0.2837899740073908  1.0000
  C   C7        1.0  0.4404992915496777  0.8752883511855246  0.8477640911208866  1.0000
  C   C8        1.0  0.5594988176207635  0.12471319945200318  0.15223361048300896  1.0000
  C   C9        1.0  0.47662200663040727  0.9368523182904976  0.9274214144138995  1.0000
  C   C10       1.0  0.5233752182134879  0.06315461010745338  0.07257407722360652  1.0000
  C   C11       1.0  0.5294774004227988  0.07392049585716619  0.8847851210682904  1.0000
  C   C12       1.0  0.47051577249058607  0.9260885588700625  0.11520872574465824  1.0000
  C   C13       1.0  0.45047282012458106  0.8609169960280878  0.042417079400898866  1.0000
  C   C14       1.0  0.5495182622082454  0.1390898665417666  0.9575784089216628  1.0000
  C   C15       1.0  0.5643947645032483  0.15288006712999894  0.762144865306489  1.0000
  C   C16       1.0  0.43560633794449904  0.847125807546355  0.2378519809321063  1.0000
  C   C17       1.0  0.40825127793053195  0.7090690954783979  0.09062363211752003  1.0000
  C   C18       1.0  0.5917434949862397  0.290937800699524  0.9093721617336217  1.0000
  C   C19       1.0  0.016563972401108636  0.7191566967441075  0.9945432687299844  1.0000
  C   C20       1.0  0.9834329742720488  0.2808447641735511  0.005458378225917203  1.0000
  C   C21       1.0  0.008291799586324047  0.8644106017647318  0.9972528402800125  1.0000
  C   C22       1.0  0.9917079533442321  0.13559627052141107  0.0027469022380798955  1.0000
  C   C23       1.0  0.050243738915192244  0.9789917288165383  0.899880964722499  1.0000
  C   C24       1.0  0.9497586092056738  0.021006608162046796  0.10011943077846298  1.0000
  C   C25       1.0  0.9569222830785833  0.8852813697461244  0.09749837028296333  1.0000
  C   C26       1.0  0.04307511041501041  0.1147169616802941  0.9024995942491145  1.0000
  C   C27       1.0  0.22187144322387553  0.5150378085370804  0.6642400453178043  1.0000
  C   C28       1.0  0.7781302202836147  0.48496480415028725  0.33575994813831056  1.0000
  C   C29       1.0  0.3646985687855562  0.5073483121216071  0.5789259357513076  1.0000
  C   C30       1.0  0.6353074939664298  0.4926650924707586  0.42107115878505397  1.0000
  C   C31       1.0  0.3423281606794859  0.485305375097468  0.4845222553355555  1.0000
  C   C32       1.0  0.6576779331359718  0.5147155244147895  0.5154741742277693  1.0000
  C   C33       1.0  0.5229455680747465  0.5221586275184222  0.5936800173577907  1.0000
  C   C34       1.0  0.4770628554535392  0.47784825448400864  0.40632397935583253  1.0000
  C   C35       1.0  0.8830054241617943  0.8305938253974005  0.4023953811858476  1.0000
  C   C36       1.0  0.11699421586880021  0.16939811593683624  0.5976026558821631  1.0000
  C   C37       1.0  0.9460475864934923  0.9174882707933562  0.4520933219545995  1.0000
  C   C38       1.0  0.053959922984120105  0.0825014305999474  0.5479142539569182  1.0000
  C   C39       1.0  0.10094446615548244  0.8773765350433818  0.49170456354271874  1.0000
  C   C40       1.0  0.8990641804329017  0.12261328551374355  0.5082975493187263  1.0000
  C   C41       1.0  0.8460019496281107  0.040665433126640886  0.4606177899480884  1.0000
  C   C42       1.0  0.1540012955125648  0.9593275113695505  0.5393855743682894  1.0000
  N   N1        1.0  0.829021186821123  0.6593662017311173  0.8079934074690486  1.0000
  N   N2        1.0  0.1709660770365033  0.3406190531369687  0.1920118273599698  1.0000
  N   N3        1.0  0.5870791565619414  0.7920920365146314  0.8094124437845454  1.0000
  N   N4        1.0  0.4129181077010671  0.20789978426774514  0.19059044859132973  1.0000
  O   O1        1.0  0.11582822555896401  0.688097170197082  0.9186471956033346  1.0000
  O   O2        1.0  0.8841630184072644  0.3119086344870538  0.08134782409365475  1.0000
  O   O3        1.0  0.9187984782206303  0.6366503812140181  0.06724068735432802  1.0000
  O   O4        1.0  0.08121145779759331  0.3633393818432537  0.9327650686454875  1.0000
  O   O5        1.0  0.24088168534751742  0.5791713162397655  0.7276358953833297  1.0000
  O   O6        1.0  0.7591225132629376  0.4208237012499793  0.27237129047351527  1.0000
  O   O7        1.0  0.09115961098633113  0.46218884892972756  0.6723891053845467  1.0000
  O   O8        1.0  0.9088480807929287  0.5378139620834901  0.3276040617451771  1.0000
  O   O9        1.0  0.9848425270024423  0.7114765216282136  0.4051354950104198  1.0000
  O   O10       1.0  0.01516324284596489  0.28851550025608924  0.5948617865235022  1.0000
  O   O11       1.0  0.7498509343250036  0.865824759465248  0.36371112465981537  1.0000
  O   O12       1.0  0.2501767596043436  0.13417611992689155  0.6362824817548686  1.0000
