data_image0
_chemical_formula_structural       Gd2H28C24N18O14
_chemical_formula_sum              "Gd2 H28 C24 N18 O14"
_cell_length_a       8.676363008891217
_cell_length_b       9.814897155968808
_cell_length_c       10.987277472128387
_cell_angle_alpha    81.69322928264883
_cell_angle_beta     86.53365843093574
_cell_angle_gamma    76.7728110283038

_space_group_name_H-M_alt    "P 1"
_space_group_IT_number       1

loop_
  _space_group_symop_operation_xyz
  'x, y, z'

loop_
  _atom_site_type_symbol
  _atom_site_label
  _atom_site_symmetry_multiplicity
  _atom_site_fract_x
  _atom_site_fract_y
  _atom_site_fract_z
  _atom_site_occupancy
  Gd  Gd1       1.0  0.3873806763935619  0.03230928855609961  0.1575771552232865  1.0000
  Gd  Gd2       1.0  0.6126197960676194  0.9676903313889302  0.8424224353836962  1.0000
  H   H1        1.0  0.1396052633344596  0.13838561363518662  0.3488398046344797  1.0000
  H   H2        1.0  0.8603955611525933  0.8616171807603266  0.6511602619826035  1.0000
  H   H3        1.0  0.0580202847282507  0.1891403139296202  0.2159276073475311  1.0000
  H   H4        1.0  0.9419796504609864  0.8108614231687741  0.7840726376120912  1.0000
  H   H5        1.0  0.11363672890563953  0.5157126717813155  0.7477079341253017  1.0000
  H   H6        1.0  0.8863628684719628  0.4842858813757476  0.252290015125574  1.0000
  H   H7        1.0  0.19425280700225764  0.8058079845022946  0.9713643410440866  1.0000
  H   H8        1.0  0.8057458868633134  0.1941895208484823  0.028635606247973996  1.0000
  H   H9        1.0  0.0366490905951053  0.0066602660915436014  0.6210298746778236  1.0000
  H   H10       1.0  0.9633506008330598  0.9933425129745644  0.3789675129854899  1.0000
  H   H11       1.0  0.1730034466251027  0.3819463364094844  0.46990876982115276  1.0000
  H   H12       1.0  0.8269985180279491  0.6180564685700177  0.530093065900374  1.0000
  H   H13       1.0  0.21123188833362855  0.7298764735438682  0.4927798869570664  1.0000
  H   H14       1.0  0.7887662540457683  0.2701231584511207  0.5072225343862725  1.0000
  H   H15       1.0  0.3776181770186966  0.6046028247803437  0.4430728717701342  1.0000
  H   H16       1.0  0.6223805026326373  0.3953946900612736  0.5569288952205724  1.0000
  H   H17       1.0  0.672188298823471  0.5882585540720842  0.7832320589042254  1.0000
  H   H18       1.0  0.32781421731574056  0.4117421242632134  0.21676730276602998  1.0000
  H   H19       1.0  0.37141146148461956  0.9413518001719723  0.5940362241330064  1.0000
  H   H20       1.0  0.6285857987040798  0.05864676978046653  0.4059654657035452  1.0000
  H   H21       1.0  0.5257654228525579  0.39337763676109455  0.8473911186284653  1.0000
  H   H22       1.0  0.4742347916333217  0.6066230346424887  0.15260743438085464  1.0000
  H   H23       1.0  0.3731128585428464  0.34054062922252376  0.7775341955952512  1.0000
  H   H24       1.0  0.6268876210254533  0.6594589859770822  0.22246448516241202  1.0000
  H   H25       1.0  0.9657418547022162  0.07393560769532571  0.8429846335602919  1.0000
  H   H26       1.0  0.03425862486607661  0.9260640075042802  0.15701404719737871  1.0000
  H   H27       1.0  9.257342269109015e-05  0.23730211349445096  0.8717422027551152  1.0000
  H   H28       1.0  0.9999067304440459  0.762697514848263  0.12825925814470912  1.0000
  C   C1        1.0  0.1608735072326154  0.5702854724592399  0.8111228309598958  1.0000
  C   C2        1.0  0.8391249286576468  0.42971308435009814  0.18887607873450205  1.0000
  C   C3        1.0  0.2050119621822049  0.7129125544395052  0.9259039848544502  1.0000
  C   C4        1.0  0.7949865606515091  0.28709023302430137  0.07409527310170462  1.0000
  C   C5        1.0  0.0704278128711167  0.10784296440876064  0.6062876446708073  1.0000
  C   C6        1.0  0.9295732838054676  0.8921587690373656  0.39371163984529994  1.0000
  C   C7        1.0  0.13682006315169556  0.29917030647378345  0.5339660994684081  1.0000
  C   C8        1.0  0.863181291500183  0.7008303755137889  0.4660342226453622  1.0000
  C   C9        1.0  0.3604847531935746  0.8182517103504026  0.35518691882548836  1.0000
  C   C10       1.0  0.6395142998049721  0.18174896470544874  0.6448125946273464  1.0000
  C   C11       1.0  0.33828832729603414  0.7121051054008234  0.4676001301815162  1.0000
  C   C12       1.0  0.6617118800827343  0.28789557074817657  0.532399332677123  1.0000
  C   C13       1.0  0.5888991114835845  0.6538262247060943  0.717219558357776  1.0000
  C   C14       1.0  0.41110225027541253  0.34617445253605444  0.2827798539066748  1.0000
  C   C15       1.0  0.4349447047123506  0.8346805998122095  0.6247890737040009  1.0000
  C   C16       1.0  0.565054606261498  0.1653190237850879  0.3752114773464967  1.0000
  C   C17       1.0  0.39719819631901043  0.2675916383499981  0.9697643526431037  1.0000
  C   C18       1.0  0.6028022761421709  0.7324079815950243  0.030235237963879134  1.0000
  C   C19       1.0  0.40411189748775206  0.37908340629719117  0.8597877433634338  1.0000
  C   C20       1.0  0.5958883169981277  0.6209172651063853  0.1402108096458861  1.0000
  C   C21       1.0  0.2062789363341153  0.06519726487643851  0.8909588925826384  1.0000
  C   C22       1.0  0.7937206397221529  0.9348013025168884  0.10904178621620278  1.0000
  C   C23       1.0  0.05102279047655859  0.1422782280883084  0.8289100529500003  1.0000
  C   C24       1.0  0.9489779399599313  0.8577203403981668  0.17109057525465232  1.0000
  N   N1        1.0  0.42821493168019487  0.720680687355646  0.5723510627738689  1.0000
  N   N2        1.0  0.5717857916491839  0.2793178858762389  0.427650475280103  1.0000
  N   N3        1.0  0.5271402325424789  0.6033630274052231  0.6302256236159067  1.0000
  N   N4        1.0  0.4728602328115912  0.39663659728522305  0.3697748768404026  1.0000
  N   N5        1.0  0.535465098106087  0.7959024931375327  0.7173781534281004  1.0000
  N   N6        1.0  0.4645353672479828  0.20409713155291348  0.2826223470282088  1.0000
  N   N7        1.0  0.29655576436805114  0.5130769840062116  0.8708130378676486  1.0000
  N   N8        1.0  0.7034426644151068  0.4869215775485429  0.1291867816760686  1.0000
  N   N9        1.0  0.07245564067735437  0.18375641546962385  0.6983578756542599  1.0000
  N   N10       1.0  0.9275454488921112  0.816245322721919  0.3016423187111599  1.0000
  N   N11       1.0  0.09969845027750067  0.6978808979000563  0.843865820885405  1.0000
  N   N12       1.0  0.9002990892078415  0.30211660635757914  0.15613417700085108  1.0000
  N   N13       1.0  0.3265100036002832  0.6027045805606834  0.9451344592823858  1.0000
  N   N14       1.0  0.6734895937773118  0.3972939725963797  0.054863489968497034  1.0000
  N   N15       1.0  0.1101153856288732  0.1783866147539754  0.4998145420384644  1.0000
  N   N16       1.0  0.889884556667482  0.8216151175990022  0.5001847930718312  1.0000
  N   N17       1.0  0.11581572243076722  0.3067185950771005  0.6540273060346136  1.0000
  N   N18       1.0  0.8841867866013328  0.6932820880036132  0.34597296548496087  1.0000
  O   O1        1.0  0.14632703178475737  0.11680431782875897  0.2619474947029303  1.0000
  O   O2        1.0  0.8536749470825171  0.8831984776599029  0.7380525213199575  1.0000
  O   O3        1.0  0.4414883430025186  0.9091184966863183  0.3640266950472864  1.0000
  O   O4        1.0  0.5585092834262825  0.09088323822577851  0.6359736511007199  1.0000
  O   O5        1.0  0.2946268673926228  0.8119884113500151  0.2567972718426502  1.0000
  O   O6        1.0  0.7053727157707498  0.18801015129788823  0.7432024971068785  1.0000
  O   O7        1.0  0.499107282162477  0.1489833222183492  0.9691296980689684  1.0000
  O   O8        1.0  0.5008929181091801  0.8510173586760675  0.03087067463899727  1.0000
  O   O9        1.0  0.2957319575228822  0.2874320229065789  0.05520572588957861  1.0000
  O   O10       1.0  0.704269411343219  0.7125686495901464  0.9447927765255457  1.0000
  O   O11       1.0  0.196396950495064  0.04059860814592041  0.0077221322847549016  1.0000
  O   O12       1.0  0.8036023604787843  0.9594010154513768  0.9922784187657497  1.0000
  O   O13       1.0  0.3277766012911343  0.03325249749972411  0.8227667535256202  1.0000
  O   O14       1.0  0.6722229676580157  0.9667460746390191  0.1772348351225475  1.0000
