data_image0
_chemical_formula_structural       Cd4H40C36N8O24
_chemical_formula_sum              "Cd4 H40 C36 N8 O24"
_cell_length_a       7.532073892120519
_cell_length_b       7.532049982956211
_cell_length_c       21.76304261500655
_cell_angle_alpha    89.99998782763697
_cell_angle_beta     90.00008857099651
_cell_angle_gamma    91.42410078037356

_space_group_name_H-M_alt    "P 1"
_space_group_IT_number       1

loop_
  _space_group_symop_operation_xyz
  'x, y, z'

loop_
  _atom_site_type_symbol
  _atom_site_label
  _atom_site_symmetry_multiplicity
  _atom_site_fract_x
  _atom_site_fract_y
  _atom_site_fract_z
  _atom_site_occupancy
  Cd  Cd1       1.0  0.6511370022176238  0.7415921075263511  0.7071825158708336  1.0000
  Cd  Cd2       1.0  0.2584079569771092  0.34886098835826823  0.2928171098250374  1.0000
  Cd  Cd3       1.0  0.7584083998778511  0.8488619957422684  0.20718306041993623  1.0000
  Cd  Cd4       1.0  0.15113796183953107  0.24159375177852377  0.7928165652762118  1.0000
  H   H1        1.0  0.2526750740098294  0.015988317262618103  0.39946259430815456  1.0000
  H   H2        1.0  0.9840150343794962  0.7473267005974192  0.6005380497541067  1.0000
  H   H3        1.0  0.48401237244996764  0.24732431813529124  0.8994635070797443  1.0000
  H   H4        1.0  0.7526749683881846  0.5159867245147112  0.10053759647648519  1.0000
  H   H5        1.0  0.3824989288383449  0.649800819788325  0.6020749011782911  1.0000
  H   H6        1.0  0.3501994297475052  0.6175049232474449  0.39792558978549414  1.0000
  H   H7        1.0  0.8502020544545703  0.1175056882467942  0.1020741866343755  1.0000
  H   H8        1.0  0.8824949394847226  0.14980278444883058  0.8979266081008033  1.0000
  H   H9        1.0  0.2984407359872776  0.411803930553148  0.5277010952856074  1.0000
  H   H10       1.0  0.588194287833943  0.7015595292033298  0.4722994424400041  1.0000
  H   H11       1.0  0.08819794039268912  0.20155731499853854  0.027700187425537596  1.0000
  H   H12       1.0  0.7984382984846691  0.9118021560820961  0.9722998908059636  1.0000
  H   H13       1.0  0.7308226449266827  0.1074523750895295  0.5990621079487397  1.0000
  H   H14       1.0  0.8925433390637353  0.2691744725624687  0.4009368155969071  1.0000
  H   H15       1.0  0.3925460625011965  0.7691751700959415  0.09906481076259148  1.0000
  H   H16       1.0  0.23082412868132712  0.6074555792301267  0.9009370254741995  1.0000
  H   H17       1.0  0.7977055845773509  0.3583137383491746  0.6711159206717738  1.0000
  H   H18       1.0  0.6416811130246104  0.20229701398170613  0.3288838659751292  1.0000
  H   H19       1.0  0.1416828288608869  0.702297678173345  0.1711176305166759  1.0000
  H   H20       1.0  0.2977054208561968  0.8583169848094484  0.8288832308423649  1.0000
  H   H21       1.0  0.5508347141419137  0.9760883991372326  0.5153329275316307  1.0000
  H   H22       1.0  0.0239123351455817  0.4491644100842578  0.4846670559565567  1.0000
  H   H23       1.0  0.5239131037449029  0.9491602014580919  0.0153343598264541  1.0000
  H   H24       1.0  0.050835123108683405  0.47608729102476843  0.9846665426513893  1.0000
  H   H25       1.0  0.6642315131223313  0.7095464042863993  0.8537033933790351  1.0000
  H   H26       1.0  0.29045559414782934  0.33576961643716885  0.1462967055241435  1.0000
  H   H27       1.0  0.7904565751594748  0.8357665627053166  0.35370256385743903  1.0000
  H   H28       1.0  0.16423045712245005  0.2095468018936373  0.6462966160566664  1.0000
  H   H29       1.0  0.6686993068738546  0.5083650784089926  0.8987136522260284  1.0000
  H   H30       1.0  0.49163498814355944  0.3313027302450635  0.10128604965243679  1.0000
  H   H31       1.0  0.9916348414770514  0.8312996573697972  0.3987124090090147  1.0000
  H   H32       1.0  0.16869801352257957  0.008364171585910199  0.6012863738800576  1.0000
  H   H33       1.0  0.5460030458545263  0.0204048049999344  0.7700289646452702  1.0000
  H   H34       1.0  0.9795939243459841  0.4539965492041063  0.2299703886952855  1.0000
  H   H35       1.0  0.47959342430854696  0.9539971704403098  0.2700289737892518  1.0000
  H   H36       1.0  0.046002442933158215  0.520408103393123  0.729970994768152  1.0000
  H   H37       1.0  0.759665402287034  0.024879572279225205  0.7670583893896037  1.0000
  H   H38       1.0  0.9751206064744127  0.24033392359360303  0.23294102749665058  1.0000
  H   H39       1.0  0.475117475666721  0.7403358834293029  0.2670583477452624  1.0000
  H   H40       1.0  0.25966481255611745  0.5248828691127159  0.732941684357094  1.0000
  C   C1        1.0  0.45687610896440134  0.5279575988144102  0.5995628686185127  1.0000
  C   C2        1.0  0.47204099239081654  0.5431274221182677  0.4004376819510682  1.0000
  C   C3        1.0  0.9720396233342827  0.04312820190259001  0.09956216512441782  1.0000
  C   C4        1.0  0.9568722057501946  0.027962218280968898  0.9004382297208479  1.0000
  C   C5        1.0  0.4107612186784523  0.39497186373289134  0.5583103570794776  1.0000
  C   C6        1.0  0.6050231622721969  0.5892387711826003  0.4416897603836247  1.0000
  C   C7        1.0  0.10502429567477381  0.08923654988380039  0.05831034597486  1.0000
  C   C8        1.0  0.9107615252936585  0.8949780647300472  0.9416906904776353  1.0000
  C   C9        1.0  0.5100908312280055  0.23975055452633848  0.5562513940486012  1.0000
  C   C10       1.0  0.760248063832215  0.4899099278045611  0.44374971972998617  1.0000
  C   C11       1.0  0.26025332722713307  0.9899132949639551  0.05625181998045999  1.0000
  C   C12       1.0  0.010083099840656492  0.7397497834230861  0.9437480710363602  1.0000
  C   C13       1.0  0.651700430496483  0.226522443653991  0.5978926688051942  1.0000
  C   C14       1.0  0.7734712072370302  0.3482988542391184  0.4021071135237334  1.0000
  C   C15       1.0  0.27347400046510023  0.8483022085117894  0.09789490282287258  1.0000
  C   C16       1.0  0.1516966092988739  0.7265256651352059  0.9021068732065557  1.0000
  C   C17       1.0  0.6892082411885029  0.3655805422046824  0.6381613999361591  1.0000
  C   C18       1.0  0.6344163790219071  0.31079610923031  0.3618383515453445  1.0000
  C   C19       1.0  0.13441665848753104  0.8107981232754253  0.13816313335021846  1.0000
  C   C20       1.0  0.18920556872480182  0.8655837803395912  0.8618390713260381  1.0000
  C   C21       1.0  0.4729800578467265  0.09712094179310779  0.5126458135529006  1.0000
  C   C22       1.0  0.9028725797290847  0.527022068168499  0.48735533227792155  1.0000
  C   C23       1.0  0.40287882051176643  0.02701985289085229  0.0126458573104316  1.0000
  C   C24       1.0  0.9729817822786658  0.5971231301391453  0.9873534505442405  1.0000
  C   C25       1.0  0.4910226881100357  0.5029358817974838  0.8204396230198225  1.0000
  C   C26       1.0  0.49706544251929335  0.5089787970853122  0.1795600265350785  1.0000
  C   C27       1.0  0.9970636142024746  0.0089754812023131  0.3204379984129061  1.0000
  C   C28       1.0  0.9910203467329454  0.0029366240682406996  0.6795610359236832  1.0000
  C   C29       1.0  0.6620145265328432  0.5634384788189095  0.8522780457978882  1.0000
  C   C30       1.0  0.43656245780228903  0.33798643188679023  0.1477211778258791  1.0000
  C   C31       1.0  0.9365621424426324  0.8379847114542898  0.352276791314921  1.0000
  C   C32       1.0  0.16201351435503145  0.063440203740214  0.6477219728139118  1.0000
  C   C33       1.0  0.8253044656817822  0.5065605225759384  0.8159522885668904  1.0000
  C   C34       1.0  0.49344061902468905  0.1746938000721769  0.1840474614324137  1.0000
  C   C35       1.0  0.9934374498001122  0.6746907796272907  0.31595054981332277  1.0000
  C   C36       1.0  0.3253075974101947  0.006562214958762499  0.6840478217023004  1.0000
  N   N1        1.0  0.5946460386271754  0.5150094372936636  0.638913561882532  1.0000
  N   N2        1.0  0.4849901279481303  0.40535441304212577  0.3610865749767668  1.0000
  N   N3        1.0  0.9849930352675573  0.9053594314798442  0.13891463183338  1.0000
  N   N4        1.0  0.09464062620928361  0.0150097400827747  0.8610864240142037  1.0000
  N   N5        1.0  0.3535937941720563  0.1176705965439808  0.470810637788773  1.0000
  N   N6        1.0  0.8823292036152709  0.6464067393019307  0.5291886275568984  1.0000
  N   N7        1.0  0.38233084110566296  0.14640430591271067  0.9708124223790048  1.0000
  N   N8        1.0  0.8535907166710219  0.6176690502339995  0.029189140439299894  1.0000
  O   O1        1.0  0.33746938955247435  0.974476225463995  0.43194884945494044  1.0000
  O   O2        1.0  0.025523055449816902  0.6625325373970838  0.568051529202684  1.0000
  O   O3        1.0  0.525521722267662  0.16252916296724612  0.931948868632439  1.0000
  O   O4        1.0  0.8374704981579981  0.4744756847530027  0.068051354302554  1.0000
  O   O5        1.0  0.8528857336373292  0.5753803745620445  0.7628590739588643  1.0000
  O   O6        1.0  0.4246206783678517  0.14711287136177018  0.2371397445241357  1.0000
  O   O7        1.0  0.924615908370882  0.6471085552183878  0.2628591507384925  1.0000
  O   O8        1.0  0.35288910111268024  0.07538203906913307  0.7371401272388026  1.0000
  O   O9        1.0  0.44264520760710013  0.5866930402459617  0.7728906490347499  1.0000
  O   O10       1.0  0.4133095012162259  0.5573557124719882  0.22710850088714093  1.0000
  O   O11       1.0  0.9133075367577917  0.0573550776785012  0.2728899351798901  1.0000
  O   O12       1.0  0.942645694939671  0.08669242051202988  0.7271095185135079  1.0000
  O   O13       1.0  0.9244114010847683  0.39466283466120444  0.8409851240351712  1.0000
  O   O14       1.0  0.6053422679177558  0.07559246826432539  0.1590137710731199  1.0000
  O   O15       1.0  0.10533798785575502  0.5755890815247753  0.3409840389504595  1.0000
  O   O16       1.0  0.4244117356485476  0.8946635096955049  0.6590150118795748  1.0000
  O   O17       1.0  0.40313429244987026  0.3710768918289488  0.8433702213485148  1.0000
  O   O18       1.0  0.6289246796638609  0.5968655096886833  0.15663036055268978  1.0000
  O   O19       1.0  0.12892317118596003  0.09686580831395018  0.3433688391002576  1.0000
  O   O20       1.0  0.9031344733872402  0.8710765976928483  0.6566299048222959  1.0000
  O   O21       1.0  0.6545256182263872  0.957035497672038  0.7835022604418  1.0000
  O   O22       1.0  0.04296385663543131  0.34547341176146057  0.21649684134299457  1.0000
  O   O23       1.0  0.5429619833446395  0.8454743880520394  0.2835022945457197  1.0000
  O   O24       1.0  0.1545249489256122  0.45703851454586436  0.716497726227395  1.0000
