data_image0
_chemical_formula_structural       Co6H58C48N24
_chemical_formula_sum              "Co6 H58 C48 N24"
_cell_length_a       14.633819080448976
_cell_length_b       14.63275598105303
_cell_length_c       14.630300554462982
_cell_angle_alpha    109.4733547000328
_cell_angle_beta     109.48353039874436
_cell_angle_gamma    109.47312363073713

_space_group_name_H-M_alt    "P 1"
_space_group_IT_number       1

loop_
  _space_group_symop_operation_xyz
  'x, y, z'

loop_
  _atom_site_type_symbol
  _atom_site_label
  _atom_site_symmetry_multiplicity
  _atom_site_fract_x
  _atom_site_fract_y
  _atom_site_fract_z
  _atom_site_occupancy
  Co  Co1       1.0  0.7493374263959752  0.49975716710690654  0.24898808185222518  1.0000
  Co  Co2       1.0  0.25014820716545916  0.4999931827415619  0.75007234235985  1.0000
  Co  Co3       1.0  0.2495924519420358  0.7496863207579237  0.4995373248137653  1.0000
  Co  Co4       1.0  0.7501498387737158  0.2503432696026591  0.4999244774293599  1.0000
  Co  Co5       1.0  0.5001584767293393  0.24945571226604793  0.7490005676517268  1.0000
  Co  Co6       1.0  0.5003155591283887  0.7503356322917226  0.2502013502437562  1.0000
  H   H1        1.0  0.8824625989106282  0.7602855869267059  0.4149816089880007  1.0000
  H   H2        1.0  0.11627691856823211  0.5330393009852868  0.8778500933962191  1.0000
  H   H3        1.0  0.34710577778752577  0.4689071148119693  0.5853168179026156  1.0000
  H   H4        1.0  0.4152723265611867  0.8831087506457889  0.7613142495947898  1.0000
  H   H5        1.0  0.12180926962766131  0.6539668378731348  0.23718601068755157  1.0000
  H   H6        1.0  0.878209181107124  0.11701701602799364  0.5321811428578369  1.0000
  H   H7        1.0  0.584801445474568  0.3475694475893432  0.467708534450871  1.0000
  H   H8        1.0  0.23946118056240798  0.12248214495593136  0.6558796149757596  1.0000
  H   H9        1.0  0.5314984870862177  0.8784134489851636  0.11658806134687431  1.0000
  H   H10       1.0  0.469630239777622  0.5859982710267173  0.3477775250478884  1.0000
  H   H11       1.0  0.4147935134457794  0.7622060858650951  0.883707318092952  1.0000
  H   H12       1.0  0.12265621396442582  0.2384627494053291  0.6538609934075481  1.0000
  H   H13       1.0  0.8781848437486913  0.528173047787696  0.11413051155147945  1.0000
  H   H14       1.0  0.5842730723442883  0.46782055683600965  0.3456929413777629  1.0000
  H   H15       1.0  0.7620535340026249  0.8841659159807446  0.41502649248391765  1.0000
  H   H16       1.0  0.23859846438402602  0.6524255275280025  0.12123616843368266  1.0000
  H   H17       1.0  0.5328770597217555  0.1157258852167399  0.8782132577662976  1.0000
  H   H18       1.0  0.4659817138040269  0.34430317552423867  0.5817771833279153  1.0000
  H   H19       1.0  0.8836571651111739  0.4172727172612763  0.7615209537111195  1.0000
  H   H20       1.0  0.6505875319190579  0.12251571071207926  0.23672759518865397  1.0000
  H   H21       1.0  0.11535544678666554  0.8776737316418988  0.5300406193322402  1.0000
  H   H22       1.0  0.3451887642989533  0.5835960916939484  0.4671769395974222  1.0000
  H   H23       1.0  0.9147137183370189  0.43471088792274026  0.26132804401671444  1.0000
  H   H24       1.0  0.04121729191775371  0.48897052929694956  0.3854746612252526  1.0000
  H   H25       1.0  0.0470615430517825  0.5078539150574173  0.27396610528824533  1.0000
  H   H26       1.0  0.8518356168408873  0.4855047632522654  0.5688210358151621  1.0000
  H   H27       1.0  0.7574462985487216  0.5264763720289307  0.5074561792116298  1.0000
  H   H28       1.0  0.8822219506143583  0.5630902423978481  0.5009803874397178  1.0000
  H   H29       1.0  0.9304430969877372  0.3091319038565242  0.4366338157291875  1.0000
  H   H30       1.0  0.9899350680249768  0.23412429264737936  0.4817755499739318  1.0000
  H   H31       1.0  0.07905488976443542  0.370656507943451  0.5133839602084292  1.0000
  H   H32       1.0  0.13554272933608055  0.6253011238460644  0.7003218759323815  1.0000
  H   H33       1.0  0.1339108442230455  0.6985509050086165  0.6239972303321651  1.0000
  H   H34       1.0  0.24808937534028525  0.7617250335358674  0.7602290958686381  1.0000
  H   H35       1.0  0.25105002801239346  0.02007755648655511  0.49671539104613055  1.0000
  H   H36       1.0  0.2840971507760345  0.9182251365794868  0.4340043391622715  1.0000
  H   H37       1.0  0.3821317630410945  0.06398458143146957  0.5027331252142275  1.0000
  H   H38       1.0  0.5076370616241377  0.7523218282787878  0.5182795362191257  1.0000
  H   H39       1.0  0.4930128662255909  0.8723020076926883  0.5630041955214722  1.0000
  H   H40       1.0  0.5652162158301832  0.8571726646160297  0.486593382255087  1.0000
  H   H41       1.0  0.5096473844067261  0.07441482792778918  0.3755562859937738  1.0000
  H   H42       1.0  0.43528294799606476  0.9248144763396268  0.2992947307177972  1.0000
  H   H43       1.0  0.48753260649952784  0.001441721287399276  0.23927330182569753  1.0000
  H   H44       1.0  0.6568330799915287  0.10473268219753598  0.6137899017702181  1.0000
  H   H45       1.0  0.6525863340183022  0.17379971195084917  0.7368674081600799  1.0000
  H   H46       1.0  0.7729097911951827  0.23603216175075659  0.7259422864326126  1.0000
  H   H47       1.0  0.44204561555315547  0.333244548316479  0.9502815558072298  1.0000
  H   H48       1.0  0.519075145502292  0.35609038234381524  0.0866700222730756  1.0000
  H   H49       1.0  0.4667326206557972  0.22758774039431262  0.9661456113823519  1.0000
  H   H50       1.0  0.5647825260747082  0.4929151988973642  0.8703001740050453  1.0000
  H   H51       1.0  0.48845268804227976  0.5657485728231818  0.8604229248574882  1.0000
  H   H52       1.0  0.5166486871415614  0.5097403747729742  0.7520740102890427  1.0000
  H   H53       1.0  0.22998017093529202  0.4752152559127012  0.9773289865789039  1.0000
  H   H54       1.0  0.36431038884218486  0.5166538859311771  0.08245287757122807  1.0000
  H   H55       1.0  0.3203544087397815  0.43968166206576587  0.937689984072719  1.0000
  H   H56       1.0  0.6271317989106393  0.7048862956791807  0.13931528168136958  1.0000
  H   H57       1.0  0.6935199259220254  0.6221514201281833  0.12952484599913558  1.0000
  H   H58       1.0  0.7639523398969457  0.7576269195518034  0.2473948050797218  1.0000
  C   C1        1.0  0.9415757272504168  0.7314832372565544  0.413700371637496  1.0000
  C   C2        1.0  0.6796799070564034  0.27225732398552055  0.21419660429705792  1.0000
  C   C3        1.0  0.05743825409447102  0.47229378309053516  0.7899030393455321  1.0000
  C   C4        1.0  0.31870358185611286  0.5285962022130022  0.5860112395527821  1.0000
  C   C5        1.0  0.41415679510176046  0.9421617412959332  0.7323777412496425  1.0000
  C   C6        1.0  0.20977195312192978  0.6811823277101893  0.266598868408515  1.0000
  C   C7        1.0  0.7902523160527936  0.05803983106768823  0.4716738545002527  1.0000
  C   C8        1.0  0.5852168100137121  0.3186631479375419  0.527038455929599  1.0000
  C   C9        1.0  0.7281838224872672  0.40798842559209425  0.941827692635833  1.0000
  C   C10       1.0  0.26842906555101104  0.2103339335317286  0.6828517897835836  1.0000
  C   C11       1.0  0.47133211203955466  0.7904045174532539  0.05760791237941026  1.0000
  C   C12       1.0  0.52919389578998  0.5866093091151182  0.3191936767859999  1.0000
  C   C13       1.0  0.41370500232786583  0.7329918935360877  0.942574801281772  1.0000
  C   C14       1.0  0.21073408165656818  0.26763234383755463  0.6820402837762244  1.0000
  C   C15       1.0  0.7898909929812775  0.4690193561782577  0.05642053653733833  1.0000
  C   C16       1.0  0.5859477534152973  0.5283849066711567  0.3183363951198004  1.0000
  C   C17       1.0  0.7328819770506243  0.9430405342768038  0.41390817637721977  1.0000
  C   C18       1.0  0.26748269257836194  0.6807626415569813  0.2093273343549953  1.0000
  C   C19       1.0  0.4722761600635508  0.057172733181260954  0.790145468089186  1.0000
  C   C20       1.0  0.5266591973554354  0.3171454017354092  0.5834707800995671  1.0000
  C   C21       1.0  0.9424266356737548  0.41509004209132155  0.732389106389391  1.0000
  C   C22       1.0  0.679059318048303  0.2106846572816605  0.2672065982815183  1.0000
  C   C23       1.0  0.05655713163670826  0.7894326776708026  0.4706173412461823  1.0000
  C   C24       1.0  0.3178984224256495  0.5853980426634207  0.5278068555844725  1.0000
  C   C25       1.0  0.9997087124448143  0.6119797214211853  0.36834057681658533  1.0000
  C   C26       1.0  0.0004628495066185267  0.5052355975586096  0.31937986697672466  1.0000
  C   C27       1.0  0.7579759458164688  0.38999477430597534  0.39021352056415276  1.0000
  C   C28       1.0  0.815223363159575  0.4966649295970241  0.497477431265068  1.0000
  C   C29       1.0  0.999987978945448  0.36930976926611664  0.6124075521310315  1.0000
  C   C30       1.0  0.9999220363158512  0.31808076573938815  0.5055261805853489  1.0000
  C   C31       1.0  0.24285434090150912  0.630451206287688  0.6302915986663322  1.0000
  C   C32       1.0  0.1872308604626553  0.6816988791874079  0.681442381385409  1.0000
  C   C33       1.0  0.3695891460115562  5.591797060589134e-05  0.612566954979151  1.0000
  C   C34       1.0  0.3188620987825814  0.00042918617178596595  0.505860481058626  1.0000
  C   C35       1.0  0.3872000811118212  0.7564239776486161  0.3872558971128157  1.0000
  C   C36       1.0  0.49388974147746034  0.8124298069827987  0.4943551067143376  1.0000
  C   C37       1.0  0.6125744754692661  0.0003662616364932845  0.36921366687297297  1.0000
  C   C38       1.0  0.5056578560704422  0.00022575094830989053  0.31809515228177787  1.0000
  C   C39       1.0  0.6305398233152032  0.24365578389689777  0.6296289800161076  1.0000
  C   C40       1.0  0.6809445660380219  0.18678929566627975  0.6794173945160294  1.0000
  C   C41       1.0  0.6106824511950605  0.36799493421987933  0.00013936861803638863  1.0000
  C   C42       1.0  0.5042318116460222  0.31865166964584535  0.0009514676923387545  1.0000
  C   C43       1.0  0.38837050888308494  0.38790200088501325  0.7575727090510042  1.0000
  C   C44       1.0  0.4951218314184088  0.49469282325680547  0.8129525539857809  1.0000
  C   C45       1.0  0.3689607679509308  0.61272705706115  0.9999361945162802  1.0000
  C   C46       1.0  0.3182424762123546  0.5056092433653204  0.9995622931411815  1.0000
  C   C47       1.0  0.6306608572804818  0.6306292184317072  0.2428717928115772  1.0000
  C   C48       1.0  0.6815137418062492  0.6815700811330102  0.18691219307621057  1.0000
  N   N1        1.0  0.9059543082762644  0.6195645778385879  0.34887915155091026  1.0000
  N   N2        1.0  0.7274516662385935  0.38172875025870906  0.28768183123937513  1.0000
  N   N3        1.0  0.09346489148814639  0.44288087844496  0.71407651252224  1.0000
  N   N4        1.0  0.2715376747757786  0.5574250668382489  0.650786334534871  1.0000
  N   N5        1.0  0.3491819428108868  0.9064067048213926  0.620456915392914  1.0000
  N   N6        1.0  0.2854483838047771  0.72851498230888  0.37872921045342883  1.0000
  N   N7        1.0  0.7142001047230906  0.09392288958724736  0.44296106555153597  1.0000
  N   N8        1.0  0.6508555592612169  0.2724932202103501  0.5565777160555143  1.0000
  N   N9        1.0  0.6187819943031555  0.34595243976120554  0.9058265503086317  1.0000
  N   N10       1.0  0.38041539964883225  0.28638259117677456  0.730194830890852  1.0000
  N   N11       1.0  0.4426039004004423  0.7143171742297623  0.09350134324558475  1.0000
  N   N12       1.0  0.5578985115651703  0.65126763451817  0.2718720257554351  1.0000
  N   N13       1.0  0.3489404848932121  0.6210229449888157  0.9064984942641413  1.0000
  N   N14       1.0  0.2866062754684363  0.37957958982940443  0.728964593818027  1.0000
  N   N15       1.0  0.7129879551018661  0.44198964310903205  0.09279774308939873  1.0000
  N   N16       1.0  0.6502489041695511  0.5567333664373916  0.2705861916827457  1.0000
  N   N17       1.0  0.6208728183053862  0.906953250301491  0.34911725144831957  1.0000
  N   N18       1.0  0.37934731280465434  0.7280421588204433  0.2856767307325896  1.0000
  N   N19       1.0  0.44358659322536903  0.09338244180627694  0.7143286306290263  1.0000
  N   N20       1.0  0.5558604929692661  0.27021942622780387  0.6484262599777891  1.0000
  N   N21       1.0  0.9065119718642408  0.3498221925251597  0.6204739103372958  1.0000
  N   N22       1.0  0.7293211100585353  0.28763874304669185  0.3805912423639838  1.0000
  N   N23       1.0  0.09291344465860621  0.7138816613709124  0.4414830212747134  1.0000
  N   N24       1.0  0.27041444536018117  0.6498928172255346  0.5562587693476074  1.0000
