data_image0
_chemical_formula_structural       Ni3H30C18O24
_chemical_formula_sum              "Ni3 H30 C18 O24"
_cell_length_a       6.420599452936179
_cell_length_b       10.69063411274894
_cell_length_c       10.692501007417665
_cell_angle_alpha    75.20881146041394
_cell_angle_beta     73.34796120551243
_cell_angle_gamma    73.25336189193328

_space_group_name_H-M_alt    "P 1"
_space_group_IT_number       1

loop_
  _space_group_symop_operation_xyz
  'x, y, z'

loop_
  _atom_site_type_symbol
  _atom_site_label
  _atom_site_symmetry_multiplicity
  _atom_site_fract_x
  _atom_site_fract_y
  _atom_site_fract_z
  _atom_site_occupancy
  Ni  Ni1       1.0  0.2265672196855206  0.0391128754178141  0.4418124827855793  1.0000
  Ni  Ni2       1.0  0.7731041501816522  0.5583263294290077  0.9607581826303716  1.0000
  Ni  Ni3       1.0  0.9997171505095608  0.5890879770633148  0.4104833827237541  1.0000
  H   H1        1.0  0.49909401761829014  0.9255005475357979  0.07599711622979294  1.0000
  H   H2        1.0  0.2956773951643682  0.3433794301725399  0.9240570164171374  1.0000
  H   H3        1.0  0.7032511747999097  0.07694652095357668  0.6586535076961012  1.0000
  H   H4        1.0  0.001968495146130107  0.1914477495815987  0.8067665057437522  1.0000
  H   H5        1.0  0.20823370702919416  0.7733360947762123  0.9616895282209015  1.0000
  H   H6        1.0  0.7923786599671628  0.038132170870525804  0.2244401085114518  1.0000
  H   H7        1.0  0.027319604071344428  0.25013647634975905  0.32308338311525386  1.0000
  H   H8        1.0  0.9711369362775671  0.6789368217269712  0.7507689103847426  1.0000
  H   H9        1.0  0.5445409618637811  0.18509035490644973  0.3055488932610261  1.0000
  H   H10       1.0  0.45651361667761836  0.6939161586822352  0.8142604182159019  1.0000
  H   H11       1.0  0.9155846213784784  0.9068781908787144  0.5835349994595731  1.0000
  H   H12       1.0  0.08225383468407442  0.41649763749101965  0.09417325842868964  1.0000
  H   H13       1.0  0.5822750485192785  0.8353130233444263  0.4098124394366494  1.0000
  H   H14       1.0  0.41680884967886567  0.5879440277125594  0.16409889504157602  1.0000
  H   H15       1.0  0.311871718855663  0.5770520224997783  0.5427494942302716  1.0000
  H   H16       1.0  0.6872036189618594  0.45652299251814565  0.4239785519731499  1.0000
  H   H17       1.0  0.3281981942885751  0.3809490432866625  0.4680308411861843  1.0000
  H   H18       1.0  0.672918061990643  0.5330543247974903  0.6192151657311626  1.0000
  H   H19       1.0  0.2980405937987528  0.7224142159950374  0.4571610212326931  1.0000
  H   H20       1.0  0.700934973236663  0.5411211295960286  0.2781184261940125  1.0000
  H   H21       1.0  0.13464971159849173  0.33249521869534243  0.43471799793724136  1.0000
  H   H22       1.0  0.8668355355865317  0.56703574068559  0.6667390327896355  1.0000
  H   H23       1.0  0.529594333551337  0.1617669929036367  0.46074676168761647  1.0000
  H   H24       1.0  0.4744267039156043  0.5384059040265967  0.8363999501956768  1.0000
  H   H25       1.0  0.9269556237875773  0.9097432906040979  0.43118514016786963  1.0000
  H   H26       1.0  0.06999451475910938  0.5689563286533074  0.09163428437254587  1.0000
  H   H27       1.0  0.8536591380712153  0.23619916120037496  0.4730250931859246  1.0000
  H   H28       1.0  0.1466075422445671  0.5293334959008432  0.764559577944553  1.0000
  H   H29       1.0  0.43004851518899295  0.8314449667922617  0.5608155944520519  1.0000
  H   H30       1.0  0.5714804073497248  0.43733837854730945  0.1670338549385094  1.0000
  C   C1        1.0  0.2572234287934378  0.15041427027550472  0.15370228403056527  1.0000
  C   C2        1.0  0.7408146164345908  0.8475363503830807  0.8507501540529391  1.0000
  C   C3        1.0  0.3819702645113878  0.13596919965706888  0.01467869146222258  1.0000
  C   C4        1.0  0.6163155667848057  0.9865766451794402  0.8656215211895883  1.0000
  C   C5        1.0  0.49920692635537023  0.0086542630523212  0.9927314291168442  1.0000
  C   C6        1.0  0.3846746150575697  0.24347148662066326  0.9079473972905774  1.0000
  C   C7        1.0  0.6140148525825282  0.09338096665518242  0.758290362714277  1.0000
  C   C8        1.0  0.4995812034686082  0.22231940241422882  0.7792295667527539  1.0000
  C   C9        1.0  0.5003165331493521  0.33651959027751127  0.6647874101962258  1.0000
  C   C10       1.0  0.23011518865683203  0.9544154391458334  0.7303597746116353  1.0000
  C   C11       1.0  0.7721574196541071  0.26879119620675596  0.04371800164613398  1.0000
  C   C12       1.0  0.1165506829779161  0.9797047087217625  0.8684465629106058  1.0000
  C   C13       1.0  0.8859700977151729  0.13064651314251557  0.018402917529378733  1.0000
  C   C14       1.0  0.0015120055080827988  0.1082395417494197  0.8902914655893  1.0000
  C   C15       1.0  0.1182774516404593  0.8735437838426279  0.9761441318972075  1.0000
  C   C16       1.0  0.8830270313816654  0.0230687870874462  0.12463218504704805  1.0000
  C   C17       1.0  0.00028356022978943626  0.8951605293900116  0.1036490491562105  1.0000
  C   C18       1.0  0.9994107684789172  0.7826324418969507  0.21655015068159866  1.0000
  O   O1        1.0  0.287156088354962  0.046430823367629194  0.24286779103884734  1.0000
  O   O2        1.0  0.7107646519636786  0.7578637176947396  0.9541615350739435  1.0000
  O   O3        1.0  0.12708275825446688  0.2621645426292005  0.17601138956018053  1.0000
  O   O4        1.0  0.8709459129062794  0.8257499987486058  0.7389467055074377  1.0000
  O   O5        1.0  0.01159519914816091  0.227932942226019  0.4249982062097076  1.0000
  O   O6        1.0  0.9884237587883575  0.576772008139244  0.7722004166364941  1.0000
  O   O7        1.0  0.5095809995314794  0.12343484318566308  0.3923731684092999  1.0000
  O   O8        1.0  0.49187199209551835  0.6068481160062761  0.8758137818942444  1.0000
  O   O9        1.0  0.9430938446001775  0.9606054706694849  0.49123401012924733  1.0000
  O   O10       1.0  0.05450744555280099  0.5089447310003835  0.04045905923389632  1.0000
  O   O11       1.0  0.42710509793619184  0.842818053524951  0.46333408148377947  1.0000
  O   O12       1.0  0.5724695241336448  0.5350987676161054  0.1567023364493991  1.0000
  O   O13       1.0  0.1790389278524671  0.0490171833650876  0.6360128621893892  1.0000
  O   O14       1.0  0.8229449844255612  0.36348313605981997  0.9496351713160822  1.0000
  O   O15       1.0  0.36524668693377293  0.8424836377733838  0.7142903116152439  1.0000
  O   O16       1.0  0.6367830819193968  0.2844778637101583  0.15554077911156838  1.0000
  O   O17       1.0  0.11921627865908138  0.6656331767982239  0.20155934682679796  1.0000
  O   O18       1.0  0.8791026713257466  0.7984289032973068  0.333071402766592  1.0000
  O   O19       1.0  0.23628282683801421  0.6421158106335909  0.4766652211541854  1.0000
  O   O20       1.0  0.7632558425281886  0.5219173857777336  0.35820516024277543  1.0000
  O   O21       1.0  0.2091343687703002  0.408095821699149  0.4188524618158525  1.0000
  O   O22       1.0  0.7918712679325352  0.5822487266764043  0.5913984035483111  1.0000
  O   O23       1.0  0.43378167356883063  0.4560515262562745  0.6870269955223022  1.0000
  O   O24       1.0  0.5674976938584493  0.3136257142496319  0.545554164802212  1.0000
