data_image0
_chemical_formula_structural       ZnH32C34S2N10O4
_chemical_formula_sum              "Zn1 H32 C34 S2 N10 O4"
_cell_length_a       8.456014097694673
_cell_length_b       8.476917346648904
_cell_length_c       12.421091053184302
_cell_angle_alpha    93.88924239079562
_cell_angle_beta     97.30226033895164
_cell_angle_gamma    91.32610427246546

_space_group_name_H-M_alt    "P 1"
_space_group_IT_number       1

loop_
  _space_group_symop_operation_xyz
  'x, y, z'

loop_
  _atom_site_type_symbol
  _atom_site_label
  _atom_site_symmetry_multiplicity
  _atom_site_fract_x
  _atom_site_fract_y
  _atom_site_fract_z
  _atom_site_occupancy
  Zn  Zn1       1.0  1.8710039669001889e-06  4.910621378002388e-06  0.9999992314739715  1.0000
  H   H1        1.0  0.2776014028560497  0.8137645250805576  0.9323357340673584  1.0000
  H   H2        1.0  0.7223941205405425  0.18624174263851498  0.06765980066339243  1.0000
  H   H3        1.0  0.5413279008090657  0.7170637185897204  0.014415113550846594  1.0000
  H   H4        1.0  0.45867004879946194  0.28294375280092504  0.985583096115896  1.0000
  H   H5        1.0  0.6707693361645327  0.847032590263076  0.1937541406920147  1.0000
  H   H6        1.0  0.3292248386172218  0.15296899545359102  0.8062459130896684  1.0000
  H   H7        1.0  0.2599452237091029  0.13921649545385859  0.19319605452103875  1.0000
  H   H8        1.0  0.7400488704655785  0.8607827162721547  0.8068030882660366  1.0000
  H   H9        1.0  0.6093775551783837  0.8096260769687972  0.4440851568764118  1.0000
  H   H10       1.0  0.3906271100171851  0.19036840357052398  0.555916311611064  1.0000
  H   H11       1.0  0.44778355284271504  0.8171699693480646  0.33791941119358887  1.0000
  H   H12       1.0  0.5522187273450216  0.18282450656641905  0.6620810460864706  1.0000
  H   H13       1.0  0.6410277012942559  0.2502082724062048  0.4846405202819782  1.0000
  H   H14       1.0  0.3589733060826816  0.7497838312223518  0.5153589231435234  1.0000
  H   H15       1.0  0.7298714237961478  0.0770755532656011  0.5362084464349409  1.0000
  H   H16       1.0  0.2701284313804137  0.9229177350458639  0.4637909468841528  1.0000
  H   H17       1.0  0.20010363377188162  0.30743981129851505  0.0696303600613319  1.0000
  H   H18       1.0  0.7998941194221916  0.6925617934068172  0.9303724187627512  1.0000
  H   H19       1.0  0.2820435073679591  0.5553515664727016  0.992269190453044  1.0000
  H   H20       1.0  0.7179471750119861  0.4446524465544143  0.007736298668469012  1.0000
  H   H21       1.0  0.14771831450396894  0.6214033139108961  0.8093030729352011  1.0000
  H   H22       1.0  0.8522782494882862  0.3785983326705137  0.1907036304664871  1.0000
  H   H23       1.0  0.8672971042234466  0.18880652633501427  0.8001669248491297  1.0000
  H   H24       1.0  0.132709902374323  0.8111867276453139  0.19983066916713452  1.0000
  H   H25       1.0  0.19130411621492271  0.4500528644929601  0.6576369130865845  1.0000
  H   H26       1.0  0.8087038831702034  0.5499344809259696  0.34236132550940823  1.0000
  H   H27       1.0  0.167026399194441  0.6355317805648966  0.6006683308428791  1.0000
  H   H28       1.0  0.8329840246014869  0.3644567444227818  0.3993301662265624  1.0000
  H   H29       1.0  0.8792949234291215  0.6970180085406809  0.5181152001394198  1.0000
  H   H30       1.0  0.120710850361192  0.30297405613190154  0.4818814327758363  1.0000
  H   H31       1.0  0.7268538877885433  0.5510572989115231  0.5313038088433757  1.0000
  H   H32       1.0  0.2731531188092262  0.44893595506880496  0.4686937851728957  1.0000
  C   C1        1.0  0.33678684601962067  0.8633134734851565  0.010821863445059405  1.0000
  C   C2        1.0  0.6632099507881508  0.13669517455412014  0.9891754906277658  1.0000
  C   C3        1.0  0.48346656272087074  0.8116387084011194  0.05671236089253281  1.0000
  C   C4        1.0  0.5165277302697859  0.18836640214730238  0.9432854346872547  1.0000
  C   C5        1.0  0.5551436232782764  0.8836286452471567  0.1556953642542283  1.0000
  C   C6        1.0  0.44484947991018237  0.11637649914307957  0.8443055504156548  1.0000
  C   C7        1.0  0.47653120940520216  0.006658258230068299  0.20501049236843732  1.0000
  C   C8        1.0  0.5234605027635554  0.9933409890424724  0.7949916666487838  1.0000
  C   C9        1.0  0.32744379428627474  0.04803123936772379  0.15482764453697945  1.0000
  C   C10       1.0  0.6725491488887912  0.9519691731097453  0.8451730591187144  1.0000
  C   C11       1.0  0.547591088579793  0.1051012309274526  0.3052277952672426  1.0000
  C   C12       1.0  0.4524041571948843  0.8948967880813754  0.6947705921387242  1.0000
  C   C13       1.0  0.5029787928431801  0.8754701984287437  0.4152789496750416  1.0000
  C   C14       1.0  0.4970234485419738  0.12452311057610636  0.5847230658264949  1.0000
  C   C15       1.0  0.6167825938213909  0.1281807080668642  0.502691308564728  1.0000
  C   C16       1.0  0.38321845475966415  0.8718125946084285  0.4973097985893419  1.0000
  C   C17       1.0  0.14699966868045072  0.3375981582468128  0.9893714275758542  1.0000
  C   C18       1.0  0.8530017405311128  0.6624057992664659  0.010630959847659868  1.0000
  C   C19       1.0  0.19163149596000303  0.47580155724711654  0.9457566916851408  1.0000
  C   C20       1.0  0.8083625600124692  0.5241964956035262  0.05424481481092872  1.0000
  C   C21       1.0  0.1166265095230798  0.5120201320450659  0.8440993861633005  1.0000
  C   C22       1.0  0.8833652838531308  0.4879814972524059  0.15590448933604512  1.0000
  C   C23       1.0  0.9961997495353074  0.40865212321457983  0.7903020142587426  1.0000
  C   C24       1.0  0.0038004656713894994  0.5913518119006013  0.2096978538422789  1.0000
  C   C25       1.0  0.9604140794027675  0.2714284111780073  0.8401509265474232  1.0000
  C   C26       1.0  0.0395896724117506  0.7285743358448257  0.15984919737991282  1.0000
  C   C27       1.0  0.8883212980504638  0.44495120057206333  0.6897588951784217  1.0000
  C   C28       1.0  0.1116801881658844  0.5550550827262267  0.3102395703146286  1.0000
  C   C29       1.0  0.12306920505819362  0.5115559886926349  0.5932725262620836  1.0000
  C   C30       1.0  0.8769426127593365  0.4884384735840967  0.4067287538975891  1.0000
  C   C31       1.0  0.8510061344423863  0.5689197851696475  0.5167977837932227  1.0000
  C   C32       1.0  0.14900560156731055  0.4310722870478826  0.48320097439682297  1.0000
  C   C33       1.0  0.0365179896016201  0.933317976811864  0.7567322225060807  1.0000
  C   C34       1.0  0.9634800794165701  0.06669303547908359  0.24326533993379235  1.0000
  S   S1        1.0  0.038567255940833406  0.9887861949229945  0.6353294137919435  1.0000
  S   S2        1.0  0.9614283068587216  0.0112212477400035  0.36466536820483963  1.0000
  N   N1        1.0  0.2580689077225601  0.9775959819417607  0.0601086050311181  1.0000
  N   N2        1.0  0.7419278102792789  0.0224103162096867  0.9398902545096349  1.0000
  N   N3        1.0  0.552961039712244  0.038259424495670706  0.40167480167571773  1.0000
  N   N4        1.0  0.44703647166059574  0.9617350582376929  0.5983252441645348  1.0000
  N   N5        1.0  0.035243181866107406  0.23483938092299889  0.9364001899043402  1.0000
  N   N6        1.0  0.964758186141346  0.7651633775435439  0.06360053379060562  1.0000
  N   N7        1.0  0.9536476429220786  0.5056071183648284  0.6062249599455855  1.0000
  N   N8        1.0  0.046361707479405816  0.4943849411935943  0.39377198154952714  1.0000
  N   N9        1.0  0.03339572006969149  0.8948735146797943  0.8471733738916217  1.0000
  N   N10       1.0  0.9666106513693155  0.10513626252856059  0.15282082837679672  1.0000
  O   O1        1.0  0.741761866166172  0.42372549569200396  0.6891564191417104  1.0000
  O   O2        1.0  0.2582363670680792  0.576290304751609  0.3108469927249402  1.0000
  O   O3        1.0  0.5926747829703346  0.2434322160414481  0.2948943677872222  1.0000
  O   O4        1.0  0.4073203851991707  0.756563469148091  0.7051071360616988  1.0000
