data_image0
_chemical_formula_structural       ZnSiH12C24N4F10
_chemical_formula_sum              "Zn1 Si1 H12 C24 N4 F10"
_cell_length_a       7.763718071720737
_cell_length_b       14.148923330188811
_cell_length_c       14.171814804837112
_cell_angle_alpha    94.36584703084216
_cell_angle_beta     99.68606786203677
_cell_angle_gamma    99.69776003928273

_space_group_name_H-M_alt    "P 1"
_space_group_IT_number       1

loop_
  _space_group_symop_operation_xyz
  'x, y, z'

loop_
  _atom_site_type_symbol
  _atom_site_label
  _atom_site_symmetry_multiplicity
  _atom_site_fract_x
  _atom_site_fract_y
  _atom_site_fract_z
  _atom_site_occupancy
  Zn  Zn1       1.0  0.4999994548649126  0.5001876556056288  0.49979361741353767  1.0000
  Si  Si1       1.0  5.784630708676638e-06  0.49894262205860673  0.5010834358016254  1.0000
  H   H1        1.0  0.25288347899147107  0.6341962569979884  0.44082726609111944  1.0000
  H   H2        1.0  0.2290787400409826  0.8051199545335805  0.43633489299718786  1.0000
  H   H3        1.0  0.7904136614017075  0.8782018018179445  0.5637600862809933  1.0000
  H   H4        1.0  0.21117267249258725  0.1223365143347692  0.4305983961357427  1.0000
  H   H5        1.0  0.7442940407980668  0.3658343039442328  0.5641867848732147  1.0000
  H   H6        1.0  0.766521102680457  0.19475107096616992  0.5697921601124563  1.0000
  H   H7        1.0  0.2552338257677532  0.4375754983011362  0.63474814601269  1.0000
  H   H8        1.0  0.23244625633734728  0.43247364751785966  0.8054706942629083  1.0000
  H   H9        1.0  0.7906045153179945  0.5666114293016449  0.8779049863768904  1.0000
  H   H10       1.0  0.20798369966485805  0.43901821467241586  0.12162936018810913  1.0000
  H   H11       1.0  0.7474735374115937  0.5573514345822304  0.36515195883308854  1.0000
  H   H12       1.0  0.7716769051597722  0.56138657632998  0.19457761531703713  1.0000
  C   C1        1.0  0.3698339393840655  0.689943291490117  0.4667000651363936  1.0000
  C   C2        1.0  0.3566516683046856  0.786173801662301  0.46435424746330517  1.0000
  C   C3        1.0  0.5081390823215058  0.8578644996421475  0.49979506124709167  1.0000
  C   C4        1.0  0.6674419582123787  0.8275510490895427  0.53548030603163  1.0000
  C   C5        1.0  0.6648736837185679  0.7290597084839305  0.5345059927680254  1.0000
  C   C6        1.0  0.5013787216421974  0.9572235182174466  0.5000837540115768  1.0000
  C   C7        1.0  0.49648620728690673  0.042948558870321604  0.5008883730550124  1.0000
  C   C8        1.0  0.49014217917073916  0.14233896208219932  0.500837809521613  1.0000
  C   C9        1.0  0.33303686587567677  0.17284700654924728  0.4614356230332604  1.0000
  C   C10       1.0  0.3369249214120345  0.27138790015636255  0.4614170292305531  1.0000
  C   C11       1.0  0.6282057421687524  0.31015978457575943  0.5362029969562485  1.0000
  C   C12       1.0  0.6404292877700042  0.21385914395719402  0.5391608229158821  1.0000
  C   C13       1.0  0.37175603642708654  0.4647067680815979  0.6903103226130369  1.0000
  C   C14       1.0  0.3591924504657342  0.4620184769268363  0.7864387351278169  1.0000
  C   C15       1.0  0.5100891535368461  0.4991245364653026  0.8578866761835543  1.0000
  C   C16       1.0  0.6681618571070941  0.5369338663318503  0.8274430486174185  1.0000
  C   C17       1.0  0.6646966731536279  0.5365927034854181  0.7290588133493401  1.0000
  C   C18       1.0  0.503551847667822  0.4992069827298947  0.9571052100830572  1.0000
  C   C19       1.0  0.498462905503544  0.49994004262899955  0.0426743973682022  1.0000
  C   C20       1.0  0.4915229482610782  0.5003252953204935  0.14186183483680284  1.0000
  C   C21       1.0  0.3314456590008134  0.4661980064504618  0.1721574281094078  1.0000
  C   C22       1.0  0.33382108325426424  0.4674889350451752  0.2705045862645221  1.0000
  C   C23       1.0  0.630147893119755  0.5323822498395571  0.3095396194215568  1.0000
  C   C24       1.0  0.6435333078152181  0.5344829623206664  0.21344515472695494  1.0000
  N   N1        1.0  0.5227187852917438  0.6601786513313856  0.5022458857932008  1.0000
  N   N2        1.0  0.4776597407995806  0.34010493277013853  0.4969533843244777  1.0000
  N   N3        1.0  0.5232755997463341  0.502438653275135  0.6604093671566531  1.0000
  N   N4        1.0  0.47648079378483027  0.49834937643383626  0.3392822689589608  1.0000
  F   F1        1.0  0.2243598028136589  0.4887679128181618  0.4911573557630433  1.0000
  F   F2        1.0  0.775657007893791  0.5092842872644283  0.5107284769263103  1.0000
  F   F3        1.0  6.389742793538464e-05  0.5811707227065027  0.41824089074196286  1.0000
  F   F4        1.0  0.999775159287317  0.4167989528851734  0.5839535840353989  1.0000
  F   F5        1.0  0.08256773360433557  0.5883862529800508  0.5897214922952899  1.0000
  F   F6        1.0  0.9176609003146151  0.40943443150441544  0.4124787032975163  1.0000
  F   F7        1.0  0.8169420925301122  0.7008096894838899  0.5688736103447383  1.0000
  F   F8        1.0  0.18797687664900303  0.29987081797566617  0.4218992733712383  1.0000
  F   F9        1.0  0.8150295212100359  0.5740544442365589  0.7006745731381372  1.0000
  F   F10       1.0  0.18070693078239225  0.43511706404915174  0.29867522061125845  1.0000
