data_image0
_chemical_formula_structural       Cu4H32C36S8I4N16
_chemical_formula_sum              "Cu4 H32 C36 S8 I4 N16"
_cell_length_a       9.179802156259223
_cell_length_b       9.179777365168393
_cell_length_c       16.108484004826746
_cell_angle_alpha    96.21078049576553
_cell_angle_beta     96.21076237837748
_cell_angle_gamma    101.41563672656252

_space_group_name_H-M_alt    "P 1"
_space_group_IT_number       1

loop_
  _space_group_symop_operation_xyz
  'x, y, z'

loop_
  _atom_site_type_symbol
  _atom_site_label
  _atom_site_symmetry_multiplicity
  _atom_site_fract_x
  _atom_site_fract_y
  _atom_site_fract_z
  _atom_site_occupancy
  Cu  Cu1       1.0  0.09295318380299727  0.5678958176441994  0.4281533207470858  1.0000
  Cu  Cu2       1.0  0.43210256257484747  0.90704491548572  0.07184639422513331  1.0000
  Cu  Cu3       1.0  0.9070499599015419  0.43210788446739895  0.5718458386011065  1.0000
  Cu  Cu4       1.0  0.5678956873471465  0.09295093517633997  0.9281551012686008  1.0000
  H   H1        1.0  0.8299053058868892  0.9844355727072411  0.34884598091962  1.0000
  H   H2        1.0  0.01555786554526148  0.17009756262378053  0.1511524769820056  1.0000
  H   H3        1.0  0.17009712643100272  0.015564748308342797  0.6511498278992673  1.0000
  H   H4        1.0  0.9844334052862749  0.8299016125180713  0.8488500399322447  1.0000
  H   H5        1.0  0.8205474790464179  0.9072078618636397  0.1927564253474543  1.0000
  H   H6        1.0  0.0927841641282896  0.1794538127496494  0.30724060981825113  1.0000
  H   H7        1.0  0.17945113936890073  0.09278459703076439  0.8072386800524071  1.0000
  H   H8        1.0  0.907213907201097  0.8205465094837621  0.692759902713405  1.0000
  H   H9        1.0  0.9409788519165474  0.8245484038124288  0.4478969897156587  1.0000
  H   H10       1.0  0.17544511327800194  0.05902328253603171  0.05210018283151639  1.0000
  H   H11       1.0  0.059022791578911396  0.1754586489025201  0.552102281109093  1.0000
  H   H12       1.0  0.8245401424223927  0.9409680103591636  0.9479002552473332  1.0000
  H   H13       1.0  0.6822916753129958  0.7373489300467853  0.08196561337580728  1.0000
  H   H14       1.0  0.26264796010579516  0.3177142057938766  0.4180338531987643  1.0000
  H   H15       1.0  0.3177118082981494  0.2626458116434662  0.9180324058359091  1.0000
  H   H16       1.0  0.7373525862310971  0.6822928403140621  0.5819653511299236  1.0000
  H   H17       1.0  0.4651025172403322  0.302631277231832  0.1366540592052274  1.0000
  H   H18       1.0  0.6973650898276206  0.5349062111399262  0.363346164741202  1.0000
  H   H19       1.0  0.5349058281109293  0.6973657437985281  0.863346252606213  1.0000
  H   H20       1.0  0.30263727196591356  0.4651042295824934  0.6366576990370945  1.0000
  H   H21       1.0  0.7028544526957176  0.47717931248491385  0.11733265701906957  1.0000
  H   H22       1.0  0.5228182585334338  0.29715093329909337  0.3826674370978438  1.0000
  H   H23       1.0  0.2971487891789267  0.5228142975656879  0.8826634170667162  1.0000
  H   H24       1.0  0.4771844993991791  0.7028561433015098  0.6173350062835894  1.0000
  H   H25       1.0  0.9258290685257933  0.5149892299887283  0.09711748080437842  1.0000
  H   H26       1.0  0.4850053413806705  0.07417869090724588  0.4028800894724753  1.0000
  H   H27       1.0  0.07417488819120874  0.4850077646136126  0.9028825650228284  1.0000
  H   H28       1.0  0.5149973923619129  0.9258283615032494  0.5971180054240789  1.0000
  H   H29       1.0  0.06181601799619327  0.39908195142687214  0.0925771353479732  1.0000
  H   H30       1.0  0.6009100626133089  0.9381901154775534  0.4074208155462528  1.0000
  H   H31       1.0  0.9381861543656387  0.6009116796625663  0.9074238419387513  1.0000
  H   H32       1.0  0.39909065194903076  0.0618124486918532  0.5925775081081355  1.0000
  C   C1        1.0  0.9795076047369875  0.6505212726757037  0.2656094078130451  1.0000
  C   C2        1.0  0.34946867912672996  0.020491721212799498  0.23439110215643663  1.0000
  C   C3        1.0  0.02049110101226858  0.3494768136198018  0.7343910082355548  1.0000
  C   C4        1.0  0.650527194429813  0.9795085843508672  0.7656086561709756  1.0000
  C   C5        1.0  0.8703425096535113  0.8863242374956853  0.3250707751523905  1.0000
  C   C6        1.0  0.113666912550201  0.1296552023757584  0.1749253696654307  1.0000
  C   C7        1.0  0.12965421932509  0.11367494303534897  0.6749271045451479  1.0000
  C   C8        1.0  0.8863221042760187  0.8703383597968182  0.8250766733049629  1.0000
  C   C9        1.0  0.8672181678097245  0.8442985816674307  0.2391342967608168  1.0000
  C   C10       1.0  0.1556925127628972  0.13277871171795397  0.2608636563240267  1.0000
  C   C11       1.0  0.13277607233849412  0.15569386116614228  0.7608624062911815  1.0000
  C   C12       1.0  0.8443046365448125  0.8672171288813713  0.7391371514615201  1.0000
  C   C13       1.0  0.9320293095467707  0.8005192238425494  0.37935902863674903  1.0000
  C   C14       1.0  0.19947908267424452  0.06797454334618179  0.1206397773279022  1.0000
  C   C15       1.0  0.06797406552711749  0.19948559954150366  0.6206402122009961  1.0000
  C   C16       1.0  0.8005088335376981  0.93201900876366  0.8793615779343041  1.0000
  C   C17       1.0  0.5854564999714073  0.6545963286554937  0.09249680223290818  1.0000
  C   C18       1.0  0.3454009467827889  0.41454960351346404  0.4075039427646274  1.0000
  C   C19       1.0  0.41454721155336927  0.3453995308514806  0.9075006772562445  1.0000
  C   C20       1.0  0.6545993820076318  0.5854563351449471  0.5924976649230089  1.0000
  C   C21       1.0  0.3313611342320399  0.596259592581063  0.0982361973469636  1.0000
  C   C22       1.0  0.4037342512102385  0.6686449356339494  0.40176247959823286  1.0000
  C   C23       1.0  0.6686427558853439  0.4037317953545595  0.90176226510426  1.0000
  C   C24       1.0  0.5962660706687474  0.3313609961130055  0.5982378856651493  1.0000
  C   C25       1.0  0.4644952595098388  0.41641211110009374  0.12267737743371039  1.0000
  C   C26       1.0  0.5835859823445729  0.5355153412358785  0.3773243067208085  1.0000
  C   C27       1.0  0.5355102008719683  0.5835815363546285  0.8773231781290676  1.0000
  C   C28       1.0  0.4164199092054517  0.4644962474914676  0.622681080459479  1.0000
  C   C29       1.0  0.5965087346447289  0.5127515297127585  0.11148776034906399  1.0000
  C   C30       1.0  0.4872504409314685  0.4034997581694028  0.3885127882382662  1.0000
  C   C31       1.0  0.40349648400056987  0.48724098610232147  0.8885108500877834  1.0000
  C   C32       1.0  0.5127574031991742  0.596510712132307  0.6114907868082041  1.0000
  C   C33       1.0  0.039059260001550876  0.5047757218742887  0.12084728751919019  1.0000
  C   C34       1.0  0.49521799783341436  0.9609479361329389  0.37915145298139646  1.0000
  C   C35       1.0  0.9609431471853468  0.4952190339433358  0.8791543924692178  1.0000
  C   C36       1.0  0.5047831829233403  0.039056874037107996  0.6208476548642352  1.0000
  S   S1        1.0  0.05616462147889218  0.4973875780078529  0.23310516230370126  1.0000
  S   S2        1.0  0.5026060134944217  0.9438395266340153  0.2668952488454011  1.0000
  S   S3        1.0  0.9438351917960901  0.5026105252618436  0.7668971838773329  1.0000
  S   S4        1.0  0.4973927415758582  0.056164149049564585  0.7331036445185574  1.0000
  S   S5        1.0  0.16418072490049695  0.6609894889261126  0.0889806023780579  1.0000
  S   S6        1.0  0.33900121310008297  0.8358273837263609  0.4110186325839322  1.0000
  S   S7        1.0  0.8358234034976704  0.33900302719342784  0.9110191839869728  1.0000
  S   S8        1.0  0.660996507955538  0.16418188856120242  0.5889811564478151  1.0000
  I   I1        1.0  0.9038785482522371  0.30125143588520586  0.41568426356859317  1.0000
  I   I2        1.0  0.6987463943290138  0.09612299604987838  0.0843174711416879  1.0000
  I   I3        1.0  0.09611934448454919  0.6987533579195571  0.5843152660009849  1.0000
  I   I4        1.0  0.30124586512381757  0.9038862673927778  0.9156863338946478  1.0000
  N   N1        1.0  0.9872600065316277  0.6820498581104174  0.3507304370517445  1.0000
  N   N2        1.0  0.31794192589362064  0.012738340796950397  0.1492688831263322  1.0000
  N   N3        1.0  0.012740262570609688  0.31795048079273147  0.6492708296841556  1.0000
  N   N4        1.0  0.6820470736540043  0.9872552040969748  0.8507300537834367  1.0000
  N   N5        1.0  0.9212181539466613  0.7265607126400295  0.20902048493500303  1.0000
  N   N6        1.0  0.2734275089801841  0.0787847536339186  0.290977034722289  1.0000
  N   N7        1.0  0.07878094794167366  0.2734340095336591  0.7909785107167338  1.0000
  N   N8        1.0  0.7265710181764647  0.9212178042329383  0.7090223983642332  1.0000
  N   N9        1.0  0.4539170352619379  0.6992802477831503  0.0866545926029758  1.0000
  N   N10       1.0  0.30071442115387  0.5460880595438977  0.41334655818439353  1.0000
  N   N11       1.0  0.5460862273470184  0.3007133830018347  0.9133452087555582  1.0000
  N   N12       1.0  0.6992861390058992  0.45391900038696775  0.5866551309927954  1.0000
  N   N13       1.0  0.331807866281153  0.45732385063942604  0.11548464597992589  1.0000
  N   N14       1.0  0.5426723593662643  0.6681999755572149  0.38451489885853357  1.0000
  N   N15       1.0  0.6681973592755811  0.5426686720871104  0.8845152068811686  1.0000
  N   N16       1.0  0.4573308578493354  0.3318093401325655  0.6154870862898889  1.0000
