data_image0
_chemical_formula_structural       Zn3H16C24N6O14
_chemical_formula_sum              "Zn3 H16 C24 N6 O14"
_cell_length_a       8.505793457193642
_cell_length_b       8.982583711954288
_cell_length_c       10.463504158500736
_cell_angle_alpha    109.92778733097903
_cell_angle_beta     103.55338064595166
_cell_angle_gamma    114.44503901707083

_space_group_name_H-M_alt    "P 1"
_space_group_IT_number       1

loop_
  _space_group_symop_operation_xyz
  'x, y, z'

loop_
  _atom_site_type_symbol
  _atom_site_label
  _atom_site_symmetry_multiplicity
  _atom_site_fract_x
  _atom_site_fract_y
  _atom_site_fract_z
  _atom_site_occupancy
  Zn  Zn1       1.0  0.39557480878541895  0.12292438482204912  0.649760470801283  1.0000
  Zn  Zn2       1.0  0.6044217524569079  0.8770741889057163  0.35023680949672087  1.0000
  Zn  Zn3       1.0  0.4999955144935768  0.49999896351711465  1.494767076200788e-06  1.0000
  H   H1        1.0  0.4012557250330887  0.13934567000095652  0.16620641197158653  1.0000
  H   H2        1.0  0.5987432734595045  0.860652938357454  0.8337913759939751  1.0000
  H   H3        1.0  0.9555378665348471  0.6417899606004552  0.12546866299562942  1.0000
  H   H4        1.0  0.04446201957234307  0.35821044053851386  0.8745335653856117  1.0000
  H   H5        1.0  0.9176961442753538  0.7070698773434998  0.7332427755111652  1.0000
  H   H6        1.0  0.0822962811421419  0.29292345355233357  0.2667562443578362  1.0000
  H   H7        1.0  0.0610373407652958  0.1485343192433604  0.42681484523016877  1.0000
  H   H8        1.0  0.9389730142671125  0.8514740067471392  0.5731856622128005  1.0000
  H   H9        1.0  0.2245796614579945  0.625144242192313  0.8268034478504019  1.0000
  H   H10       1.0  0.7754133072347997  0.3748544741500338  0.17319504645301714  1.0000
  H   H11       1.0  0.868514320915473  0.43181662955147704  0.5753475981471112  1.0000
  H   H12       1.0  0.13148141603813454  0.5681803459562929  0.4246472172419614  1.0000
  H   H13       1.0  0.8566109397310628  0.28395048536550155  0.4049079107204534  1.0000
  H   H14       1.0  0.14339363089906237  0.7160494013530823  0.595089406475651  1.0000
  H   H15       1.0  0.5646746747883924  0.4014455801028801  0.5350272667606788  1.0000
  H   H16       1.0  0.43534608479090764  0.5985714072458991  0.464992760916097  1.0000
  C   C1        1.0  0.1697038336236644  0.9360362316570628  0.9423680490028018  1.0000
  C   C2        1.0  0.8302956541941385  0.063961087637523  0.05763049114773369  1.0000
  C   C3        1.0  0.2673271317051941  0.002131644513823998  0.09657001912426467  1.0000
  C   C4        1.0  0.7326712918491723  0.9978614811177948  0.9034273066534978  1.0000
  C   C5        1.0  0.192373111089843  0.8961780503136012  0.16309894878876463  1.0000
  C   C6        1.0  0.8076243654770393  0.10381775072594479  0.8368978603724314  1.0000
  C   C7        1.0  0.0167656000477122  0.7241166155784526  0.07467693154390521  1.0000
  C   C8        1.0  0.9832323381344211  0.2758824618660398  0.9253255413547591  1.0000
  C   C9        1.0  0.9198684864835015  0.653350713891882  0.9191172533188517  1.0000
  C   C10       1.0  0.08012417890871147  0.34664521244693  0.08088051601398398  1.0000
  C   C11       1.0  0.9972446348882685  0.7596460536336734  0.8529679193243566  1.0000
  C   C12       1.0  0.002747332866945786  0.2403486636062695  0.1470313361130522  1.0000
  C   C13       1.0  0.25546842317801594  0.06368576762157119  0.8818222509417736  1.0000
  C   C14       1.0  0.744528355751868  0.936308824319106  0.11817604432399526  1.0000
  C   C15       1.0  0.30932759806625393  0.9719163411402292  0.3278534182897985  1.0000
  C   C16       1.0  0.6906730767137503  0.028080898189401196  0.6721443879411382  1.0000
  C   C17       1.0  0.7353951810526027  0.46550693983488156  0.825907087592057  1.0000
  C   C18       1.0  0.2645992556158205  0.5344879093159918  0.17409366326628373  1.0000
  C   C19       1.0  0.13477269975700068  0.2596607056370104  0.5434039009365249  1.0000
  C   C20       1.0  0.8652289442976482  0.7403404355147531  0.45659215640704787  1.0000
  C   C21       1.0  0.21755870690989101  0.5035740979193762  0.7489043539570517  1.0000
  C   C22       1.0  0.7824375193689193  0.49642158852456214  0.2510912136169949  1.0000
  C   C23       1.0  0.952574514993742  0.41643997050095294  0.5124652037860074  1.0000
  C   C24       1.0  0.04742274388558335  0.5835598123256815  0.48753059040743096  1.0000
  N   N1        1.0  0.3190039349028524  0.4335772615433625  0.7849507657799036  1.0000
  N   N2        1.0  0.6809910767038049  0.5664230703343024  0.21505044726622907  1.0000
  N   N3        1.0  0.26750520147495394  0.2807461031025795  0.6555274852559663  1.0000
  N   N4        1.0  0.7324937059818171  0.719256876164039  0.34447323875533437  1.0000
  N   N5        1.0  0.09826039613155045  0.39636487039525997  0.5978071134132819  1.0000
  N   N6        1.0  0.9017424388382695  0.603640853540597  0.40219410931656796  1.0000
  O   O1        1.0  0.2390309057239435  0.9894107737581166  0.7473049397432588  1.0000
  O   O2        1.0  0.7609682154674146  0.010583560972371196  0.25269089992993793  1.0000
  O   O3        1.0  0.33956082959695527  0.23695062667927402  0.9734647457369761  1.0000
  O   O4        1.0  0.6604346040560644  0.7630435588249539  0.026529344681513557  1.0000
  O   O5        1.0  0.4879428531962661  0.0367208943878481  0.370293706068324  1.0000
  O   O6        1.0  0.5120553210076011  0.9632761157505669  0.6297016169883065  1.0000
  O   O7        1.0  0.22610644493779825  0.9728699213957768  0.41452709195201715  1.0000
  O   O8        1.0  0.7738945014798588  0.027130010657110386  0.5854704514961283  1.0000
  O   O9        1.0  0.6444201608299664  0.39081421827769003  0.8913879307749184  1.0000
  O   O10       1.0  0.35557850665208685  0.6091861655459567  0.10861404377254756  1.0000
  O   O11       1.0  0.6711785881409966  0.3764312399436207  0.6827025335274541  1.0000
  O   O12       1.0  0.3288115860508541  0.6235579772542013  0.31729600588838036  1.0000
  O   O13       1.0  0.5057873019194902  0.4209762175585752  0.45332384626575356  1.0000
  O   O14       1.0  0.4942573260386993  0.5790600278091489  0.5466998986928715  1.0000
