data_image0
_chemical_formula_structural       Zn4H132C114O48
_chemical_formula_sum              "Zn4 H132 C114 O48"
_cell_length_a       9.718546395348163
_cell_length_b       20.331481654702248
_cell_length_c       20.33145556810072
_cell_angle_alpha    119.99805215096464
_cell_angle_beta     89.99907380061346
_cell_angle_gamma    90.00070712693075

_space_group_name_H-M_alt    "P 1"
_space_group_IT_number       1

loop_
  _space_group_symop_operation_xyz
  'x, y, z'

loop_
  _atom_site_type_symbol
  _atom_site_label
  _atom_site_symmetry_multiplicity
  _atom_site_fract_x
  _atom_site_fract_y
  _atom_site_fract_z
  _atom_site_occupancy
  Zn  Zn1       1.0  0.4288109252024699  0.66666854426515  0.33332300033141854  1.0000
  Zn  Zn2       1.0  0.071189909784124  0.33333131771473756  0.6666686255563761  1.0000
  Zn  Zn3       1.0  0.5711885519135649  0.3333375030125509  0.6666674242504413  1.0000
  Zn  Zn4       1.0  0.9288147119782554  0.6666633560036958  0.3333223522447284  1.0000
  H   H1        1.0  0.4957693027302384  0.5615086427352125  0.2035877928709553  1.0000
  H   H2        1.0  0.4957468278357169  0.6420812443969554  0.4384786395442575  1.0000
  H   H3        1.0  0.4957707561942686  0.7964025807714847  0.3579055280421172  1.0000
  H   H4        1.0  0.0042557441499582  0.43849188790736077  0.6420959805364176  1.0000
  H   H5        1.0  0.004241812026030802  0.3579264299494653  0.796410266894881  1.0000
  H   H6        1.0  0.0042334963094035  0.2035975566341292  0.5615105376576607  1.0000
  H   H7        1.0  0.5042486953406639  0.43848006760576635  0.7964091482983661  1.0000
  H   H8        1.0  0.504241330566373  0.35791645641004516  0.5615142295360939  1.0000
  H   H9        1.0  0.5042451840920921  0.2036024214698956  0.6420957782392519  1.0000
  H   H10       1.0  0.9957673987523423  0.5615111821902444  0.35791020888768793  1.0000
  H   H11       1.0  0.9957669257210853  0.6420853114826598  0.20358528386071834  1.0000
  H   H12       1.0  0.9957495173775684  0.7963974975987044  0.43847514132237825  1.0000
  H   H13       1.0  0.6398769592512894  0.5943551242282368  0.2473097630282339  1.0000
  H   H14       1.0  0.6398688694919415  0.6529474893255837  0.40562906565035206  1.0000
  H   H15       1.0  0.6398845204946328  0.7526797672186875  0.34703357212361396  1.0000
  H   H16       1.0  0.8601269582734832  0.40563991438742164  0.6529575286106493  1.0000
  H   H17       1.0  0.8601255490488385  0.3470517411810333  0.7526897786467259  1.0000
  H   H18       1.0  0.8601269347797641  0.24731894133129367  0.5943621718342768  1.0000
  H   H19       1.0  0.3601256043281326  0.4056307463795931  0.7526900179098632  1.0000
  H   H20       1.0  0.3601326653259705  0.34704618025750733  0.5943648836324797  1.0000
  H   H21       1.0  0.3601314198133565  0.24731257910035953  0.6529567820548507  1.0000
  H   H22       1.0  0.13987148973581753  0.5943595459058528  0.3470365319672338  1.0000
  H   H23       1.0  0.1398811306993224  0.6529579363410251  0.24730881969710342  1.0000
  H   H24       1.0  0.13987357127724925  0.7526847785330588  0.40562762915779876  1.0000
  H   H25       1.0  0.9520564701495859  0.39157538865249114  0.20786782292901052  1.0000
  H   H26       1.0  0.9520582742032957  0.8163558002464909  0.6084564798791873  1.0000
  H   H27       1.0  0.9520496947170046  0.7921169602076858  0.18368291158069644  1.0000
  H   H28       1.0  0.5479649065389439  0.6084466776582643  0.8163472051578609  1.0000
  H   H29       1.0  0.547933086154508  0.1836903505596653  0.7921206793531966  1.0000
  H   H30       1.0  0.5479525042160276  0.20787760555801782  0.391569770919574  1.0000
  H   H31       1.0  0.047925514895453616  0.6084359427646717  0.7921114155174891  1.0000
  H   H32       1.0  0.047955608281427003  0.18367941745621852  0.3915608433134138  1.0000
  H   H33       1.0  0.047977563856370906  0.20791215661754592  0.8163533001784485  1.0000
  H   H34       1.0  0.4520397149025684  0.39156119371487813  0.18367287272474905  1.0000
  H   H35       1.0  0.4520725645274128  0.8163001601643742  0.2078695431057441  1.0000
  H   H36       1.0  0.4520407980378496  0.7920820283950718  0.6084503447432398  1.0000
  H   H37       1.0  0.782748877354287  0.2894470791666706  0.15237062242630373  1.0000
  H   H38       1.0  0.782744794439907  0.8629659085132176  0.7105901142230593  1.0000
  H   H39       1.0  0.7827295790429433  0.8476265560802575  0.13706290138100766  1.0000
  H   H40       1.0  0.7172839678980908  0.7105767630639761  0.8629561633119351  1.0000
  H   H41       1.0  0.7172336162630586  0.13706419920509913  0.8476213020325787  1.0000
  H   H42       1.0  0.7172566086599945  0.1523613153795225  0.2894273485797356  1.0000
  H   H43       1.0  0.21722487582347585  0.7105742558481652  0.8476271388150495  1.0000
  H   H44       1.0  0.2172464506905172  0.1370461667650815  0.2894228087609392  1.0000
  H   H45       1.0  0.21728944786516283  0.15238589403318065  0.8629594834066123  1.0000
  H   H46       1.0  0.2827402041025877  0.2894253642951554  0.1370411321604479  1.0000
  H   H47       1.0  0.28276688971735814  0.862927467860601  0.1523638294148881  1.0000
  H   H48       1.0  0.2827325780738477  0.8476113607803201  0.7105836595266624  1.0000
  H   H49       1.0  0.9477553811820982  0.2151666981262321  0.928839124247794  1.0000
  H   H50       1.0  0.9477621806373977  0.7137030665103694  0.7848285965512858  1.0000
  H   H51       1.0  0.9477437869223878  0.07115713233941522  0.28631710616583916  1.0000
  H   H52       1.0  0.5522473300130528  0.7848278526357008  0.7137092722138121  1.0000
  H   H53       1.0  0.5522332239150459  0.2863232163862008  0.07115217915949763  1.0000
  H   H54       1.0  0.552211295788233  0.9288387718323604  0.21515709021781512  1.0000
  H   H55       1.0  0.052225574563124204  0.7848287718287565  0.07114810635093963  1.0000
  H   H56       1.0  0.0522187755551045  0.2863124483649457  0.21514744209727615  1.0000
  H   H57       1.0  0.0522423136747676  0.9288740189023059  0.7136944468584829  1.0000
  H   H58       1.0  0.44775729109579754  0.21515044157820987  0.2863079218246298  1.0000
  H   H59       1.0  0.44775596351512814  0.7136767561919585  0.9288384181419715  1.0000
  H   H60       1.0  0.44777994942738547  0.0711254228963298  0.7848141995531819  1.0000
  H   H61       1.0  0.12302129946136385  0.3160963589371732  0.9842275380478042  1.0000
  H   H62       1.0  0.12302987734707223  0.6681855740585831  0.6839039869637276  1.0000
  H   H63       1.0  0.12302329049097695  0.0157644703977837  0.3318511258361595  1.0000
  H   H64       1.0  0.3769788163955284  0.6839048206574744  0.6681921030774589  1.0000
  H   H65       1.0  0.3769749968755677  0.3318632093796623  0.015760945180929364  1.0000
  H   H66       1.0  0.37694747116350413  0.9842368506555913  0.31609371658687024  1.0000
  H   H67       1.0  0.8769627432160619  0.6838935690976342  0.015752446781739638  1.0000
  H   H68       1.0  0.8769696001575014  0.331855273150282  0.3160900006914034  1.0000
  H   H69       1.0  0.8769782444367707  0.9842858623789753  0.6681796086693481  1.0000
  H   H70       1.0  0.6230093412019289  0.3160903832784215  0.3318465443196175  1.0000
  H   H71       1.0  0.6230357987991655  0.6681348163567975  0.9842237295749781  1.0000
  H   H72       1.0  0.6230427447386832  0.015707679695097537  0.6838834662475222  1.0000
  H   H73       1.0  0.15808696378904594  0.43823508998922006  0.2403712117570009  1.0000
  H   H74       1.0  0.15811401500263866  0.8021764838056669  0.561754076856829  1.0000
  H   H75       1.0  0.1580846219885714  0.759614207992712  0.1978476788422868  1.0000
  H   H76       1.0  0.3419049211875987  0.5617547310099625  0.8021839792404394  1.0000
  H   H77       1.0  0.3418988898698458  0.19785211910939177  0.759617759172066  1.0000
  H   H78       1.0  0.34192852712611455  0.24038631722015674  0.4382388450045268  1.0000
  H   H79       1.0  0.8418929631237476  0.5617691421446551  0.7596151259948057  1.0000
  H   H80       1.0  0.8419235338986796  0.1978563009707486  0.4382420711671244  1.0000
  H   H81       1.0  0.8419097101444919  0.24042759092021265  0.8021807692024011  1.0000
  H   H82       1.0  0.6580780917350424  0.4382397380415526  0.19784655003068963  1.0000
  H   H83       1.0  0.6580861816522801  0.8021355928020384  0.24036739279186758  1.0000
  H   H84       1.0  0.6581213684034781  0.7595661381956232  0.5617491023472282  1.0000
  H   H85       1.0  0.06925595047976431  0.5021148353648996  0.21797967584117836  1.0000
  H   H86       1.0  0.06924266526912251  0.7159132399262873  0.4978891479780004  1.0000
  H   H87       1.0  0.06925947193579421  0.7819992711957084  0.28411487231188914  1.0000
  H   H88       1.0  0.4307624631996207  0.49788645979283075  0.7159138571591653  1.0000
  H   H89       1.0  0.43074007076074855  0.2841165618729705  0.782000164421582  1.0000
  H   H90       1.0  0.43075011464222973  0.21799851421103963  0.5021206549485058  1.0000
  H   H91       1.0  0.9307486717372982  0.4978811731297129  0.7819853754535018  1.0000
  H   H92       1.0  0.9307465222796271  0.2841219425616827  0.5021213247912611  1.0000
  H   H93       1.0  0.9307554393617824  0.21803210266505593  0.7159082620687939  1.0000
  H   H94       1.0  0.5692586215116933  0.5021242660323252  0.2841141865936834  1.0000
  H   H95       1.0  0.5692532323592232  0.7158710534771301  0.21799000243418487  1.0000
  H   H96       1.0  0.5692493616925206  0.7819606541267845  0.49788025293797494  1.0000
  H   H97       1.0  0.8806827489352501  0.10807909759284223  0.8987790625848361  1.0000
  H   H98       1.0  0.8807070998992191  0.7907214672715028  0.8919313307301664  1.0000
  H   H99       1.0  0.8806809180316295  0.1012153794569386  0.20929165773682706  1.0000
  H   H100      1.0  0.619300648850036  0.8919282473115829  0.7907237869529595  1.0000
  H   H101      1.0  0.6193065692768017  0.209300864755086  0.10121916233723031  1.0000
  H   H102      1.0  0.6192999083524029  0.8987767667477441  0.10807197256258413  1.0000
  H   H103      1.0  0.1193218727998229  0.891915216045625  0.10121325896623304  1.0000
  H   H104      1.0  0.1192954640662549  0.20929019804350452  0.10806527982316542  1.0000
  H   H105      1.0  0.11927945830446875  0.8987917774425256  0.7907163470045901  1.0000
  H   H106      1.0  0.380690596086069  0.10807005087698231  0.2092901254582245  1.0000
  H   H107      1.0  0.38068158915962164  0.7907074689944834  0.8987797961474725  1.0000
  H   H108      1.0  0.38073146628718757  0.10120802940559057  0.8919170787509997  1.0000
  H   H109      1.0  0.7417732663743878  0.05899183913815873  0.9115880031205492  1.0000
  H   H110      1.0  0.7418241598364546  0.8526076755618276  0.9410247305613169  1.0000
  H   H111      1.0  0.7417783086094548  0.0884183584687435  0.14739995760614727  1.0000
  H   H112      1.0  0.7581790312667566  0.9410213611705984  0.8526098041078852  1.0000
  H   H113      1.0  0.7582125630094368  0.14740664197671546  0.08841444338224139  1.0000
  H   H114      1.0  0.7582157090140529  0.9115780459151425  0.05898383703058136  1.0000
  H   H115      1.0  0.2582138628376711  0.9410009375842139  0.0884147084043365  1.0000
  H   H116      1.0  0.2582144175964772  0.147388397595023  0.05896878241171782  1.0000
  H   H117      1.0  0.25817795186593173  0.9115887223163882  0.8526091069264295  1.0000
  H   H118      1.0  0.2417731133630455  0.058972211772960664  0.14738916025077486  1.0000
  H   H119      1.0  0.24178794287398386  0.8525901308246447  0.9115803373525395  1.0000
  H   H120      1.0  0.24183007096265646  0.08841255568956545  0.9410161311645028  1.0000
  H   H121      1.0  0.8899675857394413  0.0837683386408158  0.97096012237251  1.0000
  H   H122      1.0  0.8899963598102758  0.8872010301336388  0.9162332773770742  1.0000
  H   H123      1.0  0.8899741575037085  0.029034712784785206  0.1128017732174413  1.0000
  H   H124      1.0  0.6100057633185827  0.9162305360993912  0.887203227229044  1.0000
  H   H125      1.0  0.6100160591177827  0.11280903667390871  0.02904151947499401  1.0000
  H   H126      1.0  0.6100148809666095  0.970958398878679  0.08376239479692772  1.0000
  H   H127      1.0  0.11002263037936903  0.9162252899993959  0.02904173722667048  1.0000
  H   H128      1.0  0.11001237781353984  0.11278872525343789  0.08375278206973749  1.0000
  H   H129      1.0  0.1099985664541308  0.9709795785931519  0.8872059826880089  1.0000
  H   H130      1.0  0.389975192235518  0.0837551675441546  0.11278786769177879  1.0000
  H   H131      1.0  0.3899751860583862  0.8871867319837321  0.9709562327612318  1.0000
  H   H132      1.0  0.390011348875909  0.02902267046058417  0.9162234976662375  1.0000
  C   C1        1.0  0.0543032308969202  0.3580135547894585  0.0999423992240196  1.0000
  C   C2        1.0  0.054286687357240716  0.7419762959045995  0.6419919490615981  1.0000
  C   C3        1.0  0.054282855973703206  0.9000481586471735  0.2580653264389455  1.0000
  C   C4        1.0  0.4457301111971433  0.6419861898628696  0.7419756912808637  1.0000
  C   C5        1.0  0.4456936833264181  0.25806255555538365  0.900046941903227  1.0000
  C   C6        1.0  0.4457007907212329  0.09995004682389919  0.3580215902847073  1.0000
  C   C7        1.0  0.9456983040251931  0.6419707904172044  0.9000382500705371  1.0000
  C   C8        1.0  0.9457045583075683  0.2580604234785255  0.358008133783123  1.0000
  C   C9        1.0  0.9457238235502958  0.09999134804899501  0.7419693484820085  1.0000
  C   C10       1.0  0.5542786257559484  0.3580083553322949  0.25805377813011177  1.0000
  C   C11       1.0  0.5543016776358273  0.7419207445842274  0.09994458916311554  1.0000
  C   C12       1.0  0.5542945697470288  0.9000032751489969  0.6419763109676353  1.0000
  C   C13       1.0  0.954220892809076  0.35196886175594955  0.1468588728323823  1.0000
  C   C14       1.0  0.9542284365194504  0.7949528450823848  0.6480642495753628  1.0000
  C   C15       1.0  0.9542088791064958  0.8531297212357316  0.2050935887805992  1.0000
  C   C16       1.0  0.5458018744939322  0.6480516981683097  0.7949409483828233  1.0000
  C   C17       1.0  0.545764312982165  0.20509499315125623  0.8531297480041075  1.0000
  C   C18       1.0  0.5457781924515643  0.14686829370681656  0.3519656360686412  1.0000
  C   C19       1.0  0.04576623700054941  0.6480423174507023  0.8531224851537187  1.0000
  C   C20       1.0  0.04577927218941371  0.20508806675380947  0.3519581998402614  1.0000
  C   C21       1.0  0.045824553191934604  0.1468992433803891  0.7949447425148576  1.0000
  C   C22       1.0  0.4542058338028952  0.35196031574105285  0.2050838399689141  1.0000
  C   C23       1.0  0.45422796133206594  0.7948994931517035  0.14685649889025146  1.0000
  C   C24       1.0  0.45419555965298036  0.8530952397080681  0.6480515638273232  1.0000
  C   C25       1.0  0.8567503524107636  0.2941939258108022  0.11472186457376674  1.0000
  C   C26       1.0  0.8567739176196415  0.820576674391951  0.7058369810186277  1.0000
  C   C27       1.0  0.856746590971575  0.8852664665801768  0.17945505770919823  1.0000
  C   C28       1.0  0.6432529744564874  0.7058244372636936  0.820568264271003  1.0000
  C   C29       1.0  0.6432306910739528  0.17945803794728468  0.885268642693937  1.0000
  C   C30       1.0  0.6432315985047836  0.11472430237923703  0.2941825044227784  1.0000
  C   C31       1.0  0.1432069374771814  0.7058127302796037  0.8852600819186947  1.0000
  C   C32       1.0  0.14325128338151674  0.17944910191341987  0.294176012207771  1.0000
  C   C33       1.0  0.14327140720944703  0.11475716969939498  0.8205620428998726  1.0000
  C   C34       1.0  0.3567310678317314  0.2941814111017607  0.1794469509787717  1.0000
  C   C35       1.0  0.35678524918260734  0.8205375989901356  0.11472727387936037  1.0000
  C   C36       1.0  0.35675244359404  0.8852400535283421  0.7058122322398929  1.0000
  C   C37       1.0  0.8548926961201675  0.24184189372924442  0.03641818997945021  1.0000
  C   C38       1.0  0.8549071944571979  0.7946119812429658  0.7581729284731294  1.0000
  C   C39       1.0  0.8548888600013672  0.9635750513885951  0.20541126215944436  1.0000
  C   C40       1.0  0.6451093030187779  0.7581659635706472  0.7946086046135931  1.0000
  C   C41       1.0  0.645093151840115  0.2054165334736382  0.9635750640909746  1.0000
  C   C42       1.0  0.6450805142332856  0.03641950151871498  0.24183264214763509  1.0000
  C   C43       1.0  0.14508208586548227  0.7581575869956653  0.9635719155338975  1.0000
  C   C44       1.0  0.14509742745580925  0.2054050386004818  0.24182619688679807  1.0000
  C   C45       1.0  0.1451373698329377  0.03643696829220025  0.7945987653507485  1.0000
  C   C46       1.0  0.35488502883777784  0.24182974369990262  0.20540101303308228  1.0000
  C   C47       1.0  0.3549083830253111  0.7945748291584707  0.03641430646525378  1.0000
  C   C48       1.0  0.3548870646742018  0.9635608066535111  0.7581638482829334  1.0000
  C   C49       1.0  0.9507830554451786  0.25227912610245085  0.9901692451579862  1.0000
  C   C50       1.0  0.9508016393414991  0.7379315875202079  0.7477237795521601  1.0000
  C   C51       1.0  0.9507788381915748  0.009821605876688028  0.2620971833655403  1.0000
  C   C52       1.0  0.5492171832512157  0.7477182832890107  0.7379318939418766  1.0000
  C   C53       1.0  0.549206744830009  0.2621024156622767  0.009821381072583771  1.0000
  C   C54       1.0  0.5491873454636363  0.990170792479404  0.2522715020206761  1.0000
  C   C55       1.0  0.049182465869790803  0.7477077543325521  0.009812803644123924  1.0000
  C   C56       1.0  0.049213272547440616  0.2620956757648756  0.2522611676446401  1.0000
  C   C57       1.0  0.04921549410103411  0.9902065943740367  0.7379114186278031  1.0000
  C   C58       1.0  0.45075965587431455  0.25226555281156493  0.26209254594461134  1.0000
  C   C59       1.0  0.45080919537263503  0.7378875066695301  0.9901733644375027  1.0000
  C   C60       1.0  0.45080801554311734  0.00979169842755569  0.7477014915688754  1.0000
  C   C61       1.0  0.04983412722896221  0.30840841991120266  0.020520781148334825  1.0000
  C   C62       1.0  0.04982183554884051  0.7121593698063436  0.6915905450142646  1.0000
  C   C63       1.0  0.049813572686666405  0.979472382377523  0.28787637372043645  1.0000
  C   C64       1.0  0.4501928263337263  0.691587410289607  0.7121608386258416  1.0000
  C   C65       1.0  0.45015841603385826  0.287881106235474  0.9794696752906588  1.0000
  C   C66       1.0  0.45015497374928526  0.02052798692648143  0.3084090880963473  1.0000
  C   C67       1.0  0.9501746104839202  0.6915854428266783  0.979463138275264  1.0000
  C   C68       1.0  0.9501652943762624  0.2878757627801463  0.30840227161708356  1.0000
  C   C69       1.0  0.9502013385887551  0.02056215034788521  0.7121504874709998  1.0000
  C   C70       1.0  0.5498138526119549  0.3084047870242728  0.2878719623453136  1.0000
  C   C71       1.0  0.5498235686861506  0.7121131721910459  0.020515795830498035  1.0000
  C   C72       1.0  0.5498177497584606  0.9794332657460815  0.691584817153803  1.0000
  C   C73       1.0  0.15971058040863545  0.46515500291688033  0.20487756704914528  1.0000
  C   C74       1.0  0.15970855313194224  0.7397627269344084  0.5348429699932638  1.0000
  C   C75       1.0  0.15971081296015655  0.7951072417782044  0.2602601173630957  1.0000
  C   C76       1.0  0.3403025069713125  0.5348441114489261  0.7397706333926165  1.0000
  C   C77       1.0  0.34028362773323556  0.2602648443077626  0.7951094594016581  1.0000
  C   C78       1.0  0.3402956839878187  0.2048942348190224  0.4651603129571881  1.0000
  C   C79       1.0  0.8402878677978479  0.5348382566833719  0.7951000698490204  1.0000
  C   C80       1.0  0.840297097851931  0.26026748159397783  0.4651596890201901  1.0000
  C   C81       1.0  0.8403020403735159  0.20492770666935897  0.7397682954470353  1.0000
  C   C82       1.0  0.6597010852860451  0.4651573603385017  0.2602578114321901  1.0000
  C   C83       1.0  0.6597096753763196  0.7397229789048154  0.2048814832601736  1.0000
  C   C84       1.0  0.6597130531114034  0.7950684172947574  0.5348361274583198  1.0000
  C   C85       1.0  0.2891849890143305  0.5133940826002785  0.22315481208279658  1.0000
  C   C86       1.0  0.2891624966937769  0.7097873778602306  0.48659285905816324  1.0000
  C   C87       1.0  0.2891790221665786  0.7768300034161087  0.29021430053858677  1.0000
  C   C88       1.0  0.2108282957569969  0.48660587648587483  0.7097957346921362  1.0000
  C   C89       1.0  0.21082771975870432  0.29022622143246224  0.7768263622167595  1.0000
  C   C90       1.0  0.2108271844803582  0.22317627119099356  0.5133951536902329  1.0000
  C   C91       1.0  0.710821690845961  0.48659705745887993  0.7768229770086491  1.0000
  C   C92       1.0  0.710834922575451  0.2902217169893433  0.5133955016168414  1.0000
  C   C93       1.0  0.710832802314748  0.2231946369862358  0.7097998286183226  1.0000
  C   C94       1.0  0.7891691230225889  0.5133889993389645  0.29021077972042525  1.0000
  C   C95       1.0  0.7891861627272194  0.7097677730661331  0.22315939277449098  1.0000
  C   C96       1.0  0.7891702343970338  0.7768012587008073  0.4865923109442392  1.0000
  C   C97       1.0  0.7499936645241193  0.177261798376918  0.999998401147536  1.0000
  C   C98       1.0  0.7500060062800813  0.8227390577452526  0.822742027378368  1.0000
  C   C99       1.0  0.7499872854453786  0.9999970190542626  0.17725516473983305  1.0000
  C   C100      1.0  0.2499981994290224  0.8227242372707905  0.9999942757715417  1.0000
  C   C101      1.0  0.24999244173795895  0.1772389492641722  0.177235123444639  1.0000
  C   C102      1.0  0.25000862055123463  0.9999990912611452  0.8227465090509439  1.0000
  C   C103      1.0  0.8200710470047811  0.10299037603190439  0.941463740463746  1.0000
  C   C104      1.0  0.8200936269939946  0.8384867232845037  0.8970136842215763  1.0000
  C   C105      1.0  0.8200692288260855  0.05853460791715288  0.16151837696111926  1.0000
  C   C106      1.0  0.6799128823855582  0.8970096698542918  0.8384898610030903  1.0000
  C   C107      1.0  0.6799155317205035  0.1615283697870211  0.0585373955078552  1.0000
  C   C108      1.0  0.6799176343758333  0.9414594964500225  0.10298190285973158  1.0000
  C   C109      1.0  0.17993151676131452  0.8969967474970703  0.058525934528333386  1.0000
  C   C110      1.0  0.17990790811140303  0.16150935556837007  0.1029650680873431  1.0000
  C   C111      1.0  0.17989526341103362  0.94147453678643  0.8384876399635104  1.0000
  C   C112      1.0  0.32007733360139673  0.10296893452133563  0.1615083331869016  1.0000
  C   C113      1.0  0.3200715975630004  0.8384729407894083  0.9414676025008503  1.0000
  C   C114      1.0  0.3201137402390088  0.05852669909564401  0.897009683734211  1.0000
  O   O1        1.0  0.1586060831122538  0.4084163234903073  0.1255966022333226  1.0000
  O   O2        1.0  0.15858779620391772  0.7172309387011353  0.5915858448525455  1.0000
  O   O3        1.0  0.15858268502618966  0.8743919124192844  0.2828095858546719  1.0000
  O   O4        1.0  0.3414190118754236  0.5915866599340661  0.7172379800893438  1.0000
  O   O5        1.0  0.3413979738082205  0.28281294069615387  0.8743917091169991  1.0000
  O   O6        1.0  0.3414089542982452  0.12560971906811588  0.40842818932461705  1.0000
  O   O7        1.0  0.841418088930972  0.5915654864698539  0.8743826475963842  1.0000
  O   O8        1.0  0.8414199128736684  0.28281845709042136  0.40842123490241283  1.0000
  O   O9        1.0  0.8414342839613201  0.1256445262524154  0.7172311080869561  1.0000
  O   O10       1.0  0.6585701746706578  0.4084187407570782  0.28280916023677355  1.0000
  O   O11       1.0  0.658584010706349  0.7171727629487918  0.12559938580054114  1.0000
  O   O12       1.0  0.6585781743795281  0.8743511677977336  0.5915818204118962  1.0000
  O   O13       1.0  0.2903565671301038  0.5705256762191339  0.29097855184355137  1.0000
  O   O14       1.0  0.29036336616897535  0.7204646125160821  0.4294667411513515  1.0000
  O   O15       1.0  0.29037089327116666  0.7090077776862814  0.27952711862282353  1.0000
  O   O16       1.0  0.20964407438444976  0.42946616676564997  0.7204729684051472  1.0000
  O   O17       1.0  0.20963924788989632  0.27953099501392126  0.709009087585187  1.0000
  O   O18       1.0  0.20964070334748194  0.2909961782349697  0.5705315405645236  1.0000
  O   O19       1.0  0.709625417689381  0.42947250169572015  0.7090040034483351  1.0000
  O   O20       1.0  0.709643313492798  0.2795354713757803  0.5705296468184429  1.0000
  O   O21       1.0  0.7096450471061218  0.291008085823897  0.7204770977288675  1.0000
  O   O22       1.0  0.790363634085729  0.5705215598939759  0.2795229891288002  1.0000
  O   O23       1.0  0.790374634438628  0.7204616148097999  0.2909849377680018  1.0000
  O   O24       1.0  0.7903711210705213  0.7089962237234745  0.4294617089891731  1.0000
  O   O25       1.0  0.3818475791460331  0.49424952068765277  0.1738821180341503  1.0000
  O   O26       1.0  0.38184539851602756  0.6796384528947571  0.5057472220871375  1.0000
  O   O27       1.0  0.3818524732336926  0.8261125643935402  0.3203459980463421  1.0000
  O   O28       1.0  0.11816395865076153  0.5057544785009043  0.6796626210796717  1.0000
  O   O29       1.0  0.11815909741316943  0.3203730835740971  0.8261167724028482  1.0000
  O   O30       1.0  0.11815046128846522  0.17389615370451858  0.4942436778883845  1.0000
  O   O31       1.0  0.6181518977015656  0.5057397019256414  0.8261113598883297  1.0000
  O   O32       1.0  0.6181674549274803  0.32035446136254114  0.49424256415728257  1.0000
  O   O33       1.0  0.6181624380737746  0.17390910454707145  0.6796691352361178  1.0000
  O   O34       1.0  0.8818355179769739  0.4942346066123662  0.3203437820411211  1.0000
  O   O35       1.0  0.8818558140271477  0.6796368779303491  0.1738815419427482  1.0000
  O   O36       1.0  0.8818469577844825  0.8260996558890172  0.5057461640479205  1.0000
  O   O37       1.0  0.5512108262746268  0.6094340789444389  0.23399366734297897  1.0000
  O   O38       1.0  0.5511919160967411  0.6245562881201536  0.39055708463047256  1.0000
  O   O39       1.0  0.5512166320788198  0.7660027013684784  0.37543013925414215  1.0000
  O   O40       1.0  0.9487999688884089  0.39056841605815856  0.6245645012074589  1.0000
  O   O41       1.0  0.9487963583276127  0.375446369326589  0.7660074017794827  1.0000
  O   O42       1.0  0.9487971766199834  0.2340001276594563  0.6094367062187587  1.0000
  O   O43       1.0  0.4487948242108289  0.39055763802693366  0.766009120232546  1.0000
  O   O44       1.0  0.4487941843830825  0.3754441558237502  0.6094379596550681  1.0000
  O   O45       1.0  0.4488044530508831  0.23399921812398358  0.6245663804220314  1.0000
  O   O46       1.0  0.051207739776714306  0.6094353389971943  0.37543215026381194  1.0000
  O   O47       1.0  0.05121752419130841  0.6245610012542571  0.23398661781475036  1.0000
  O   O48       1.0  0.05120024256471822  0.7660061274779296  0.3905544941757385  1.0000
