data_image0
_chemical_formula_structural       Cd2H54C54N8O10
_chemical_formula_sum              "Cd2 H54 C54 N8 O10"
_cell_length_a       8.516918177703225
_cell_length_b       10.562353388921535
_cell_length_c       14.482
_cell_angle_alpha    82.215285542046
_cell_angle_beta     77.67506954619039
_cell_angle_gamma    85.73747287494186

_space_group_name_H-M_alt    "P 1"
_space_group_IT_number       1

loop_
  _space_group_symop_operation_xyz
  'x, y, z'

loop_
  _atom_site_type_symbol
  _atom_site_label
  _atom_site_symmetry_multiplicity
  _atom_site_fract_x
  _atom_site_fract_y
  _atom_site_fract_z
  _atom_site_occupancy
  Cd  Cd1       1.0  0.23737771483629186  0.0931555229791599  0.44739022466585243  1.0000
  Cd  Cd2       1.0  0.7626224863937666  0.9068438571319604  0.5526107089781361  1.0000
  H   H1        1.0  0.14229829844708766  0.10859439117962208  0.20616281277060008  1.0000
  H   H2        1.0  0.8577031046154814  0.8914049889314981  0.7938372794902193  1.0000
  H   H3        1.0  0.1251766506448675  0.2657515275229017  0.06247441781025739  1.0000
  H   H4        1.0  0.8748221794054274  0.7342507224441377  0.9375257139365231  1.0000
  H   H5        1.0  0.8810017708876288  0.4046563802510406  0.05551086513142416  1.0000
  H   H6        1.0  0.1189960266774079  0.5953429998600797  0.9444896797418278  1.0000
  H   H7        1.0  0.6651226196568557  0.23567161106616646  0.3371527952866842  1.0000
  H   H8        1.0  0.3348775815732026  0.7643277690449537  0.6628474478449462  1.0000
  H   H9        1.0  0.6834179280699715  0.5646824158900116  0.10196697468432353  1.0000
  H   H10       1.0  0.3165847897232865  0.4353150509838315  0.8980324510304312  1.0000
  H   H11       1.0  0.5900896351598846  0.44714459706270293  0.05777133366241569  1.0000
  H   H12       1.0  0.4099106225192628  0.5528538264297822  0.9422289968877704  1.0000
  H   H13       1.0  0.5220000266568121  0.7254756596767534  0.1941794232046234  1.0000
  H   H14       1.0  0.4780012635075935  0.2745256336716508  0.8058204942190839  1.0000
  H   H15       1.0  0.25651482865175274  0.8383356133637035  0.2391338940473418  1.0000
  H   H16       1.0  0.7434877197942454  0.1616647233660586  0.7608652694117592  1.0000
  H   H17       1.0  0.0275201165986445  0.5339711311321267  0.1555216780895634  1.0000
  H   H18       1.0  0.9724811171166722  0.4660311188349127  0.8444781519155953  1.0000
  H   H19       1.0  0.29267528931748643  0.4207160939476323  0.11164476697606318  1.0000
  H   H20       1.0  0.7073259443978301  0.5792861560193998  0.888354372516737  1.0000
  H   H21       1.0  0.9698127876323  0.8472436461217894  0.2575389387027869  1.0000
  H   H22       1.0  0.030186155316165798  0.1527566906079727  0.7424620583934567  1.0000
  H   H23       1.0  0.869021186932912  0.7062418853389119  0.2556301125557212  1.0000
  H   H24       1.0  0.1309802161296645  0.2937574947722155  0.7443692891927396  1.0000
  H   H25       1.0  0.8751283546421575  0.9593918755419891  0.9641517002054057  1.0000
  H   H26       1.0  0.12487179013881901  0.0406084611877731  0.0358484555076686  1.0000
  H   H27       1.0  0.6564211581760944  0.1251027590174871  0.9529633322685667  1.0000
  H   H28       1.0  0.3435778412214532  0.874896621093633  0.04703637122151601  1.0000
  H   H29       1.0  0.46104814195787475  0.1778449710110479  0.09984134520321668  1.0000
  H   H30       1.0  0.5389496556071691  0.8221544091000723  0.90015850915767  1.0000
  H   H31       1.0  0.6928123161753632  0.8862210725315833  0.26785780127529074  1.0000
  H   H32       1.0  0.3071889175399534  0.113781177435456  0.7321420287298608  1.0000
  H   H33       1.0  0.8899127562279787  0.20358375208804347  0.5774229886011637  1.0000
  H   H34       1.0  0.11008738855299781  0.7964165846417187  0.42257716711191046  1.0000
  H   H35       1.0  0.17842269033437216  0.3819644295364313  0.32688303992894413  1.0000
  H   H36       1.0  0.8215774544465972  0.618035907193331  0.6731171157841302  1.0000
  H   H37       1.0  0.8967489478309574  0.531488705766229  0.3724770936372721  1.0000
  H   H38       1.0  0.10324999511750116  0.4685116309635262  0.6275225224342549  1.0000
  H   H39       1.0  0.7007057180312941  0.4825318337236695  0.5931210014236397  1.0000
  H   H40       1.0  0.2992944831987714  0.5174675463874507  0.4068799322203488  1.0000
  H   H41       1.0  0.6312996216673453  0.3327578800293267  0.5795309104454134  1.0000
  H   H42       1.0  0.3686993212811204  0.6672424567004356  0.4204687056261136  1.0000
  H   H43       1.0  0.5851741823731302  0.4280600552324074  0.41614242593195877  1.0000
  H   H44       1.0  0.4148235022937428  0.571941238115997  0.5838586346165398  1.0000
  H   H45       1.0  0.6364866602105792  0.579199103723333  0.43926717176488245  1.0000
  H   H46       1.0  0.36351222628879754  0.42080218962506416  0.560733047400447  1.0000
  H   H47       1.0  0.5157358528302963  0.35867076569844863  0.23806701155306337  1.0000
  H   H48       1.0  0.4842620011838293  0.6413276577940366  0.7619329302263793  1.0000
  H   H49       1.0  0.020418837844516695  0.8243163672222024  0.0669584768951808  1.0000
  H   H50       1.0  0.9795825652180594  0.1756830128889177  0.9330409248532803  1.0000
  H   H51       1.0  0.47609454373756677  0.12131550582920879  0.5646073788116721  1.0000
  H   H52       1.0  0.5239056010434098  0.8786848309005534  0.4353920863890437  1.0000
  H   H53       1.0  0.5680125863212666  0.135479201385067  0.46097602876174176  1.0000
  H   H54       1.0  0.431986356627192  0.8645211353446953  0.5390228967974265  1.0000
  C   C1        1.0  0.9030137278801503  0.0658048394969555  0.36640384359593975  1.0000
  C   C2        1.0  0.096986473349908  0.9341945406141646  0.6335957090233321  1.0000
  C   C3        1.0  0.9026751974802849  0.1612581604448593  0.2802418427317548  1.0000
  C   C4        1.0  0.0973237454681808  0.838742176284903  0.7197584638521305  1.0000
  C   C5        1.0  0.0348617922825412  0.17020254471118787  0.2030165582656593  1.0000
  C   C6        1.0  0.9651395543309462  0.8297977920185743  0.796983446576611  1.0000
  C   C7        1.0  0.0248921888943769  0.2591518155385799  0.12383801047474212  1.0000
  C   C8        1.0  0.9751068105031705  0.7408475645725403  0.8761630740400576  1.0000
  C   C9        1.0  0.8871052491774734  0.3391873138960619  0.119832749260496  1.0000
  C   C10       1.0  0.1128937502200742  0.6608120662150583  0.8801676447419453  1.0000
  C   C11       1.0  0.755500008027127  0.331403308037757  0.19772271913755896  1.0000
  C   C12       1.0  0.2444977895379097  0.6685960720733632  0.8022778257356932  1.0000
  C   C13       1.0  0.76684603152205  0.24179684020598557  0.2771724955491095  1.0000
  C   C14       1.0  0.23315056421047592  0.7582025399051346  0.7228261286578714  1.0000
  C   C15       1.0  0.5865970508251124  0.49620956701136976  0.12116955155224926  1.0000
  C   C16       1.0  0.413403150404946  0.5037898130997505  0.878830691579381  1.0000
  C   C17       1.0  0.42618438701404665  0.566707577546893  0.147725767550611  1.0000
  C   C18       1.0  0.5738169031503517  0.4332937158015042  0.8522741498731035  1.0000
  C   C19       1.0  0.4136790567843249  0.682885084670815  0.1857813660290617  1.0000
  C   C20       1.0  0.5863234916616733  0.3171152520589473  0.8142177974300323  1.0000
  C   C21       1.0  0.264040627745203  0.746767120705165  0.2108652711041969  1.0000
  C   C22       1.0  0.7359619207007952  0.25323321602459  0.7891332018425385  1.0000
  C   C23       1.0  0.12422512843439651  0.6951422392809192  0.198324951586109  1.0000
  C   C24       1.0  0.875776161730009  0.304859054067478  0.80167427532524  1.0000
  C   C25       1.0  0.1360145073629155  0.5767185915947124  0.1633949645327846  1.0000
  C   C26       1.0  0.8639879281849119  0.42328365837231974  0.8366040240892045  1.0000
  C   C27       1.0  0.2853706480473335  0.5132211162528789  0.13841760624677593  1.0000
  C   C28       1.0  0.7146305856679902  0.48678113371415316  0.8615822237583827  1.0000
  C   C29       1.0  0.9648026775010335  0.7690697276340684  0.2148639262352035  1.0000
  C   C30       1.0  0.0351986126633648  0.23093156571432868  0.7851366817008696  1.0000
  C   C31       1.0  0.8025353050203066  0.9111419446729911  0.11702308083143008  1.0000
  C   C32       1.0  0.19746609804226978  0.0888574354381362  0.882978392454113  1.0000
  C   C33       1.0  0.7885910410921468  0.9803590428520862  0.0281992056676117  1.0000
  C   C34       1.0  0.21140910368882973  0.019641293877676  0.9718009500454626  1.0000
  C   C35       1.0  0.6660178939790313  0.0739188787854062  0.02220868898454141  1.0000
  C   C36       1.0  0.3339823072510342  0.926080501325714  0.9777908636347304  1.0000
  C   C37       1.0  0.5557703934733027  0.1033253357209105  0.10359708383867164  1.0000
  C   C38       1.0  0.4442297513076737  0.8966750010088518  0.8964030718744026  1.0000
  C   C39       1.0  0.5669873149493654  0.0337074143324472  0.19138392776132918  1.0000
  C   C40       1.0  0.4330128298316112  0.966292922397315  0.8086162279517453  1.0000
  C   C41       1.0  0.6875237948298363  0.93739060348409  0.1980757969029695  1.0000
  C   C42       1.0  0.3124762935020584  0.06261068986430729  0.8019249619039072  1.0000
  C   C43       1.0  0.45203576681734603  0.0623208344169583  0.27980218477193114  1.0000
  C   C44       1.0  0.5479631761311197  0.937679502312804  0.7201974312995958  1.0000
  C   C45       1.0  0.932699445228664  0.2738454778199539  0.5170122856563637  1.0000
  C   C46       1.0  0.06729949771980161  0.7261548589098084  0.48298802092752163  1.0000
  C   C47       1.0  0.0788832592095332  0.3699081648403321  0.38748790794545573  1.0000
  C   C48       1.0  0.9211156837389325  0.6300921718894301  0.6125123986384295  1.0000
  C   C49       1.0  0.9389810371228008  0.4432846408579252  0.4084724619574089  1.0000
  C   C50       1.0  0.0610179622747538  0.556714739253195  0.591527241532674  1.0000
  C   C51       1.0  0.6877884851832903  0.4199431460880376  0.5406108470047783  1.0000
  C   C52       1.0  0.3122116595976863  0.5800571906417176  0.45938930870829603  1.0000
  C   C53       1.0  0.5855226140404355  0.487309187202392  0.47302267534701764  1.0000
  C   C54       1.0  0.4144775307405411  0.5126911495273703  0.5269774803660638  1.0000
  N   N1        1.0  0.6146725085267519  0.4070727989309049  0.2022858229985758  1.0000
  N   N2        1.0  0.3853252890382848  0.5929265811802154  0.7977147218746763  1.0000
  N   N3        1.0  0.9250041118299208  0.8187019724351359  0.12295500877169727  1.0000
  N   N4        1.0  0.0749959765019739  0.1812993209132685  0.8770450595228211  1.0000
  N   N5        1.0  0.8478321867671639  0.3807083892645906  0.49021006051773947  1.0000
  N   N6        1.0  0.152165554348791  0.6192919474651646  0.5097897064245983  1.0000
  N   N7        1.0  0.0737104492082565  0.2652445196447033  0.45617971040419997  1.0000
  N   N8        1.0  0.9262885501892981  0.7347548604664168  0.5438206835982342  1.0000
  O   O1        1.0  0.0294284841743249  0.9997248305619877  0.3772461812296369  1.0000
  O   O2        1.0  0.9705717170557406  0.0002745495491396  0.6227547524143588  1.0000
  O   O3        1.0  0.7676389005738216  0.05485442594650889  0.4270339855743188  1.0000
  O   O4        1.0  0.2323613006562439  0.9451449541646113  0.5729662575573116  1.0000
  O   O5        1.0  0.4662572820445732  0.1654347574188506  0.5010266073148557  1.0000
  O   O6        1.0  0.5337428627364034  0.8345655793109117  0.4989735483982187  1.0000
  O   O7        1.0  0.4233478581709917  0.9714022225434602  0.3495740348985875  1.0000
  O   O8        1.0  0.5766522866099777  0.02859811418630189  0.6504261208144868  1.0000
  O   O9        1.0  0.38416661999993096  0.1732063272348512  0.28510551682081336  1.0000
  O   O10       1.0  0.6158334683319567  0.826794966113546  0.7148945514737122  1.0000
