data_image0
_chemical_formula_structural       Cu2P4H24C16N4O12
_chemical_formula_sum              "Cu2 P4 H24 C16 N4 O12"
_cell_length_a       8.165570483738772
_cell_length_b       8.89365789114036
_cell_length_c       10.246965246804006
_cell_angle_alpha    70.91707417665752
_cell_angle_beta     69.10728768919209
_cell_angle_gamma    68.23745884725328

_space_group_name_H-M_alt    "P 1"
_space_group_IT_number       1

loop_
  _space_group_symop_operation_xyz
  'x, y, z'

loop_
  _atom_site_type_symbol
  _atom_site_label
  _atom_site_symmetry_multiplicity
  _atom_site_fract_x
  _atom_site_fract_y
  _atom_site_fract_z
  _atom_site_occupancy
  Cu  Cu1       1.0  0.5064844638274124  0.5948557836639735  0.25324772671850576  1.0000
  Cu  Cu2       1.0  0.49351656153677226  0.4051441457501357  0.7467512133934308  1.0000
  P   P1        1.0  0.7732526890640726  0.3290554954945507  0.39007438960130253  1.0000
  P   P2        1.0  0.22675224787965215  0.6709444928518523  0.6099233345097943  1.0000
  P   P3        1.0  0.1709913212199153  0.5595647264361647  0.2431019412072786  1.0000
  P   P4        1.0  0.8290100706944372  0.44043098231566097  0.7569047763049568  1.0000
  H   H1        1.0  0.2629552304274724  0.9327024361087912  0.1908547702115157  1.0000
  H   H2        1.0  0.7370591605767699  0.0672957577312729  0.8091326716414572  1.0000
  H   H3        1.0  0.279301218873698  0.22045300710292545  0.1503803594917343  1.0000
  H   H4        1.0  0.720701522260107  0.7795457016328985  0.8496183558674772  1.0000
  H   H5        1.0  0.8456835019495443  0.004682751630937807  0.15983884619150496  1.0000
  H   H6        1.0  0.15431261846148192  0.9953167563131874  0.84016659405777  1.0000
  H   H7        1.0  0.8095129354816563  0.7278023576631016  0.18992896125300252  1.0000
  H   H8        1.0  0.19048856992283447  0.2722000720398655  0.8100692123635441  1.0000
  H   H9        1.0  0.49391180106550775  0.3989356479695943  0.08116621856400742  1.0000
  H   H10       1.0  0.506085973017889  0.6010627078749665  0.9188380211719648  1.0000
  H   H11       1.0  0.7141453039841039  0.3086820786401746  0.11249311811055658  1.0000
  H   H12       1.0  0.28584974421840303  0.6913201842635956  0.8875080579346462  1.0000
  H   H13       1.0  0.6559250948363484  0.11096095019127725  0.38730616681106506  1.0000
  H   H14       1.0  0.3440765226960492  0.8890337239743293  0.6126978040003336  1.0000
  H   H15       1.0  0.5075201825212472  0.2403672449804192  0.5091065284363908  1.0000
  H   H16       1.0  0.4924833491390712  0.7596336211506698  0.49089629923029326  1.0000
  H   H17       1.0  0.2542334407058745  0.3960991960414689  0.4627752203016798  1.0000
  H   H18       1.0  0.7457663656666397  0.6039014054211692  0.5372317506475782  1.0000
  H   H19       1.0  0.2559489193556884  0.26264918537927445  0.36576121994032457  1.0000
  H   H20       1.0  0.74405076282234  0.7373515532407997  0.634243799487784  1.0000
  H   H21       1.0  0.993625242263107  0.38826721195960096  0.202295184501182  1.0000
  H   H22       1.0  0.006368835154439944  0.611736908475024  0.7976970291179697  1.0000
  H   H23       1.0  0.06002021539612188  0.7000301918163463  0.40824168048074927  1.0000
  H   H24       1.0  0.9399844959295577  0.29997083111627637  0.591758790331177  1.0000
  C   C1        1.0  0.38840561889529807  0.9557875011111252  0.18288343713015814  1.0000
  C   C2        1.0  0.6115997753177991  0.04421422725278753  0.8171068707424212  1.0000
  C   C3        1.0  0.398690753911957  0.11440506124396425  0.16303713247469892  1.0000
  C   C4        1.0  0.6013145949415346  0.8855936867800553  0.8369607722172886  1.0000
  C   C5        1.0  0.5619863125164172  0.13578961173915624  0.15960253309133784  1.0000
  C   C6        1.0  0.4380094974083945  0.8642102390985688  0.8403980283550609  1.0000
  C   C7        1.0  0.71352506067268  0.995185832470597  0.166242285305337  1.0000
  C   C8        1.0  0.2864761903095498  0.004813062357286013  0.833753908105777  1.0000
  C   C9        1.0  0.6954775501037316  0.8401763170232289  0.18270271829989326  1.0000
  C   C10       1.0  0.30451985742949006  0.15982625948360865  0.8172937440357871  1.0000
  C   C11       1.0  0.5720655649217505  0.3036934827394831  0.15311909303330398  1.0000
  C   C12       1.0  0.42793157163382717  0.6963071480136807  0.846887712822614  1.0000
  C   C13       1.0  0.599528077455396  0.23957111454001292  0.4009051603794375  1.0000
  C   C14       1.0  0.40047627802446334  0.7604272709463092  0.5990980284490277  1.0000
  C   C15       1.0  0.29390575463994406  0.37352755588566583  0.35509218922192787  1.0000
  C   C16       1.0  0.7060935777255536  0.6264743544780703  0.6449136253858684  1.0000
  N   N1        1.0  0.5340869018006199  0.8210320422857438  0.19469102536877608  1.0000
  N   N2        1.0  0.4659249603188158  0.1789629947687886  0.8053067754919779  1.0000
  N   N3        1.0  0.4940407253403478  0.35046244262316156  0.2957982012329907  1.0000
  N   N4        1.0  0.5059567610277611  0.64953701638634  0.7042078094432398  1.0000
  O   O1        1.0  0.9270322891793299  0.2959743003152513  0.2468113380710406  1.0000
  O   O2        1.0  0.07295353643173991  0.7040339914957985  0.7531745543889342  1.0000
  O   O3        1.0  0.6741739226887729  0.5176033953852017  0.37077248543427277  1.0000
  O   O4        1.0  0.3258217237152293  0.4823974214600287  0.6292317984735404  1.0000
  O   O5        1.0  0.8399807032127667  0.25038164617442504  0.5233031813406015  1.0000
  O   O6        1.0  0.16003671345422524  0.7496191558214066  0.4766817075891722  1.0000
  O   O7        1.0  0.31257468867281785  0.658109654548355  0.16107889180220517  1.0000
  O   O8        1.0  0.6874207654061735  0.3418875588430695  0.8389243876607395  1.0000
  O   O9        1.0  0.09660737003164839  0.5163995445424876  0.14881173092224023  1.0000
  O   O10       1.0  0.9033890380946585  0.4835988602366969  0.8511919383867693  1.0000
  O   O11       1.0  0.008160173422801637  0.6593708370342384  0.35121435023390285  1.0000
  O   O12       1.0  0.9918402083802815  0.34062755809851825  0.648789078834838  1.0000
