data_image0
_chemical_formula_structural       Cd4H24C20N8Cl8O8
_chemical_formula_sum              "Cd4 H24 C20 N8 Cl8 O8"
_cell_length_a       7.329261718023529
_cell_length_b       9.565583308094187
_cell_length_c       12.575014862009683
_cell_angle_alpha    90.00002790073113
_cell_angle_beta     90.00013391078586
_cell_angle_gamma    98.31145552219392

_space_group_name_H-M_alt    "P 1"
_space_group_IT_number       1

loop_
  _space_group_symop_operation_xyz
  'x, y, z'

loop_
  _atom_site_type_symbol
  _atom_site_label
  _atom_site_symmetry_multiplicity
  _atom_site_fract_x
  _atom_site_fract_y
  _atom_site_fract_z
  _atom_site_occupancy
  Cd  Cd1       1.0  0.10593336947783878  0.32621640524656925  0.2322463779729773  1.0000
  Cd  Cd2       1.0  0.39406754662184784  0.673784339269801  0.73224604673662  1.0000
  Cd  Cd3       1.0  0.8940670216713966  0.6737837603361214  0.7677533039362459  1.0000
  Cd  Cd4       1.0  0.60593167634115  0.32621688071614585  0.2677536351719993  1.0000
  H   H1        1.0  0.5153068247769635  0.2553409868504986  0.5353969817408313  1.0000
  H   H2        1.0  0.9846951844171271  0.7446604571420179  0.0353963912921245  1.0000
  H   H3        1.0  0.4846964925531553  0.7446602394534025  0.464603495398265  1.0000
  H   H4        1.0  0.015303645343060213  0.255338649826193  0.9646040858435256  1.0000
  H   H5        1.0  0.9026397902828331  0.35895571556714856  0.6366559919318391  1.0000
  H   H6        1.0  0.5973585515283517  0.6410458353641318  0.1366556308142464  1.0000
  H   H7        1.0  0.09735943267849476  0.6410455044183507  0.36334289474908843  1.0000
  H   H8        1.0  0.4026404748324096  0.3589543281127234  0.8633440510940461  1.0000
  H   H9        1.0  0.8095204926028927  0.17846700650254377  0.6169119825539013  1.0000
  H   H10       1.0  0.6904785409386064  0.8215313549250355  0.11691340455345771  1.0000
  H   H11       1.0  0.1904781405500201  0.8215310439552467  0.383086108898361  1.0000
  H   H12       1.0  0.3095214570061414  0.17846669763947887  0.8830862773551118  1.0000
  H   H13       1.0  0.263511145937862  0.411123050511378  0.532470400510455  1.0000
  H   H14       1.0  0.2364900959483975  0.5888764161568929  0.0324710053623249  1.0000
  H   H15       1.0  0.7364902167936903  0.588875004158531  0.4675284861713536  1.0000
  H   H16       1.0  0.7635100986019479  0.41112269291760134  0.9675302670019478  1.0000
  H   H17       1.0  0.3986461318450623  0.008854905107504899  0.6156973588674219  1.0000
  H   H18       1.0  0.10135312460935342  0.9911467634535778  0.11569554014142372  1.0000
  H   H19       1.0  0.6013556240976924  0.9911452625823642  0.3843047087258  1.0000
  H   H20       1.0  0.8986460983519747  0.0088544565319211  0.884303346539511  1.0000
  H   H21       1.0  0.021057377639173994  0.0094035084380906  0.6476604832231487  1.0000
  H   H22       1.0  0.4789433783880739  0.9905981979801125  0.1476607696552534  1.0000
  H   H23       1.0  0.9789445749007937  0.9905977157595344  0.35233919868733204  1.0000
  H   H24       1.0  0.5210558445715775  0.009403022004938998  0.8523373217979824  1.0000
  C   C1        1.0  0.8621665208497757  0.30356489292781663  0.47119054345434114  1.0000
  C   C2        1.0  0.6378244530637928  0.6964338500106634  0.9711890758119638  1.0000
  C   C3        1.0  0.13782821454329042  0.6964342077224328  0.5288091384508249  1.0000
  C   C4        1.0  0.36217593808711956  0.3035663155724747  0.028811401324944103  1.0000
  C   C5        1.0  0.9087991142679142  0.26583425028142227  0.5860453034168671  1.0000
  C   C6        1.0  0.5912029118981934  0.7341661938521609  0.08604655824429838  1.0000
  C   C7        1.0  0.09120517463949085  0.7341648651083618  0.4139519928117608  1.0000
  C   C8        1.0  0.4087961144625679  0.26583396962469397  0.913953123663994  1.0000
  C   C9        1.0  0.24863461740414283  0.3032435506702598  0.5603955862437573  1.0000
  C   C10       1.0  0.2513655740490178  0.6967570016350492  0.0603962506385187  1.0000
  C   C11       1.0  0.7513657737434226  0.6967566149119904  0.4396033004377742  1.0000
  C   C12       1.0  0.74863345231509  0.3032431618427012  0.9396050217251499  1.0000
  C   C13       1.0  0.3130918299690179  0.09060840789472727  0.6026563765473015  1.0000
  C   C14       1.0  0.1869089328859843  0.9093943046952545  0.1026546447394026  1.0000
  C   C15       1.0  0.6869085611869322  0.9093917576897464  0.39734648627267427  1.0000
  C   C16       1.0  0.813091654865495  0.09060691739652779  0.8973450371701404  1.0000
  C   C17       1.0  0.12824488893270566  0.09030841531844659  0.6186514601828464  1.0000
  C   C18       1.0  0.3717557447692314  0.909693258653206  0.1186507757792512  1.0000
  C   C19       1.0  0.8717582317968462  0.9096917544768105  0.3813498121836076  1.0000
  C   C20       1.0  0.6282434781920967  0.09030796133229299  0.8813481109016763  1.0000
  N   N1        1.0  0.0913248079231224  0.22386462792830744  0.5918976141899677  1.0000
  N   N2        1.0  0.40867531976221727  0.7761349031019762  0.0918977267590293  1.0000
  N   N3        1.0  0.9086767514123505  0.7761344832511341  0.4081020677198596  1.0000
  N   N4        1.0  0.5913237065985371  0.22386526037487897  0.908101955149256  1.0000
  N   N5        1.0  0.3833668788162894  0.22368784201906058  0.5668672265610084  1.0000
  N   N6        1.0  0.1166323683400492  0.7763148284364547  0.0668669409493248  1.0000
  N   N7        1.0  0.6166350737270319  0.7763133821794452  0.4331340458048487  1.0000
  N   N8        1.0  0.8833682194147839  0.22368639365622286  0.9331343314156016  1.0000
  Cl  Cl1       1.0  0.3803743758768475  0.5120948396334342  0.30006918277333483  1.0000
  Cl  Cl2       1.0  0.11962429323942557  0.4879070330389864  0.800069204879641  1.0000
  Cl  Cl3       1.0  0.6196277732670408  0.48790744107372325  0.6999312943651576  1.0000
  Cl  Cl4       1.0  0.8803733683311702  0.5120931283315855  0.1999296818000289  1.0000
  Cl  Cl5       1.0  0.30809919917383866  0.1394194248668086  0.3061135913458415  1.0000
  Cl  Cl6       1.0  0.1918981306404177  0.8605824524600083  0.8061130523972225  1.0000
  Cl  Cl7       1.0  0.6919013885810015  0.8605817972258688  0.6938876810190776  1.0000
  Cl  Cl8       1.0  0.8080997275374525  0.13941876542098436  0.1938882199658423  1.0000
  O   O1        1.0  0.9938711566477348  0.339812152776183  0.4093958818687824  1.0000
  O   O2        1.0  0.5061332045821059  0.6601865421053787  0.9093958119007867  1.0000
  O   O3        1.0  0.006131374271724595  0.6601848474909103  0.5906038000413218  1.0000
  O   O4        1.0  0.4938656251764043  0.3398125648623918  0.090603870007179  1.0000
  O   O5        1.0  0.6902801027206349  0.2987347428139344  0.4493916439847397  1.0000
  O   O6        1.0  0.809724820362639  0.7012661098196062  0.9493904125039522  1.0000
  O   O7        1.0  0.3097241861951545  0.7012643725780663  0.5506096283823254  1.0000
  O   O8        1.0  0.19027400939587114  0.29873299714816426  0.0506092694040134  1.0000
