data_image0
_chemical_formula_structural       Co2H24C20O12
_chemical_formula_sum              "Co2 H24 C20 O12"
_cell_length_a       5.317419345306002
_cell_length_b       9.156915607336492
_cell_length_c       10.255603620057174
_cell_angle_alpha    100.7242654218555
_cell_angle_beta     90.00370603301292
_cell_angle_gamma    90.00074702365272

_space_group_name_H-M_alt    "P 1"
_space_group_IT_number       1

loop_
  _space_group_symop_operation_xyz
  'x, y, z'

loop_
  _atom_site_type_symbol
  _atom_site_label
  _atom_site_symmetry_multiplicity
  _atom_site_fract_x
  _atom_site_fract_y
  _atom_site_fract_z
  _atom_site_occupancy
  Co  Co1       1.0  7.127501682200006e-06  0.5000010090128628  0.4999937127428425  1.0000
  Co  Co2       1.0  0.49999316656622034  0.9999965550715685  0.5000011090156917  1.0000
  H   H1        1.0  0.24020192660967152  0.42468074134012573  0.7974591211326257  1.0000
  H   H2        1.0  0.7401627933523754  0.0752861420118052  0.2024545399295761  1.0000
  H   H3        1.0  0.7598105726082238  0.5753387843846055  0.2025374304408487  1.0000
  H   H4        1.0  0.25983466137427064  0.9247044132557038  0.7975605313987799  1.0000
  H   H5        1.0  0.9030620145063606  0.37308962812285534  0.0241662369516291  1.0000
  H   H6        1.0  0.40298514372207705  0.12701907419454977  0.9758987573316986  1.0000
  H   H7        1.0  0.09695048312578082  0.6269110234554846  0.9758203084520148  1.0000
  H   H8        1.0  0.5970047868760134  0.8729826799408897  0.024090898862517907  1.0000
  H   H9        1.0  0.5434084383227713  0.16590255844704424  0.7766436122286677  1.0000
  H   H10       1.0  0.0430678505754543  0.3339875261192305  0.22339024034516092  1.0000
  H   H11       1.0  0.45657209213917593  0.834124702729632  0.22336886874769135  1.0000
  H   H12       1.0  0.956959693207736  0.6659986011289905  0.7766182346392299  1.0000
  H   H13       1.0  0.8557422102054562  0.2178162941733106  0.8186573305052177  1.0000
  H   H14       1.0  0.3554694803563763  0.28239820447714703  0.18146929787118893  1.0000
  H   H15       1.0  0.14427593225821767  0.7821976111000313  0.1813587506760328  1.0000
  H   H16       1.0  0.6445298541241229  0.7175946097613775  0.8185344531892725  1.0000
  H   H17       1.0  0.337366161415261  0.680655417608108  0.5704726379403767  1.0000
  H   H18       1.0  0.837309149272208  0.8193286907429923  0.4294932444423338  1.0000
  H   H19       1.0  0.6626406952183359  0.31934408949420146  0.42952444042031607  1.0000
  H   H20       1.0  0.1626789023265687  0.1806696629264621  0.5705172904612965  1.0000
  H   H21       1.0  0.4621648249843489  0.5470985724819856  0.6266388877948401  1.0000
  H   H22       1.0  0.9621165273187343  0.9528635188258718  0.3733240926274489  1.0000
  H   H23       1.0  0.5378401500711689  0.4528920607976447  0.3733508446766436  1.0000
  H   H24       1.0  0.03789973343097589  0.047135949222649694  0.62668565529912  1.0000
  C   C1        1.0  0.35662233895973827  0.4573977737518859  0.8856820291389197  1.0000
  C   C2        1.0  0.8565639687987385  0.04260269438220381  0.11424864019161869  1.0000
  C   C3        1.0  0.6433939214970366  0.5426083871876911  0.1143210460093513  1.0000
  C   C4        1.0  0.1434353662200323  0.9574168283887446  0.8857488858188631  1.0000
  C   C5        1.0  0.584606990422806  0.3846559866460099  0.8976717158571007  1.0000
  C   C6        1.0  0.0845748346843109  0.11535061151299429  0.1023475823023929  1.0000
  C   C7        1.0  0.41538294100544704  0.6153323727027669  0.10233420961703393  1.0000
  C   C8        1.0  0.915424499769216  0.8846477721306983  0.8976532069746596  1.0000
  C   C9        1.0  0.7252289491317115  0.42851190169726294  0.013673641230312191  1.0000
  C   C10       1.0  0.2251964509897633  0.0715525282342639  0.9863770371413666  1.0000
  C   C11       1.0  0.2747628631253676  0.571482018045316  0.9863322462033608  1.0000
  C   C12       1.0  0.7748160472065776  0.928435852043293  0.013622066547298991  1.0000
  C   C13       1.0  0.6735403430734904  0.26015940887293  0.7902004083599223  1.0000
  C   C14       1.0  0.17343261403522797  0.2398264720463389  0.20983881516479394  1.0000
  C   C15       1.0  0.32646087315375644  0.7398545234754083  0.2098069014746713  1.0000
  C   C16       1.0  0.8265780029087467  0.7601530224024841  0.7901568409324183  1.0000
  C   C17       1.0  0.7153067681194969  0.30388992062957243  0.6561933052604799  1.0000
  C   C18       1.0  0.2152593688655742  0.19614137797684353  0.3438057416914333  1.0000
  C   C19       1.0  0.2846888046716174  0.6961185023643496  0.34379747480985395  1.0000
  C   C20       1.0  0.784724921043292  0.8038558792339928  0.6561997329978695  1.0000
  O   O1        1.0  0.8047912542141374  0.4334061855393188  0.6544551783459269  1.0000
  O   O2        1.0  0.30470378294881334  0.0666167080259683  0.3455366289481745  1.0000
  O   O3        1.0  0.195196795256912  0.5666011560171995  0.34552566859861134  1.0000
  O   O4        1.0  0.6952654608137863  0.9333739133771458  0.6544570014480159  1.0000
  O   O5        1.0  0.667340416107912  0.2117911702465989  0.548790790029436  1.0000
  O   O6        1.0  0.1673333389419014  0.2881881764290881  0.45121794403851817  1.0000
  O   O7        1.0  0.3326307091349392  0.788204987538201  0.4512105989218044  1.0000
  O   O8        1.0  0.8326584734838463  0.7118179876006465  0.548784156280071  1.0000
  O   O9        1.0  0.30352956056946573  0.600812201229502  0.623155094571672  1.0000
  O   O10       1.0  0.8034531392448799  0.8991676856066277  0.3768161538946231  1.0000
  O   O11       1.0  0.6964772961455595  0.3991873028712902  0.3768429583634685  1.0000
  O   O12       1.0  0.19656688137052214  0.10082626404883402  0.62317998808917  1.0000
