data_image0
_chemical_formula_structural       Zn2H24C32N2O12
_chemical_formula_sum              "Zn2 H24 C32 N2 O12"
_cell_length_a       9.541456955492812
_cell_length_b       9.406357336798635
_cell_length_c       10.183258153987644
_cell_angle_alpha    71.2015270469273
_cell_angle_beta     64.87109650838968
_cell_angle_gamma    86.72348785136595

_space_group_name_H-M_alt    "P 1"
_space_group_IT_number       1

loop_
  _space_group_symop_operation_xyz
  'x, y, z'

loop_
  _atom_site_type_symbol
  _atom_site_label
  _atom_site_symmetry_multiplicity
  _atom_site_fract_x
  _atom_site_fract_y
  _atom_site_fract_z
  _atom_site_occupancy
  Zn  Zn1       1.0  0.8906105774154441  0.1305385670580463  0.41000426351850183  1.0000
  Zn  Zn2       1.0  0.10939441469293601  0.8694592228233089  0.5899947317890052  1.0000
  H   H1        1.0  0.17823079715239493  0.16394655229410657  0.8965854933617194  1.0000
  H   H2        1.0  0.8217631268130461  0.8360545444614189  0.10341073579554189  1.0000
  H   H3        1.0  0.13003710511154057  0.34041965862404305  0.923228650710051  1.0000
  H   H4        1.0  0.8699603110293453  0.6595826052371693  0.07676885271775549  1.0000
  H   H5        1.0  0.5983210674478131  0.6229013261619158  0.2936104342706613  1.0000
  H   H6        1.0  0.4016761896082315  0.37709865487433797  0.7063858724193182  1.0000
  H   H7        1.0  0.43067109951528704  0.15969488290048156  0.42897272313901874  1.0000
  H   H8        1.0  0.5693385713651582  0.8403040599943662  0.5710261229884708  1.0000
  H   H9        1.0  0.11522396868964081  0.5060867383372595  0.42929866206275596  1.0000
  H   H10       1.0  0.884772843532403  0.4938998443181004  0.5707117935148459  1.0000
  H   H11       1.0  0.7108392692416317  0.11709975011724076  0.9889624074234078  1.0000
  H   H12       1.0  0.2891506916464053  0.8829003970359394  0.011048375473833938  1.0000
  H   H13       1.0  0.06258500242636701  0.3159461893219343  0.725362284124408  1.0000
  H   H14       1.0  0.9374076466483316  0.6840549623076697  0.27463833623538386  1.0000
  H   H15       1.0  0.9580099011887244  0.1367747057975492  0.8446172697101416  1.0000
  H   H16       1.0  0.041983796077431586  0.8632253175152937  0.1553833073314977  1.0000
  H   H17       1.0  0.7349850537556436  0.6625895404045536  0.8955693331478896  1.0000
  H   H18       1.0  0.2650182778649892  0.3374150173844015  0.1044281852689294  1.0000
  H   H19       1.0  0.969355524415846  0.528647281531235  0.8242083788183334  1.0000
  H   H20       1.0  0.030643820271421915  0.47135162506586437  0.17579140735623608  1.0000
  H   H21       1.0  0.32937649480557957  0.6982746706361666  0.3491149971919895  1.0000
  H   H22       1.0  0.6706176469203272  0.3017186124552254  0.6508894694415374  1.0000
  H   H23       1.0  0.46086400395959276  0.23334180404894056  0.06780154611099215  1.0000
  H   H24       1.0  0.5391277886161419  0.766666278117526  0.9322090341661068  1.0000
  C   C1        1.0  0.14002173753062414  0.20622685013064765  0.45760501696971545  1.0000
  C   C2        1.0  0.8599872588273882  0.7937641572526741  0.5423935975780266  1.0000
  C   C3        1.0  0.26082054685012684  0.3212699356932233  0.4281111070072184  1.0000
  C   C4        1.0  0.7391841477682419  0.6787244571386138  0.5718880716948646  1.0000
  C   C5        1.0  0.9859005590821469  0.14698892865398247  0.11122014005401577  1.0000
  C   C6        1.0  0.014097657871239726  0.8530099648473951  0.888779091069786  1.0000
  C   C7        1.0  0.08040571821396722  0.22970609534429803  0.9408077596977122  1.0000
  C   C8        1.0  0.9195904524675458  0.7702962097970313  0.05919314568196627  1.0000
  C   C9        1.0  0.5307485667538143  0.386455861445242  0.35999163585169924  1.0000
  C   C10       1.0  0.4692554861369018  0.6135441845713956  0.6400070118922014  1.0000
  C   C11       1.0  0.5027190043977825  0.5387588136268916  0.33269520090897936  1.0000
  C   C12       1.0  0.497280369720862  0.46124007937624595  0.667303596014932  1.0000
  C   C13       1.0  0.572289929985729  0.461784284467825  0.9829563326191533  1.0000
  C   C14       1.0  0.42770915875800597  0.5382236315817153  0.01703977145069051  1.0000
  C   C15       1.0  0.4093799492429611  0.2780893910456398  0.4085521849877764  1.0000
  C   C16       1.0  0.5906271392483405  0.7219061422022007  0.5914467236834254  1.0000
  C   C17       1.0  0.231683502362273  0.4728871803914742  0.4095697537041545  1.0000
  C   C18       1.0  0.7683160394057823  0.5271027439411  0.5904356930764505  1.0000
  C   C19       1.0  0.706357784426565  0.23734499018443955  0.9695172456867666  1.0000
  C   C20       1.0  0.29363374884222543  0.7626584991441874  0.03048896261336859  1.0000
  C   C21       1.0  0.990829046867887  0.24625067019038474  0.8445257453830094  1.0000
  C   C22       1.0  0.009164759372062306  0.7537504809409725  0.15547444077688505  1.0000
  C   C23       1.0  0.6896756717448155  0.3384814700581628  0.33856606419580954  1.0000
  C   C24       1.0  0.31033118148263134  0.6615242412425246  0.6614317392408964  1.0000
  C   C25       1.0  0.7183614449549864  0.5418853548675313  0.9189203462694591  1.0000
  C   C26       1.0  0.2816407883631342  0.4581191762317403  0.08107562784594081  1.0000
  C   C27       1.0  0.8530185709831812  0.46949747973781086  0.8775480672855805  1.0000
  C   C28       1.0  0.1469789247001287  0.5305059255358913  0.1224500345111394  1.0000
  C   C29       1.0  0.35246622093379193  0.581088659341752  0.3618913934151989  1.0000
  C   C30       1.0  0.6475315306930441  0.4189057364795019  0.638110390486247  1.0000
  C   C31       1.0  0.5693911281316489  0.3049578915151442  0.012220249551781004  1.0000
  C   C32       1.0  0.43060668572134386  0.6950500794084746  0.9877802457205931  1.0000
  N   N1        1.0  0.8454785642414464  0.3202769461042648  0.8989958388156294  1.0000
  N   N2        1.0  0.15451524199851013  0.6797242050270993  0.10100434734425792  1.0000
  O   O1        1.0  0.6900114337371833  0.21014151414762944  0.43594656932551606  1.0000
  O   O2        1.0  0.3099976542783551  0.7898630547441028  0.5640497673424889  1.0000
  O   O3        1.0  0.18467530008812366  0.07819561964441138  0.44791007592819904  1.0000
  O   O4        1.0  0.8153363168420995  0.9217976015976103  0.5520839207042911  1.0000
  O   O5        1.0  0.0023907653346312927  0.244369243087874  0.4818204968889077  1.0000
  O   O6        1.0  0.9976181809123261  0.7556206092890176  0.5181765300392627  1.0000
  O   O7        1.0  0.04911174902584751  0.1606537667792907  0.19811366641664552  1.0000
  O   O8        1.0  0.9508910082944408  0.8393451655110196  0.8018867956595558  1.0000
  O   O9        1.0  0.8589783079613795  0.0734270728579318  0.15928194054328057  1.0000
  O   O10       1.0  0.1410189403429598  0.926574090372682  0.8407179322675871  1.0000
  O   O11       1.0  0.8076893013470468  0.4221658860464075  0.23274613150859844  1.0000
  O   O12       1.0  0.19231421878979651  0.5778409409735515  0.7672515943953898  1.0000
