data_image0
_chemical_formula_structural       Ag2H22C30N12O4
_chemical_formula_sum              "Ag2 H22 C30 N12 O4"
_cell_length_a       7.776045930949243
_cell_length_b       8.90051345300476
_cell_length_c       10.784474883155099
_cell_angle_alpha    104.5803933663184
_cell_angle_beta     93.80006666559156
_cell_angle_gamma    99.01490848550435

_space_group_name_H-M_alt    "P 1"
_space_group_IT_number       1

loop_
  _space_group_symop_operation_xyz
  'x, y, z'

loop_
  _atom_site_type_symbol
  _atom_site_label
  _atom_site_symmetry_multiplicity
  _atom_site_fract_x
  _atom_site_fract_y
  _atom_site_fract_z
  _atom_site_occupancy
  Ag  Ag1       1.0  0.4169956404211846  0.151114765129357  0.2800984026242759  1.0000
  Ag  Ag2       1.0  0.5830025109366588  0.8488828750198394  0.7199050334485477  1.0000
  H   H1        1.0  0.6970640647967556  0.0449712751178666  0.0627029579917604  1.0000
  H   H2        1.0  0.3029336851561481  0.955031115686552  0.9372931160609852  1.0000
  H   H3        1.0  0.03430981509065838  0.34674676103644225  0.964899395358465  1.0000
  H   H4        1.0  0.9656874487855021  0.6532532696304613  0.03509616115119481  1.0000
  H   H5        1.0  0.9282830938131286  0.1452800973111934  0.9104148667838102  1.0000
  H   H6        1.0  0.07171521437163618  0.854718746142609  0.08958048371435719  1.0000
  H   H7        1.0  0.49574059821437544  0.7917746140964824  0.097940414562764  1.0000
  H   H8        1.0  0.5042593074090789  0.20822538420941328  0.9020617375140532  1.0000
  H   H9        1.0  0.41890261457148636  0.506534093524344  0.09318526864938549  1.0000
  H   H10       1.0  0.5810893047736627  0.4934647727423638  0.906814453796386  1.0000
  H   H11       1.0  0.26508738433569334  0.4337105943087635  0.2720987681120235  1.0000
  H   H12       1.0  0.7349081635910438  0.5662870678743985  0.7279017809919495  1.0000
  H   H13       1.0  0.1356682804686571  0.5185894346619407  0.4755946783209879  1.0000
  H   H14       1.0  0.8643310669229366  0.4814141109945639  0.5244081973104144  1.0000
  H   H15       1.0  0.05418325375324428  0.7344687259792764  0.6470513189892557  1.0000
  H   H16       1.0  0.9458171283679063  0.2655336350458909  0.35295042348107586  1.0000
  H   H17       1.0  0.0680646664556335  0.0137809962192179  0.7455333260607304  1.0000
  H   H18       1.0  0.931937318205975  0.9862166302422392  0.2544674868435308  1.0000
  H   H19       1.0  0.1651381556371945  0.29725068953235473  0.739870069134966  1.0000
  H   H20       1.0  0.8348666850729314  0.70274809238213  0.26013481665927424  1.0000
  H   H21       1.0  0.3172887288906949  0.349138765802671  0.5562241717855656  1.0000
  H   H22       1.0  0.6827153201282529  0.6508623808119012  0.44378210594128836  1.0000
  C   C1        1.0  0.7194831334751514  0.17285823429565994  0.10485614280377581  1.0000
  C   C2        1.0  0.2805195324063234  0.8271429452808688  0.8951408106672358  1.0000
  C   C3        1.0  0.9857916796055052  0.2410668983741431  0.9958331315716222  1.0000
  C   C4        1.0  0.014207872508258303  0.7589378376781608  0.0041662942330091554  1.0000
  C   C5        1.0  0.1402114567956758  0.18871473646569825  0.06233899296178439  1.0000
  C   C6        1.0  0.8597907134300087  0.8112840855550798  0.9376565158165561  1.0000
  C   C7        1.0  0.42301852223859276  0.7568530649273554  0.1722783717401413  1.0000
  C   C8        1.0  0.5769826803108911  0.24314692365243215  0.827724760246319  1.0000
  C   C9        1.0  0.3826328146858984  0.596650134810325  0.1706326754256438  1.0000
  C   C10       1.0  0.6173653175138442  0.40334751050239237  0.8293689063480228  1.0000
  C   C11       1.0  0.2980518675967545  0.5566008421565699  0.2694022299815515  1.0000
  C   C12       1.0  0.7019408147024251  0.4433956671553291  0.7305933190828711  1.0000
  C   C13       1.0  0.25475812735724185  0.6764736640733273  0.36912869188591196  1.0000
  C   C14       1.0  0.7452424594860786  0.3235298873476395  0.6308696007576486  1.0000
  C   C15       1.0  0.16739855165062067  0.6415966122694667  0.4736607917909765  1.0000
  C   C16       1.0  0.8325941402276058  0.3583998944606677  0.5263356844230245  1.0000
  C   C17       1.0  0.12447883752121672  0.7590420967921149  0.5680569258061183  1.0000
  C   C18       1.0  0.8755187077095103  0.2409591036164969  0.4319425980733982  1.0000
  C   C19       1.0  0.17194338785908764  0.9206991178294784  0.5672509026101125  1.0000
  C   C20       1.0  0.828061705468464  0.07930084157199958  0.4327551691052562  1.0000
  C   C21       1.0  0.1356353249132027  0.044019875199872195  0.6673066062047468  1.0000
  C   C22       1.0  0.8643676414809391  0.9559824689548506  0.3326961689352785  1.0000
  C   C23       1.0  0.18771806119583806  0.198302633157418  0.6639218898325723  1.0000
  C   C24       1.0  0.8122842239784374  0.801696157882226  0.33608474474070954  1.0000
  C   C25       1.0  0.27301737955912136  0.22782044429238368  0.5594557831894917  1.0000
  C   C26       1.0  0.7269861546459353  0.772178349929966  0.440547195545534  1.0000
  C   C27       1.0  0.2592090174091339  0.960951224042681  0.465049543808746  1.0000
  C   C28       1.0  0.7407945072168688  0.0390475727614259  0.5349525077767012  1.0000
  C   C29       1.0  0.2991861164312581  0.8354162041806105  0.3623856594112595  1.0000
  C   C30       1.0  0.7008155626159153  0.16458614711844888  0.6376170629687081  1.0000
  N   N1        1.0  0.8478884375115429  0.2747990006601455  0.07714737274276472  1.0000
  N   N2        1.0  0.15211424752803276  0.7252021737528621  0.9228514350273967  1.0000
  N   N3        1.0  0.8409648379709722  0.42242352206969963  0.14785078276059946  1.0000
  N   N4        1.0  0.1590368027599993  0.5775788395564092  0.8521482310210544  1.0000
  N   N5        1.0  0.7101575411047351  0.4099108887220666  0.2162420741428477  1.0000
  N   N6        1.0  0.2898420927431999  0.5900879372603497  0.7837570377136912  1.0000
  N   N7        1.0  0.6320346802271573  0.25568641643490503  0.1912410826131037  1.0000
  N   N8        1.0  0.36796493446267686  0.7443124147110324  0.8087561749442783  1.0000
  N   N9        1.0  0.38062754344809235  0.8723164238575689  0.26379606874007777  1.0000
  N   N10       1.0  0.6193751607495839  0.1276847453919174  0.7362045933292407  1.0000
  N   N11       1.0  0.3069734139794207  0.11377882655317247  0.46233769352019033  1.0000
  N   N12       1.0  0.6930267442614592  0.8862223492397161  0.5376656444777551  1.0000
  O   O1        1.0  0.1252582678987366  0.167684253426998  0.1735208884391213  1.0000
  O   O2        1.0  0.8747420471690573  0.8323181256704969  0.8264743639841611  1.0000
  O   O3        1.0  0.2659174984650434  0.1703680735357125  0.9956359124488969  1.0000
  O   O4        1.0  0.7340810335999846  0.8296319551503685  0.004357842521656583  1.0000
