data_image0
_chemical_formula_structural       Tm4H32C32N4O36
_chemical_formula_sum              "Tm4 H32 C32 N4 O36"
_cell_length_a       9.3838171
_cell_length_b       9.909652652123636
_cell_length_c       14.1098
_cell_angle_alpha    90.0
_cell_angle_beta     90.0
_cell_angle_gamma    92.84182150114475

_space_group_name_H-M_alt    "P 1"
_space_group_IT_number       1

loop_
  _space_group_symop_operation_xyz
  'x, y, z'

loop_
  _atom_site_type_symbol
  _atom_site_label
  _atom_site_symmetry_multiplicity
  _atom_site_fract_x
  _atom_site_fract_y
  _atom_site_fract_z
  _atom_site_occupancy
  Tm  Tm1       1.0  0.3828238722063944  0.41851318700379647  0.8547109101475598  1.0000
  Tm  Tm2       1.0  0.617174809970308  0.0814875249461195  0.354708783965755  1.0000
  Tm  Tm3       1.0  0.6171717471439281  0.5814811643786157  0.145287672397906  1.0000
  Tm  Tm4       1.0  0.38282762656194075  0.9185149093133448  0.6452905073069813  1.0000
  H   H1        1.0  0.2975649321920244  0.4413210453102678  0.6568774894045291  1.0000
  H   H2        1.0  0.7024344982525363  0.0586736044818608  0.1568760719499949  1.0000
  H   H3        1.0  0.7024364915752344  0.5586823993088218  0.34312109314093675  1.0000
  H   H4        1.0  0.29757198933967993  0.9413247883390738  0.8431239280500051  1.0000
  H   H5        1.0  0.2922867378069752  0.5921434895628153  0.6959375753022741  1.0000
  H   H6        1.0  0.7077105574694826  0.9078535944887705  0.19593899275680823  1.0000
  H   H7        1.0  0.7077091989399094  0.4078569239773771  0.3040617159704624  1.0000
  H   H8        1.0  0.2922872990085352  0.0921427776129065  0.8040624246977259  1.0000
  H   H9        1.0  0.46219070327575906  0.2425216739875182  0.688134488086291  1.0000
  H   H10       1.0  0.5378100044309306  0.25747701724314  0.188136614268096  1.0000
  H   H11       1.0  0.5378065636326781  0.7574837913508361  0.3118591333682943  1.0000
  H   H12       1.0  0.4621909961409187  0.7425183444989046  0.8118619682773697  1.0000
  H   H13       1.0  0.5824288543120488  0.3554909946708236  0.7132085500857528  1.0000
  H   H14       1.0  0.4175705232330884  0.1445026447616726  0.21320429772215013  1.0000
  H   H15       1.0  0.41757529035362506  0.6445033567115885  0.2867928673687814  1.0000
  H   H16       1.0  0.5824273332449295  0.8554937273399972  0.7867957022778498  1.0000
  H   H17       1.0  0.5777304255204571  0.1932524969494693  0.9005237494507341  1.0000
  H   H18       1.0  0.42227028218623264  0.3067461942811818  0.4005209145416657  1.0000
  H   H19       1.0  0.4222683908231204  0.806741854432943  0.0994790854583343  1.0000
  H   H20       1.0  0.5777354571381323  0.6932582606975403  0.5994776680037999  1.0000
  H   H21       1.0  0.5551394581543363  0.270964307955154  0.9982749578307304  1.0000
  H   H22       1.0  0.4448635924788959  0.22903842471401964  0.4982707054671209  1.0000
  H   H23       1.0  0.4448629783779126  0.7290381263043031  0.0017278770783448996  1.0000
  H   H24       1.0  0.5551387382544988  0.77096198882618  0.50172575089654  1.0000
  H   H25       1.0  0.8132628577669081  0.32264824451089424  0.841476845880166  1.0000
  H   H26       1.0  0.1867329448130945  0.1773585295968019  0.3414747196983683  1.0000
  H   H27       1.0  0.1867308418522811  0.6773501483100405  0.15853165884703907  1.0000
  H   H28       1.0  0.8132658109551727  0.8226550186185975  0.6585316588470391  1.0000
  H   H29       1.0  0.9356506189145934  0.7322773392807634  0.9293328041503058  1.0000
  H   H30       1.0  0.06434805942284069  0.7677258069286097  0.4293292605139668  1.0000
  H   H31       1.0  0.06434915729455068  0.2677149913823911  0.0706721569405673  1.0000
  H   H32       1.0  0.9356502202505864  0.2322786480501051  0.5706629434860844  1.0000
  C   C1        1.0  0.10182435040640311  0.6003375061688914  0.8905526655232519  1.0000
  C   C2        1.0  0.8981712367366299  0.8996676607597466  0.3905455782505811  1.0000
  C   C3        1.0  0.8981723346083325  0.3996568452135207  0.10945229556762107  1.0000
  C   C4        1.0  0.1018217675141315  0.1003378045786079  0.6094487519312821  1.0000
  C   C5        1.0  0.03667332470455159  0.3787959499156699  0.8495938992756819  1.0000
  C   C6        1.0  0.963325357472151  0.12120476203424602  0.3495889381848087  1.0000
  C   C7        1.0  0.963324425974605  0.6211984014667423  0.1504068094515887  1.0000
  C   C8        1.0  0.036673723368565385  0.878794641146321  0.6504160229060645  1.0000
  C   C9        1.0  0.8925822222552924  0.40346994246029066  0.856958993040301  1.0000
  C   C10       1.0  0.10741869704910559  0.09653279020888311  0.35695970176756475  1.0000
  C   C11       1.0  0.1074162766917297  0.5965183467643344  0.143045968050572  1.0000
  C   C12       1.0  0.8925826738187297  0.9034696440505742  0.6430445505960376  1.0000
  C   C13       1.0  0.853763089899317  0.5304539615829142  0.888135905540828  1.0000
  C   C14       1.0  0.1462292473510374  0.9695501949860841  0.3881437015407697  1.0000
  C   C15       1.0  0.1462261883639187  0.46954140015912327  0.1118591333682986  1.0000
  C   C16       1.0  0.8537659940274197  0.030457291071527903  0.6118619682773667  1.0000
  C   C17       1.0  0.9601412571711451  0.6313747436685162  0.9057328948673982  1.0000
  C   C18       1.0  0.0398455401593978  0.8686253714619668  0.40573005995833  1.0000
  C   C19       1.0  0.039845731064971794  0.3686175869946311  0.0942720662234748  1.0000
  C   C20       1.0  0.9601450682653905  0.1313750420782327  0.5942692313144062  1.0000
  C   C21       1.0  0.22679848211259923  0.7013623552964674  0.8997476930927419  1.0000
  C   C22       1.0  0.7732023804530996  0.7986418012725381  0.399740605820071  1.0000
  C   C23       1.0  0.7732000697338463  0.29862694428778985  0.1002544330890558  1.0000
  C   C24       1.0  0.2267948864553375  0.20136366406581632  0.6002544330890557  1.0000
  C   C25       1.0  0.09026567944452069  0.2415113143566785  0.8261697543551276  1.0000
  C   C26       1.0  0.9097341741954567  0.25849141831249517  0.326167628173323  1.0000
  C   C27       1.0  0.9097318596369278  0.7584789955872111  0.1738309543721357  1.0000
  C   C28       1.0  0.090269698297206  0.7415180884643817  0.6738344980084745  1.0000
  C   C29       1.0  0.6981071322132378  0.5475775366063118  0.9065068250435857  1.0000
  C   C30       1.0  0.3018952192122981  0.9524347028397386  0.4064976115891098  1.0000
  C   C31       1.0  0.30189445025230544  0.452428939091675  0.09350664077449979  1.0000
  C   C32       1.0  0.6981049196169522  0.0475849075334409  0.5934931749564141  1.0000
  N   N1        1.0  0.13768595382666862  0.4759935567616367  0.8657535897036082  1.0000
  N   N2        1.0  0.8623160840415736  0.0240101862671693  0.3657457937036668  1.0000
  N   N3        1.0  0.8623150996446042  0.5240028153400331  0.13425349756906257  1.0000
  N   N4        1.0  0.1376846443572504  0.9760003308693399  0.6342520801145282  1.0000
  O   O1        1.0  0.2062524434665036  0.8227722203357715  0.9140207515343944  1.0000
  O   O2        1.0  0.7937466051669161  0.6772379983910142  0.4140051595345113  1.0000
  O   O3        1.0  0.7937539912262892  0.17722516212553072  0.08598917064735187  1.0000
  O   O4        1.0  0.20625529469518258  0.3227745394647529  0.5859792484656055  1.0000
  O   O5        1.0  0.3526790635913457  0.6509060056921925  0.8906958284313049  1.0000
  O   O6        1.0  0.6473282458603008  0.8490991612364455  0.3906859062495585  1.0000
  O   O7        1.0  0.6473291850337333  0.3490853146113295  0.1093091326595683  1.0000
  O   O8        1.0  0.3526766393973517  0.1509093351807991  0.6093034628414316  1.0000
  O   O9        1.0  0.2302992355041127  0.2404514471039363  0.8214765623892644  1.0000
  O   O10       1.0  0.7697046162964084  0.2595462337670895  0.3214723100256548  1.0000
  O   O11       1.0  0.7697015005705978  0.7595388628399535  0.1785184765198622  1.0000
  O   O12       1.0  0.2303000044641124  0.740457210852  0.6785206027016668  1.0000
  O   O13       1.0  0.005904158322834999  0.1437660925907949  0.813842152262964  1.0000
  O   O14       1.0  0.9941006533432456  0.3562295675609661  0.3138393173538958  1.0000
  O   O15       1.0  0.9941028659395383  0.8562221966338299  0.1861543041006968  1.0000
  O   O16       1.0  0.005905781349547102  0.6437678149003432  0.686162808827909  1.0000
  O   O17       1.0  0.6118028662583015  0.5108115599998513  0.8412174517002383  1.0000
  O   O18       1.0  0.3881939452474299  0.9891966380076768  0.3412117818820946  1.0000
  O   O19       1.0  0.388189767696467  0.4891868328210833  0.1587917617542445  1.0000
  O   O20       1.0  0.6118015077287282  0.0108148894884579  0.6587825482997616  1.0000
  O   O21       1.0  0.6621462492877086  0.5901773297212145  0.987203220456706  1.0000
  O   O22       1.0  0.3378632972916265  0.909829857926681  0.4872081815475795  1.0000
  O   O23       1.0  0.3378630044264738  0.40983318741529473  0.012793944634225299  1.0000
  O   O24       1.0  0.6621446262609965  0.0901756074116662  0.5127918184524205  1.0000
  O   O25       1.0  0.3396272938656537  0.5038794825726924  0.7058519610483458  1.0000
  O   O26       1.0  0.6603656858536979  0.9961165911192682  0.20584912613927733  1.0000
  O   O27       1.0  0.6603599588675948  0.4961178998886169  0.2941530000425203  1.0000
  O   O28       1.0  0.3396387762085382  0.0038838224209314  0.7941515825879861  1.0000
  O   O29       1.0  0.5132948806830554  0.2907037040627785  0.7412181604275077  1.0000
  O   O30       1.0  0.48670439106322766  0.20928791465045293  0.2412167429729664  1.0000
  O   O31       1.0  0.48670004329883193  0.7092977198370463  0.2587797133906946  1.0000
  O   O32       1.0  0.5132965037097676  0.7907054263723269  0.7587811308452288  1.0000
  O   O33       1.0  0.5162032694279189  0.2528899845191432  0.9343066521141308  1.0000
  O   O34       1.0  0.4838021770312864  0.2471177999481853  0.4343073608414016  1.0000
  O   O35       1.0  0.48380145713144873  0.747115480819204  0.0656912217040642  1.0000
  O   O36       1.0  0.516200312400393  0.7528856446709042  0.5656919304313348  1.0000
