data_image0
_chemical_formula_structural       Cd4H40C56N16O12
_chemical_formula_sum              "Cd4 H40 C56 N16 O12"
_cell_length_a       7.286671081229074
_cell_length_b       10.795819825191762
_cell_length_c       16.362575676324195
_cell_angle_alpha    98.32089082086205
_cell_angle_beta     90.00058225513528
_cell_angle_gamma    90.0005641607404

_space_group_name_H-M_alt    "P 1"
_space_group_IT_number       1

loop_
  _space_group_symop_operation_xyz
  'x, y, z'

loop_
  _atom_site_type_symbol
  _atom_site_label
  _atom_site_symmetry_multiplicity
  _atom_site_fract_x
  _atom_site_fract_y
  _atom_site_fract_z
  _atom_site_occupancy
  Cd  Cd1       1.0  0.4670276708945097  0.8961940519513756  0.8827291413154653  1.0000
  Cd  Cd2       1.0  0.9670314215387422  0.6037983802312396  0.11727280289154861  1.0000
  Cd  Cd3       1.0  0.5329614493602364  0.10380434924950775  0.11727030964305378  1.0000
  Cd  Cd4       1.0  0.032961815786301  0.39619722748511066  0.8827251445643185  1.0000
  H   H1        1.0  0.16240644637635882  0.5594998096059738  0.665067134649675  1.0000
  H   H2        1.0  0.6623977544086374  0.9404957430166898  0.33493373202415455  1.0000
  H   H3        1.0  0.8376101212663798  0.44049668983222284  0.3349345696332051  1.0000
  H   H4        1.0  0.337594110665556  0.05951201187894378  0.6650672715868993  1.0000
  H   H5        1.0  0.5391311026208997  0.8355235760891939  0.6012539406866608  1.0000
  H   H6        1.0  0.039124299800398894  0.6644840348489535  0.39875063239254865  1.0000
  H   H7        1.0  0.4608799755909773  0.16447759646131735  0.39874884511581843  1.0000
  H   H8        1.0  0.9608730546593378  0.33552192940273057  0.6012434681287431  1.0000
  H   H9        1.0  0.5374778420866876  0.7365548051273689  0.4566688299354595  1.0000
  H   H10       1.0  0.03748250288812471  0.7634612617815432  0.5433329197159225  1.0000
  H   H11       1.0  0.4625222572002698  0.2634529498020014  0.5433321736977916  1.0000
  H   H12       1.0  0.9625230857407845  0.23654097289274018  0.45665958309165683  1.0000
  H   H13       1.0  0.15238997866417495  0.46140869916367677  0.5206785209305949  1.0000
  H   H14       1.0  0.6523858408299715  0.03859192465870358  0.47932227229170365  1.0000
  H   H15       1.0  0.8476224718932529  0.5385887215395755  0.47932449841065505  1.0000
  H   H16       1.0  0.3476142584465762  0.9614111200663016  0.520680701925464  1.0000
  H   H17       1.0  0.5161631963917159  0.667435778617644  0.34216663045067713  1.0000
  H   H18       1.0  0.016165884312016505  0.8325716886362217  0.657834156245471  1.0000
  H   H19       1.0  0.4838396475599184  0.33256544579651853  0.6578318823639719  1.0000
  H   H20       1.0  0.9838561728145906  0.16743613310833882  0.34216135363404726  1.0000
  H   H21       1.0  0.1537646314059273  0.3805015066750385  0.4067506408122625  1.0000
  H   H22       1.0  0.6537614151437482  0.11949913582939327  0.5932495494024081  1.0000
  H   H23       1.0  0.8462478191904881  0.6195024816242307  0.5932518172366912  1.0000
  H   H24       1.0  0.346241428796759  0.8804964348567522  0.4067514501976675  1.0000
  H   H25       1.0  0.49088192469721303  0.5794000282351914  0.1964199660249193  1.0000
  H   H26       1.0  0.9908903136526066  0.9206047985183969  0.8035808900346524  1.0000
  H   H27       1.0  0.509097588993896  0.42060401924043583  0.803577608545936  1.0000
  H   H28       1.0  0.0091193921129715  0.07939268148491149  0.1964172459099061  1.0000
  H   H29       1.0  0.2538816857883647  0.12000613271997199  0.9354386843734303  1.0000
  H   H30       1.0  0.7538839466733976  0.3799953524410142  0.0645602145196662  1.0000
  H   H31       1.0  0.7461129239858836  0.8799969416381964  0.06456184813428927  1.0000
  H   H32       1.0  0.2461079183385593  0.6200020830057154  0.9354415839187522  1.0000
  H   H33       1.0  0.24799577064602127  0.10251681454653998  0.8392201801605806  1.0000
  H   H34       1.0  0.7479921927992735  0.39748087792041514  0.1607783100852416  1.0000
  H   H35       1.0  0.7519974667308489  0.8974844024143495  0.16077894305181675  1.0000
  H   H36       1.0  0.25200790641043375  0.6025146853405728  0.839223299931092  1.0000
  H   H37       1.0  0.12684750526672423  0.29455117689587235  0.2605379223497124  1.0000
  H   H38       1.0  0.6268432582811913  0.20544732091958906  0.7394662072185412  1.0000
  H   H39       1.0  0.8731429874704163  0.705453710353609  0.7394676819804855  1.0000
  H   H40       1.0  0.373144489558996  0.7945445200935591  0.2605331946049105  1.0000
  C   C1        1.0  0.3602726311663673  0.7689839451648975  0.7298508054562234  1.0000
  C   C2        1.0  0.8602554836144806  0.731014172327967  0.27015061209228725  1.0000
  C   C3        1.0  0.6397398193610258  0.23100973109937678  0.2701518369964475  1.0000
  C   C4        1.0  0.1397377537742415  0.2689936418845916  0.7298455081331809  1.0000
  C   C5        1.0  0.24089609784586946  0.6001928285501987  0.6188486222847942  1.0000
  C   C6        1.0  0.7408878797484706  0.8998052691198025  0.3811504144372933  1.0000
  C   C7        1.0  0.7591177250442626  0.39980179865727195  0.38115289354639964  1.0000
  C   C8        1.0  0.2591094747301669  0.10019878584283497  0.6188465497580039  1.0000
  C   C9        1.0  0.4522429179987101  0.754652100891725  0.5821280160739731  1.0000
  C   C10       1.0  0.9522306480585315  0.7453505146951469  0.41787427437512287  1.0000
  C   C11       1.0  0.547769532587303  0.2453471772031789  0.41787641255889696  1.0000
  C   C12       1.0  0.047769451086971115  0.25464984032324617  0.5821186503970208  1.0000
  C   C13       1.0  0.44954628101288563  0.6979517471251381  0.5005014316287912  1.0000
  C   C14       1.0  0.9495434823001008  0.8020583649369966  0.4994991563853262  1.0000
  C   C15       1.0  0.5504593077138794  0.30205415784897827  0.4994975523039926  1.0000
  C   C16       1.0  0.05045387217781891  0.19794474650198868  0.5004983240114952  1.0000
  C   C17       1.0  0.3474162501367175  0.7074196425746918  0.6424773439040193  1.0000
  C   C18       1.0  0.8474032800627428  0.7925802269774915  0.35752541361247836  1.0000
  C   C19       1.0  0.6526016898815998  0.2925768494552159  0.35752497080623163  1.0000
  C   C20       1.0  0.15259270205606162  0.20742665113657205  0.6424706123982415  1.0000
  C   C21       1.0  0.23663496027262457  0.5445710548194638  0.5365434096370407  1.0000
  C   C22       1.0  0.736632096674562  0.9554325801302708  0.46345983199387314  1.0000
  C   C23       1.0  0.7633761179189095  0.45543013997278325  0.46345754489445307  1.0000
  C   C24       1.0  0.26336937495793933  0.04457142295184009  0.5365414051781556  1.0000
  C   C25       1.0  0.3400453318873176  0.5918965106730381  0.47509599919676754  1.0000
  C   C26       1.0  0.8400431916976815  0.9081061142669139  0.524906390840094  1.0000
  C   C27       1.0  0.6599616291881533  0.40810091742163473  0.5249064097060199  1.0000
  C   C28       1.0  0.15995827987838138  0.0918951175555378  0.4750915115471912  1.0000
  C   C29       1.0  0.3330654545231725  0.5339964426798502  0.3872968459917701  1.0000
  C   C30       1.0  0.8330701955240231  0.9660061399206863  0.6127042855736136  1.0000
  C   C31       1.0  0.6669387618183366  0.4660057030218494  0.6127029818960494  1.0000
  C   C32       1.0  0.16693676551754072  0.03399132524354799  0.3872950712108718  1.0000
  C   C33       1.0  0.42846259513699186  0.5861207173248814  0.3256088070532925  1.0000
  C   C34       1.0  0.928463881707849  0.9138854701343881  0.674391900801879  1.0000
  C   C35       1.0  0.5715347593394783  0.4138805070667927  0.6743897057465487  1.0000
  C   C36       1.0  0.0715403346118606  0.08611481076174238  0.3256071282179818  1.0000
  C   C37       1.0  0.22753063898072412  0.42638891528032724  0.36175473749258197  1.0000
  C   C38       1.0  0.7275277976508436  0.07361418166653518  0.6382478702609333  1.0000
  C   C39       1.0  0.7724735773668459  0.5736122794838108  0.6382462170204093  1.0000
  C   C40       1.0  0.27247230160318037  0.9263860547292491  0.36175482128979297  1.0000
  C   C41       1.0  0.4147170510979167  0.5367987526714725  0.24248552703813425  1.0000
  C   C42       1.0  0.9147222511768548  0.9632026045500054  0.7575176877049827  1.0000
  C   C43       1.0  0.5852734415977991  0.46320523553782766  0.757516930951617  1.0000
  C   C44       1.0  0.08528196509030292  0.03679112357793459  0.2424806817598508  1.0000
  C   C45       1.0  0.305255918331838  0.43112459820773796  0.2184232994197401  1.0000
  C   C46       1.0  0.8052562209520177  0.06887543570325508  0.7815756880867466  1.0000
  C   C47       1.0  0.6947345743074467  0.5688766187419104  0.7815758237852606  1.0000
  C   C48       1.0  0.19473976116777442  0.9311238868076612  0.21842507795975047  1.0000
  C   C49       1.0  0.275107767887782  0.38043536822870283  0.1312661546726801  1.0000
  C   C50       1.0  0.7751093485040527  0.11956341580860647  0.8687380698380662  1.0000
  C   C51       1.0  0.7248868418760568  0.6195629959251007  0.8687363484189488  1.0000
  C   C52       1.0  0.22488663361501443  0.8804349631786507  0.131263212409948  1.0000
  C   C53       1.0  0.213230653804942  0.3758873061281135  0.27898760059507305  1.0000
  C   C54       1.0  0.7132344789374799  0.12410631256981468  0.7210139878346522  1.0000
  C   C55       1.0  0.7867653283494819  0.6241129228368862  0.7210157013682164  1.0000
  C   C56       1.0  0.2867683649233471  0.8758827350037917  0.2789839105157482  1.0000
  N   N1        1.0  0.1808038928786502  0.44065351872985997  0.0780228105032208  1.0000
  N   N2        1.0  0.6808030906967775  0.05934453702391809  0.9219772428751652  1.0000
  N   N3        1.0  0.8191907168219645  0.5593420815782011  0.921975747380003  1.0000
  N   N4        1.0  0.31918328484969294  0.9406566650810286  0.07802310116605327  1.0000
  N   N5        1.0  0.322777151812943  0.26557409712736296  0.0931479798466341  1.0000
  N   N6        1.0  0.822786658789255  0.23442045632377526  0.9068511472680496  1.0000
  N   N7        1.0  0.6772160855399534  0.734422424456994  0.906851893102356  1.0000
  N   N8        1.0  0.17721481280280935  0.765575092115  0.0931516835993023  1.0000
  N   N9        1.0  0.2568023382761808  0.2561719966464223  0.015998373704860604  1.0000
  N   N10       1.0  0.7568137023300566  0.24382670415543117  0.9840002582975201  1.0000
  N   N11       1.0  0.7431936438000195  0.7438235962533495  0.9840007946057198  1.0000
  N   N12       1.0  0.24318776926273963  0.7561697878070034  0.01600205636832192  1.0000
  N   N13       1.0  0.1719425337784486  0.3604028773009844  0.007189795890575103  1.0000
  N   N14       1.0  0.6719457963046269  0.13959699290384003  0.9928091773061353  1.0000
  N   N15       1.0  0.8280534482909588  0.6395927230126971  0.9928087619963506  1.0000
  N   N16       1.0  0.32804332396441543  0.8604023369928697  0.007190978298197618  1.0000
  O   O1        1.0  0.2680484380228378  0.7288981285138192  0.7868796591857858  1.0000
  O   O2        1.0  0.7680264490490742  0.7710964100865136  0.21312219916237746  1.0000
  O   O3        1.0  0.7319681296034306  0.27109461165758114  0.213122889055839  1.0000
  O   O4        1.0  0.23195169226428192  0.22890481422643913  0.7868763135856581  1.0000
  O   O5        1.0  0.4687180291885867  0.8633711387657284  0.7446202921876688  1.0000
  O   O6        1.0  0.9687019944734062  0.6366288034790272  0.2553818044356646  1.0000
  O   O7        1.0  0.5312903042353342  0.13662631157630048  0.25538028544783486  1.0000
  O   O8        1.0  0.031296732363365706  0.3633790404116866  0.7446118741099567  1.0000
  O   O9        1.0  0.24745799528861312  0.05381595810482049  0.8864633124558665  1.0000
  O   O10       1.0  0.7474485415759348  0.4461835873230057  0.11353658416549449  1.0000
  O   O11       1.0  0.7525366144788493  0.9461871236672647  0.11353660962819836  1.0000
  O   O12       1.0  0.2525419510665118  0.5538129045944514  0.8864657304707393  1.0000
