data_image0
_chemical_formula_structural       Fe2H36Au4C52N12
_chemical_formula_sum              "Fe2 H36 Au4 C52 N12"
_cell_length_a       10.10289782588855
_cell_length_b       10.102849558011272
_cell_length_c       13.935365090961065
_cell_angle_alpha    103.14974065799007
_cell_angle_beta     106.81612667452436
_cell_angle_gamma    106.69669239678176

_space_group_name_H-M_alt    "P 1"
_space_group_IT_number       1

loop_
  _space_group_symop_operation_xyz
  'x, y, z'

loop_
  _atom_site_type_symbol
  _atom_site_label
  _atom_site_symmetry_multiplicity
  _atom_site_fract_x
  _atom_site_fract_y
  _atom_site_fract_z
  _atom_site_occupancy
  Fe  Fe1       1.0  0.0  0.0  0.0  1.0000
  Fe  Fe2       1.0  0.49999998136286933  0.9999998897744293  0.4999997823285158  1.0000
  H   H1        1.0  0.4475329501571395  0.9022980198826006  0.20092712670801668  1.0000
  H   H2        1.0  0.2011673319342719  0.24628761612773792  0.29889401412845024  1.0000
  H   H3        1.0  0.5524671279994421  0.09770185282440023  0.7990730304894031  1.0000
  H   H4        1.0  0.7988331684084854  0.7537133492079136  0.7011056905179843  1.0000
  H   H5        1.0  0.17768519422457985  0.8622727305266623  0.12335068764598141  1.0000
  H   H6        1.0  0.23893991698681558  0.054214998173158314  0.37662296036008064  1.0000
  H   H7        1.0  0.8223148839319947  0.1377271421803385  0.8766494695514382  1.0000
  H   H8        1.0  0.7610591254742188  0.9457848628148257  0.6233755415142  1.0000
  H   H9        1.0  0.6382944258088726  0.1135660605380764  0.18906707782705476  1.0000
  H   H10       1.0  0.4243010754730179  0.4490414080024152  0.31082604709956746  1.0000
  H   H11       1.0  0.3617056515802092  0.8864338064772924  0.8109323606822729  1.0000
  H   H12       1.0  0.5757004590303012  0.5509595576689891  0.6891738754938289  1.0000
  H   H13       1.0  0.2755998117422891  0.22209415745055597  0.02315852340993272  1.0000
  H   H14       1.0  0.6989400359741467  0.2525324473067272  0.4768304685571537  1.0000
  H   H15       1.0  0.72439984269311  0.77790461124453  0.9768406489622878  1.0000
  H   H16       1.0  0.3010600429499277  0.7474674310919056  0.5231704073283511  1.0000
  H   H17       1.0  0.7145024768358539  0.21531658419098682  0.05467078042864424  1.0000
  H   H18       1.0  0.6604883253120378  0.6598248463243906  0.4453157094131656  1.0000
  H   H19       1.0  0.2854990584349579  0.7846843871720496  0.9453298608528373  1.0000
  H   H20       1.0  0.3395121750307269  0.3401761190112609  0.554683995233269  1.0000
  H   H21       1.0  0.8501448398654645  0.6751959957154839  0.0937913024933579  1.0000
  H   H22       1.0  0.08121915694159304  0.7562236944260264  0.40617698693618826  1.0000
  H   H23       1.0  0.14985523829111713  0.324803876991517  0.9062088547040619  1.0000
  H   H24       1.0  0.9187809212149816  0.24377617828098144  0.5938231702612314  1.0000
  H   H25       1.0  0.883339612275627  0.4381271968929568  0.04284485739749758  1.0000
  H   H26       1.0  0.8952512204320301  0.84045151960742  0.4572001130427312  1.0000
  H   H27       1.0  0.1166614992740023  0.5618726704581647  0.9571547990587916  1.0000
  H   H28       1.0  0.10475031407128911  0.1595494460639912  0.5427998095506653  1.0000
  H   H29       1.0  0.6369904122456447  0.685006787718592  0.1473434387045672  1.0000
  H   H30       1.0  0.03747354733888388  0.48953765711647174  0.3525837564962232  1.0000
  H   H31       1.0  0.36300966591093703  0.3149930849884157  0.8526567184928525  1.0000
  H   H32       1.0  0.9625269537713735  0.5104633139108119  0.6474166668383037  1.0000
  H   H33       1.0  0.4595702674450166  0.4594763050192299  0.14942285205410144  1.0000
  H   H34       1.0  0.8098049010561255  0.31003518758589627  0.35048889683765344  1.0000
  H   H35       1.0  0.5404293869903826  0.5405224636758563  0.8505763203181191  1.0000
  H   H36       1.0  0.19019517710044914  0.6899646851211046  0.6495112603597663  1.0000
  Au  Au1       1.0  0.18425856658507903  0.5349035672196363  0.19801896518209364  1.0000
  Au  Au2       1.0  0.8367786928275295  0.986245914899442  0.30193437014916935  1.0000
  Au  Au3       1.0  0.8157431569389217  0.46509520783858704  0.8019813617721214  1.0000
  Au  Au4       1.0  0.1632203511684907  0.0137539574718133  0.6980655691012957  1.0000
  C   C1        1.0  0.09154206403547961  0.3283922899067093  0.10438753215177603  1.0000
  C   C2        1.0  0.7240852096643237  0.9871981408843951  0.395681538049388  1.0000
  C   C3        1.0  0.9084596602560139  0.6716064908431463  0.8956135134905313  1.0000
  C   C4        1.0  0.2759134106105208  0.012800627474938198  0.6043174163758778  1.0000
  C   C5        1.0  0.5755680911397718  0.3218401113892  0.10305925887155352  1.0000
  C   C6        1.0  0.7185210390886567  0.47244683350579225  0.3967891974656369  1.0000
  C   C7        1.0  0.4244319854818173  0.6781597499345366  0.8969394609496888  1.0000
  C   C8        1.0  0.281478427861046  0.5275541371857387  0.6032110079219353  1.0000
  C   C9        1.0  0.4140882265162844  0.9756766798039751  0.161693515554994  1.0000
  C   C10       1.0  0.3137936957956384  0.2520918594664252  0.3381010008071855  1.0000
  C   C11       1.0  0.5859128858008448  0.024323193238778604  0.8383068595893804  1.0000
  C   C12       1.0  0.6862057703865715  0.7479091055334735  0.6618984858923014  1.0000
  C   C13       1.0  0.2633010833028493  0.9523310063826359  0.11897733706993563  1.0000
  C   C14       1.0  0.3333435408188876  0.14418105859844135  0.38093083680298184  1.0000
  C   C15       1.0  0.7367004527354553  0.04766997067203251  0.8810240228996309  1.0000
  C   C16       1.0  0.6666569595238698  0.85581990673721  0.6190688678434599  1.0000
  C   C17       1.0  0.5196143590956764  0.09350801946136042  0.15519778702817183  1.0000
  C   C18       1.0  0.4380940762827236  0.364194866673607  0.344654201623861  1.0000
  C   C19       1.0  0.4803842619466678  0.9064907545896049  0.8448018860851791  1.0000
  C   C20       1.0  0.5619049677133034  0.6358050056976411  0.655345737626597  1.0000
  C   C21       1.0  0.31812193819685314  0.15471029389103563  0.06418374014674554  1.0000
  C   C22       1.0  0.5904839292926667  0.2539501265433728  0.43579104666334706  1.0000
  C   C23       1.0  0.6818756479174368  0.8452884741325448  0.9358149963315656  1.0000
  C   C24       1.0  0.4095161488639079  0.7460497461636281  0.5642091105340726  1.0000
  C   C25       1.0  0.47184844174260115  0.18862090964956477  0.10763182040761883  1.0000
  C   C26       1.0  0.5808128408095926  0.36412347819319996  0.3922706184647638  1.0000
  C   C27       1.0  0.5281512134602976  0.8113778647371603  0.892368070652694  1.0000
  C   C28       1.0  0.41918869446121926  0.6358774931698365  0.6077300228167177  1.0000
  C   C29       1.0  0.6968854965832136  0.3179917072246923  0.07438528139066143  1.0000
  C   C30       1.0  0.7433796787533709  0.6224591225896106  0.4255270183298095  1.0000
  C   C31       1.0  0.3031145815733609  0.6820081654823156  0.9256148758067584  1.0000
  C   C32       1.0  0.2566208223568864  0.3775418484376729  0.5744734050047172  1.0000
  C   C33       1.0  0.7725113571501936  0.5764207566254101  0.09581294313826309  1.0000
  C   C34       1.0  0.9803384203289269  0.6765418424486427  0.40405393286721397  1.0000
  C   C35       1.0  0.22748872023888816  0.4235791103899587  0.9041864953710717  1.0000
  C   C36       1.0  0.019662080781330405  0.32345912857864073  0.5959464904673129  1.0000
  C   C37       1.0  0.7923431962359474  0.44370584748762104  0.06843676469307527  1.0000
  C   C38       1.0  0.8750866948728486  0.7238245433119205  0.4315247670965123  1.0000
  C   C39       1.0  0.20765730333931742  0.5562951121563986  0.9315622212652743  1.0000
  C   C40       1.0  0.1249148411654559  0.27617643374274786  0.5684765928730614  1.0000
  C   C41       1.0  0.6532228342665007  0.5817251064428035  0.12572745296250792  1.0000
  C   C42       1.0  0.955744087778612  0.527351077493293  0.37411922473242504  1.0000
  C   C43       1.0  0.34677578677584353  0.4182736676081618  0.87427222015085  1.0000
  C   C44       1.0  0.04425599037796249  0.4726487952137148  0.6258809324649945  1.0000
  C   C45       1.0  0.5538840446793997  0.45488204851534403  0.12751378471404007  1.0000
  C   C46       1.0  0.8270882883407324  0.42625831470622444  0.3723224304765652  1.0000
  C   C47       1.0  0.4461170668702366  0.5451178188357774  0.8724858717422425  1.0000
  C   C48       1.0  0.17291263649070032  0.5737437603329739  0.6276789776831537  1.0000
  C   C49       1.0  0.9290834279676049  0.9848075187269177  0.19582675768155172  1.0000
  C   C50       1.0  0.2888283999894767  0.7334150079946866  0.3040581836119004  1.0000
  C   C51       1.0  0.07091396989350329  0.015193445601482801  0.8041722931240258  1.0000
  C   C52       1.0  0.7111708322597393  0.2665826680717488  0.6959414413112982  1.0000
  N   N1        1.0  0.04581615884437442  0.20247660687841326  0.056640493826435524  1.0000
  N   N2        1.0  0.6458680323421857  0.9891520058897567  0.44339155390502333  1.0000
  N   N3        1.0  0.9541839200797  0.7975232715202268  0.9433603820590691  1.0000
  N   N4        1.0  0.3541299774932867  0.0108478661457454  0.5566081673984868  1.0000
  N   N5        1.0  0.21559017215434303  0.03932021087315721  0.06880022897383505  1.0000
  N   N6        1.0  0.4705366459522794  0.14677246682882134  0.4311856814033136  1.0000
  N   N7        1.0  0.7844099060022315  0.9606796618338437  0.9311999282235777  1.0000
  N   N8        1.0  0.5294634322042953  0.8532274058781796  0.568814475794106  1.0000
  N   N9        1.0  0.9666558834240746  0.9842636166958201  0.1237073321459904  1.0000
  N   N10       1.0  0.360497944747884  0.8430191532431409  0.3762603723185621  1.0000
  N   N11       1.0  0.03334358275813539  0.015737348304085696  0.8762921545534895  1.0000
  N   N12       1.0  0.6395025563623733  0.15698181778414266  0.6237400510159647  1.0000
