data_image0
_chemical_formula_structural       Cu3H20C20N10O16
_chemical_formula_sum              "Cu3 H20 C20 N10 O16"
_cell_length_a       7.589201267748882
_cell_length_b       9.126005274947874
_cell_length_c       10.392451465273016
_cell_angle_alpha    103.73038037847324
_cell_angle_beta     98.79817611053919
_cell_angle_gamma    97.11176742488163

_space_group_name_H-M_alt    "P 1"
_space_group_IT_number       1

loop_
  _space_group_symop_operation_xyz
  'x, y, z'

loop_
  _atom_site_type_symbol
  _atom_site_label
  _atom_site_symmetry_multiplicity
  _atom_site_fract_x
  _atom_site_fract_y
  _atom_site_fract_z
  _atom_site_occupancy
  Cu  Cu1       1.0  0.4999993856812495  0.9999967962927487  0.49999953351663623  1.0000
  Cu  Cu2       1.0  0.5905022705034356  0.636426713507973  0.4251123194710544  1.0000
  Cu  Cu3       1.0  0.40949541592108585  0.3635751972990136  0.5748827681665959  1.0000
  H   H1        1.0  0.7918534663993952  0.8811266864532784  0.5356474925807008  1.0000
  H   H2        1.0  0.20814362871512063  0.11887066735612002  0.46435235905928357  1.0000
  H   H3        1.0  0.21420901261009825  0.4694515678879584  0.21989070812652053  1.0000
  H   H4        1.0  0.7857989309388248  0.530548335383941  0.7801011291670933  1.0000
  H   H5        1.0  0.06626123412945621  0.9099094992674283  0.3260030590233782  1.0000
  H   H6        1.0  0.9337340896010888  0.09008440187376722  0.6740007076749635  1.0000
  H   H7        1.0  0.8380051042678434  0.4849524019449802  0.4079601009354833  1.0000
  H   H8        1.0  0.16198882148796662  0.5150494306906239  0.5920451831977688  1.0000
  H   H9        1.0  0.9361716256055317  0.6417902655932295  0.5206129096119838  1.0000
  H   H10       1.0  0.0638194143488064  0.3582103481571223  0.47939087109399037  1.0000
  H   H11       1.0  0.8970515281312077  0.680833026424935  0.09022467650267177  1.0000
  H   H12       1.0  0.10295219475191432  0.3191645005851385  0.9097729822055599  1.0000
  H   H13       1.0  0.8272420077410986  0.5674321079990748  0.18910387485865954  1.0000
  H   H14       1.0  0.1727589889067787  0.4325653407745449  0.8108915720704319  1.0000
  H   H15       1.0  0.21335813213688234  0.8588308488113372  0.035367107906992594  1.0000
  H   H16       1.0  0.7866422805228979  0.1411711402320961  0.9646301915097981  1.0000
  H   H17       1.0  0.47198002280946844  0.7212444673019505  0.08394704778781661  1.0000
  H   H18       1.0  0.5280198876741979  0.2787540969962805  0.9160514113870947  1.0000
  H   H19       1.0  0.7568482831278731  0.8720425687903841  0.23864825883539006  1.0000
  H   H20       1.0  0.24314943154995222  0.12795822375826302  0.7613552595337227  1.0000
  C   C1        1.0  0.22009058724528788  0.5894133125829556  0.268613285123088  1.0000
  C   C2        1.0  0.7799145878893586  0.41058538579773096  0.7313818752305039  1.0000
  C   C3        1.0  0.1450859268584423  0.8169400673348192  0.3211320964203921  1.0000
  C   C4        1.0  0.8549149384764977  0.1830551225316626  0.678872489592017  1.0000
  C   C5        1.0  0.558413147955882  0.34237192441780456  0.2501209477079414  1.0000
  C   C6        1.0  0.44158761208963443  0.6576312276648936  0.7498833657365865  1.0000
  C   C7        1.0  0.5331494078969358  0.16881408260713474  0.21760885129369006  1.0000
  C   C8        1.0  0.4668567059334664  0.8311903358103906  0.7823885590853054  1.0000
  C   C9        1.0  0.36803321570781844  0.07865190532994151  0.14546102953485732  1.0000
  C   C10       1.0  0.6319685365921403  0.9213501200329122  0.8545364104740544  1.0000
  C   C11       1.0  0.34239858190520783  0.9195662344969836  0.09766989917019232  1.0000
  C   C12       1.0  0.6576017181432194  0.08043461949527145  0.9023300391933519  1.0000
  C   C13       1.0  0.4859790245333501  0.8442836247234026  0.1258956001168983  1.0000
  C   C14       1.0  0.5140239078405742  0.15571729631007966  0.8741026888359898  1.0000
  C   C15       1.0  0.6463073854334667  0.9289629028305841  0.20759831037575088  1.0000
  C   C16       1.0  0.35369407121148566  0.071036844033479  0.7924015116343243  1.0000
  C   C17       1.0  0.6731258995045553  0.08907517220234243  0.2534568707252093  1.0000
  C   C18       1.0  0.3268745366326584  0.9109268196399043  0.746541393989027  1.0000
  C   C19       1.0  0.8541923986865358  0.1661243499412777  0.34128795253626987  1.0000
  C   C20       1.0  0.14580531599128935  0.8338764426073625  0.6587155658328356  1.0000
  N   N1        1.0  0.308794318928058  0.8236339110339514  0.39104316568024444  1.0000
  N   N2        1.0  0.6912077921373128  0.17636130395671765  0.6089576997344894  1.0000
  N   N3        1.0  0.35372343507973625  0.6812123093749066  0.358978137434498  1.0000
  N   N4        1.0  0.6462829670837567  0.3187852902740148  0.6410198024579685  1.0000
  N   N5        1.0  0.08720671080008913  0.6710083755707076  0.24220283957971842  1.0000
  N   N6        1.0  0.9127956724428474  0.32898911511995277  0.7577946785363922  1.0000
  N   N7        1.0  0.9310175787513733  0.6077265332077106  0.146895072395779  1.0000
  N   N8        1.0  0.06898462144790331  0.3922698140353376  0.8531021887747415  1.0000
  N   N9        1.0  0.21042722696046923  0.1499071816542425  0.11578614697175743  1.0000
  N   N10       1.0  0.7895760949782161  0.8500960290732565  0.8842136211697638  1.0000
  O   O1        1.0  0.6597406179583702  0.8519921289798377  0.5034920602980366  1.0000
  O   O2        1.0  0.3402589378176445  0.14799617501173404  0.4965022963637723  1.0000
  O   O3        1.0  0.625821360780236  0.40576579178786437  0.17145922279048165  1.0000
  O   O4        1.0  0.374188316749489  0.5942353164403331  0.8285416997178886  1.0000
  O   O5        1.0  0.8363233496487084  0.5971471549769306  0.4360140142957789  1.0000
  O   O6        1.0  0.16366773726051065  0.40285346437103436  0.5639916970050933  1.0000
  O   O7        1.0  0.5050413916173753  0.41039085531431857  0.35838749686919874  1.0000
  O   O8        1.0  0.49495955879372405  0.589622537483386  0.6416141620062845  1.0000
  O   O9        1.0  0.23305625692532322  0.2729683129060661  0.08248326260706312  1.0000
  O   O10       1.0  0.7669464454500599  0.7270314590821912  0.9175128388053297  1.0000
  O   O11       1.0  0.06165084735155802  0.0837894893433173  0.1235573215387333  1.0000
  O   O12       1.0  0.9383533006715371  0.9162183063698351  0.8764473355749517  1.0000
  O   O13       1.0  0.8924884557419336  0.312589274171593  0.37162207482660403  1.0000
  O   O14       1.0  0.10750717574138242  0.6874148816786417  0.6283838637899422  1.0000
  O   O15       1.0  0.9588770214110202  0.08287109487215362  0.3817972609520696  1.0000
  O   O16       1.0  0.041122352039437246  0.9171320152935106  0.6182049813054391  1.0000
