data_image0
_chemical_formula_structural       Nb2Cu2H16C20N4O2F8
_chemical_formula_sum              "Nb2 Cu2 H16 C20 N4 O2 F8"
_cell_length_a       3.9467107390195153
_cell_length_b       13.296773639068727
_cell_length_c       13.296716288396516
_cell_angle_alpha    109.34752178266677
_cell_angle_beta     89.99967024211884
_cell_angle_gamma    90.00031397578213

_space_group_name_H-M_alt    "P 1"
_space_group_IT_number       1

loop_
  _space_group_symop_operation_xyz
  'x, y, z'

loop_
  _atom_site_type_symbol
  _atom_site_label
  _atom_site_symmetry_multiplicity
  _atom_site_fract_x
  _atom_site_fract_y
  _atom_site_fract_z
  _atom_site_occupancy
  Nb  Nb1       1.0  0.1079909974692583  0.7500111848325446  0.24998235751046138  1.0000
  Nb  Nb2       1.0  0.8920032060627892  0.25002444493510007  0.7499790199114782  1.0000
  Cu  Cu1       1.0  0.499995894479234  4.0298975748000735e-06  0.49999909220502287  1.0000
  Cu  Cu2       1.0  0.5000061808802485  0.5000078124554506  3.8965988408996076e-06  1.0000
  H   H1        1.0  0.31246055800573197  0.03472406543964011  0.7183628441668475  1.0000
  H   H2        1.0  0.31261622723091886  0.4652700498981517  0.78164373907547  1.0000
  H   H3        1.0  0.6875450692976984  0.7816298456021826  0.46527165152350836  1.0000
  H   H4        1.0  0.6874704346238689  0.718364364120589  0.03474400475575127  1.0000
  H   H5        1.0  0.6874272269567144  0.9652680918824074  0.28163676699338674  1.0000
  H   H6        1.0  0.6875071969674382  0.5347254643054242  0.21836138632303195  1.0000
  H   H7        1.0  0.31249980842481767  0.21835525633306932  0.5347288696987887  1.0000
  H   H8        1.0  0.3124680254073411  0.2816287602742094  0.9652604094711702  1.0000
  H   H9        1.0  0.30645056025220907  0.9262083068629963  0.8374079816199042  1.0000
  H   H10       1.0  0.30655022643411206  0.5737939101884776  0.662610192343898  1.0000
  H   H11       1.0  0.6935274618817716  0.6626124227170039  0.5738091829318321  1.0000
  H   H12       1.0  0.6934672153813256  0.837395280753988  0.9262175614120732  1.0000
  H   H13       1.0  0.6934955010413405  0.0737807494518421  0.16259296413096538  1.0000
  H   H14       1.0  0.693532657580221  0.4262003233934664  0.3374028298961703  1.0000
  H   H15       1.0  0.3064971457950564  0.33738166876992187  0.4262000343405958  1.0000
  H   H16       1.0  0.30648137966003486  0.16260768660360717  0.0737973079418026  1.0000
  C   C1        1.0  0.3976726478863953  0.9523245509588135  0.6895582395260715  1.0000
  C   C2        1.0  0.3977534666967629  0.5476804121990569  0.8104463148695658  1.0000
  C   C3        1.0  0.6023444259014354  0.810460255538288  0.5476812069700044  1.0000
  C   C4        1.0  0.6022984027642835  0.6895506208336142  0.9523278067227422  1.0000
  C   C5        1.0  0.6022708797423919  0.04766498938487728  0.31043457231493926  1.0000
  C   C6        1.0  0.6023192824615577  0.452314846263107  0.1895519615547911  1.0000
  C   C7        1.0  0.3977004521507724  0.1895416037790838  0.45230398330728855  1.0000
  C   C8        1.0  0.3976476587782615  0.3104538554385812  0.04766418289950278  1.0000
  C   C9        1.0  0.39628030081969723  0.8907498009539269  0.7557302518824541  1.0000
  C   C10       1.0  0.3963637503432197  0.6092580344218989  0.7442668815451368  1.0000
  C   C11       1.0  0.6037088068697188  0.7442516771554822  0.6092621300273463  1.0000
  C   C12       1.0  0.6036755451899796  0.7557618177230906  0.8907536813142511  1.0000
  C   C13       1.0  0.6036429568782964  0.1092515742667572  0.24426307237883546  1.0000
  C   C14       1.0  0.6037115326850613  0.3907457874148434  0.2557286759083865  1.0000
  C   C15       1.0  0.39629553102312803  0.2557594274162085  0.39073860531658505  1.0000
  C   C16       1.0  0.3963009213833857  0.24425258676089356  0.10925104642431188  1.0000
  C   C17       1.0  0.5000014638823345  0.7839092189438833  0.716102514617674  1.0000
  C   C18       1.0  0.5000026024004072  0.7160944038960578  0.7839263193487865  1.0000
  C   C19       1.0  0.4999978062072472  0.216088257694615  0.2839129780493437  1.0000
  C   C20       1.0  0.5000068027134077  0.28390224776610745  0.21608817521768486  1.0000
  N   N1        1.0  0.5000142614105416  0.9133221758492381  0.5866785907428919  1.0000
  N   N2        1.0  0.5000252773773823  0.5866629270290815  0.9133394630367418  1.0000
  N   N3        1.0  0.4999875423245399  0.08665120482496041  0.413324462098906  1.0000
  N   N4        1.0  0.4999790600772087  0.4133179353086759  0.08667409465501658  1.0000
  O   O1        1.0  0.5627088925812986  0.7500295544599497  0.25000328305510067  1.0000
  O   O2        1.0  0.4372929119879886  0.2500224318708035  0.7499953221695319  1.0000
  F   F1        1.0  0.0443201869789078  0.8755580731865181  0.37559469652273947  1.0000
  F   F2        1.0  0.04431018823807879  0.6243808397961672  0.12441526143844327  1.0000
  F   F3        1.0  0.9557094877035227  0.124385606124477  0.6244145667398441  1.0000
  F   F4        1.0  0.9556840139299966  0.37557077677521983  0.8755956117849235  1.0000
  F   F5        1.0  0.0534450088362703  0.6608687415607476  0.33915327538533546  1.0000
  F   F6        1.0  0.053327056852097605  0.8391671659235841  0.16083812836890835  1.0000
  F   F7        1.0  0.9465607287884908  0.1608739535172816  0.839143696692872  1.0000
  F   F8        1.0  0.9466708148293608  0.3391722643541612  0.6608255055383124  1.0000
