data_image0
_chemical_formula_structural       Mn2H20C20N24O4
_chemical_formula_sum              "Mn2 H20 C20 N24 O4"
_cell_length_a       3.468047425161432
_cell_length_b       13.92627369439495
_cell_length_c       14.557214938239682
_cell_angle_alpha    99.22145756551616
_cell_angle_beta     90.00085959621003
_cell_angle_gamma    89.99917531331157

_space_group_name_H-M_alt    "P 1"
_space_group_IT_number       1

loop_
  _space_group_symop_operation_xyz
  'x, y, z'

loop_
  _atom_site_type_symbol
  _atom_site_label
  _atom_site_symmetry_multiplicity
  _atom_site_fract_x
  _atom_site_fract_y
  _atom_site_fract_z
  _atom_site_occupancy
  Mn  Mn1       1.0  0.9123695428745364  0.49999976933509777  0.7500003793392481  1.0000
  Mn  Mn2       1.0  0.08763623079801162  0.5000047596035558  0.24999803269280116  1.0000
  H   H1        1.0  0.7404216562548173  0.2921655427876005  0.6170459102074022  1.0000
  H   H2        1.0  0.7404063309374109  0.7078323191030621  0.8829553243686662  1.0000
  H   H3        1.0  0.25960718524523685  0.707832462769403  0.38294937453113687  1.0000
  H   H4        1.0  0.2596109769243711  0.2921677669495608  0.1170492312462343  1.0000
  H   H5        1.0  0.2028746983278751  0.1810298550371812  0.8975563284377446  1.0000
  H   H6        1.0  0.20288436876122523  0.8189688850910243  0.6024451601324046  1.0000
  H   H7        1.0  0.7971253088288466  0.8189644272906663  0.1024459044376513  1.0000
  H   H8        1.0  0.797118521487761  0.18103562819020882  0.3975546233036625  1.0000
  H   H9        1.0  0.1921714953962876  0.35844559961418543  0.88565142411224  1.0000
  H   H10       1.0  0.1921605294792528  0.6415458125786628  0.6143563845073743  1.0000
  H   H11       1.0  0.8078169776012843  0.6415545569602016  0.1143469601190787  1.0000
  H   H12       1.0  0.8078337105948138  0.3584564557887121  0.38564852781033926  1.0000
  H   H13       1.0  0.6495482514621927  0.9528845610964325  0.5568822713168871  1.0000
  H   H14       1.0  0.6495550005608383  0.047112113495352  0.9431191264470443  1.0000
  H   H15       1.0  0.35045463869587934  0.0471192639126841  0.443113964684855  1.0000
  H   H16       1.0  0.3504565404544806  0.9528843354330122  0.05688483459390877  1.0000
  H   H17       1.0  0.8712116461282238  0.9818939908841672  0.6683884243283489  1.0000
  H   H18       1.0  0.8712332938390761  0.018103545030861295  0.8316070487591036  1.0000
  H   H19       1.0  0.1287681765818505  0.018103240335143805  0.3316108556460193  1.0000
  H   H20       1.0  0.12876382927613864  0.9819039249508846  0.1683890960942591  1.0000
  C   C1        1.0  0.8450884007192272  0.26877396666773723  0.6803811682785651  1.0000
  C   C2        1.0  0.8450850512577547  0.7312242975770147  0.8196211988758935  1.0000
  C   C3        1.0  0.15490583942472821  0.731225391993249  0.31962326838721117  1.0000
  C   C4        1.0  0.15491783909605064  0.26877585114462477  0.18037787108227124  1.0000
  C   C5        1.0  0.8586639486980946  0.16967356752272875  0.6862100162470455  1.0000
  C   C6        1.0  0.8586861789423711  0.8303232085162549  0.8137914699522357  1.0000
  C   C7        1.0  0.14131299057935823  0.830325814657158  0.31379236327882865  1.0000
  C   C8        1.0  0.141339779072652  0.16967913028112488  0.1862072710767535  1.0000
  C   C9        1.0  0.1020486962000859  0.20528952527752156  0.8338917140536142  1.0000
  C   C10       1.0  0.10206376281722382  0.7947073381456634  0.6661091018774885  1.0000
  C   C11       1.0  0.8979541942585528  0.7947062588845244  0.16610664242665513  1.0000
  C   C12       1.0  0.8979420108553171  0.2052971907929972  0.3338893101545609  1.0000
  C   C13       1.0  0.0913969903994243  0.30445599496176357  0.8283395349507005  1.0000
  C   C14       1.0  0.09140376483267693  0.6955393989185481  0.6716651239930728  1.0000
  C   C15       1.0  0.9086059001025647  0.6955397735384922  0.1716601929381056  1.0000
  C   C16       1.0  0.908599125437988  0.3044651065317865  0.3283353451472594  1.0000
  C   C17       1.0  0.7180108519143077  0.0979651025601882  0.6045827397439896  1.0000
  C   C18       1.0  0.7180282437876927  0.9020284783056455  0.8954163397792527  1.0000
  C   C19       1.0  0.28196897101252466  0.9020320503501581  0.39542339727305637  1.0000
  C   C20       1.0  0.28199194729349847  0.097973860500467  0.10458240124070531  1.0000
  N   N1        1.0  0.9589971459157881  0.33622658191436017  0.7517794068600666  1.0000
  N   N2        1.0  0.9589932599138964  0.6637691626482364  0.7482222747498072  1.0000
  N   N3        1.0  0.04100862800910931  0.663772808052734  0.24822228700671192  1.0000
  N   N4        1.0  0.04101828083644681  0.33623026646459664  0.2517759906046635  1.0000
  N   N5        1.0  0.9855571342254663  0.13771459641645123  0.7632453999133588  1.0000
  N   N6        1.0  0.9855899840835461  0.862283249872384  0.7367567217109042  1.0000
  N   N7        1.0  0.014419805056839203  0.8622818995497283  0.236754446847776  1.0000
  N   N8        1.0  0.014433090433826101  0.13772126337826052  0.2632430617567821  1.0000
  N   N9        1.0  0.7559140659436921  0.003981183123542599  0.610563790253366  1.0000
  N   N10       1.0  0.7559400252359795  0.9960144651322267  0.8894357647807922  1.0000
  N   N11       1.0  0.24405133933960602  0.9960225714643086  0.3894386170280697  1.0000
  N   N12       1.0  0.2440628651268923  0.0039835169714095  0.1105615770298911  1.0000
  N   N13       1.0  0.4178948074534007  0.5217033240027434  0.8455023005214672  1.0000
  N   N14       1.0  0.4178987481227524  0.47828824110553825  0.6544967344121703  1.0000
  N   N15       1.0  0.5821023159665872  0.4782968247276358  0.15449676942766644  1.0000
  N   N16       1.0  0.5820983752189337  0.521713378139836  0.3455012019543986  1.0000
  N   N17       1.0  0.3899925431718645  0.5687723033369495  0.9227490126361886  1.0000
  N   N18       1.0  0.390000160726409  0.43122150511891283  0.5772523487314417  1.0000
  N   N19       1.0  0.6099988134492094  0.4312249122030848  0.07725163876477839  1.0000
  N   N20       1.0  0.6099911957904851  0.5687764691713043  0.4227456787654447  1.0000
  N   N21       1.0  0.35846278409314186  0.6151842101015391  0.9963970513408996  1.0000
  N   N22       1.0  0.35847714870452313  0.38480685467601455  0.5035975642577597  1.0000
  N   N23       1.0  0.6415256891616395  0.38480792128757463  0.003602081960409001  1.0000
  N   N24       1.0  0.6415142078990783  0.6151910882906222  0.49640320605620053  1.0000
  O   O1        1.0  0.5684625647065574  0.1296376680354427  0.5368029516578332  1.0000
  O   O2        1.0  0.5684860419781615  0.8703585483511915  0.9631960160484284  1.0000
  O   O3        1.0  0.43153455860019113  0.8703654060631223  0.46319522253469364  1.0000
  O   O4        1.0  0.4315312658842673  0.1296379318920273  0.0368052021844889  1.0000
