data_image0
_chemical_formula_structural       MnH12C12Cl4O8
_chemical_formula_sum              "Mn1 H12 C12 Cl4 O8"
_cell_length_a       7.3410384826195845
_cell_length_b       7.236949829615277
_cell_length_c       10.69723224791511
_cell_angle_alpha    77.96218817906465
_cell_angle_beta     74.31776431678216
_cell_angle_gamma    69.62324118473622

_space_group_name_H-M_alt    "P 1"
_space_group_IT_number       1

loop_
  _space_group_symop_operation_xyz
  'x, y, z'

loop_
  _atom_site_type_symbol
  _atom_site_label
  _atom_site_symmetry_multiplicity
  _atom_site_fract_x
  _atom_site_fract_y
  _atom_site_fract_z
  _atom_site_occupancy
  Mn  Mn1       1.0  0.5000010465696364  0.49999643107820196  0.5000033388531622  1.0000
  H   H1        1.0  0.26266147742355633  0.19571445248458727  0.5276094254219361  1.0000
  H   H2        1.0  0.7373435967613274  0.8042929441321931  0.47238801863317564  1.0000
  H   H3        1.0  0.19949650505217426  0.3267313898579045  0.3755070018255538  1.0000
  H   H4        1.0  0.8005041891592343  0.6732761631338493  0.624493976773053  1.0000
  H   H5        1.0  0.08742110205965042  0.6898648726507517  0.35521572305746946  1.0000
  H   H6        1.0  0.9125795675308128  0.31013818494808726  0.6447840620800067  1.0000
  H   H7        1.0  0.07268830845382719  0.8013516262006705  0.4942141085691178  1.0000
  H   H8        1.0  0.9273176838397674  0.19865276901314394  0.5057826917427735  1.0000
  H   H9        1.0  0.3970727131670558  0.8731531470415919  0.49900951599163806  1.0000
  H   H10       1.0  0.6029200653432626  0.1268382311184126  0.5009943075673748  1.0000
  H   H11       1.0  0.4089170657176313  0.8253726525326355  0.6464806699572069  1.0000
  H   H12       1.0  0.5910855139530966  0.1746378884390154  0.3535214080772065  1.0000
  C   C1        1.0  0.6736644853668778  0.878974877670288  0.04230162381557528  1.0000
  C   C2        1.0  0.3263274630813983  0.12102846240286172  0.9577042930572621  1.0000
  C   C3        1.0  0.6822345338816547  0.9542588556874706  0.9095215025977413  1.0000
  C   C4        1.0  0.3177641726399685  0.0457412744827508  0.09047905780720814  1.0000
  C   C5        1.0  0.49134075214761447  0.9246961589685158  0.13272352364516857  1.0000
  C   C6        1.0  0.508653369939566  0.07529525789341562  0.8672819337875952  1.0000
  C   C7        1.0  0.48321209016985023  0.8477269439743793  0.2759383914132273  1.0000
  C   C8        1.0  0.5167765955684446  0.15225647982563834  0.7240476859300177  1.0000
  C   C9        1.0  0.16046209658804153  0.3258170652681115  0.482577406341477  1.0000
  C   C10       1.0  0.8395337921817401  0.6741876039937296  0.5174248291836535  1.0000
  C   C11       1.0  0.050740706296622314  0.6771485855834528  0.4629362962488488  1.0000
  C   C12       1.0  0.9492596116885326  0.3228649180892305  0.537064791655027  1.0000
  Cl  Cl1       1.0  0.8861282085394608  0.7318099194940758  0.09571102565056586  1.0000
  Cl  Cl2       1.0  0.11387966921344636  0.2681974636996429  0.9042868740971317  1.0000
  Cl  Cl3       1.0  0.9063666472648322  0.8978130059914236  0.7977016480133234  1.0000
  Cl  Cl4       1.0  0.09364306434307677  0.10219854798945252  0.20228783084957072  1.0000
  O   O1        1.0  0.47654615197892275  0.9684415064330666  0.3489318051853872  1.0000
  O   O2        1.0  0.52345139927737  0.0315290654093943  0.65107337711045  1.0000
  O   O3        1.0  0.48164545959093646  0.6696819511937661  0.31230171391855793  1.0000
  O   O4        1.0  0.5183453123209391  0.330326876999429  0.6876895554628394  1.0000
  O   O5        1.0  0.36136732808875394  0.7849071650787565  0.5821386235461788  1.0000
  O   O6        1.0  0.6386395846759713  0.21508405513900902  0.4178646664208544  1.0000
  O   O7        1.0  0.1880078130583557  0.4978431428155119  0.5144128958183389  1.0000
  O   O8        1.0  0.8119942001089699  0.5021599534852612  0.4855885231929024  1.0000
