data_image0
_chemical_formula_structural       Cu4P4H32C32N12O16
_chemical_formula_sum              "Cu4 P4 H32 C32 N12 O16"
_cell_length_a       7.031845267035334
_cell_length_b       10.926407527952104
_cell_length_c       12.971584929907662
_cell_angle_alpha    108.9163684975943
_cell_angle_beta     90.00008034741772
_cell_angle_gamma    90.00030990785535

_space_group_name_H-M_alt    "P 1"
_space_group_IT_number       1

loop_
  _space_group_symop_operation_xyz
  'x, y, z'

loop_
  _atom_site_type_symbol
  _atom_site_label
  _atom_site_symmetry_multiplicity
  _atom_site_fract_x
  _atom_site_fract_y
  _atom_site_fract_z
  _atom_site_occupancy
  Cu  Cu1       1.0  0.9669321694700417  0.012699424634519101  0.7881114082718101  1.0000
  Cu  Cu2       1.0  0.46693656543006773  0.9872999382081457  0.7118914571424074  1.0000
  Cu  Cu3       1.0  0.033065463447187006  0.987300978954991  0.21189176029402296  1.0000
  Cu  Cu4       1.0  0.5330639116888491  0.0127004619893825  0.2881101686690074  1.0000
  P   P1        1.0  0.7848435623492025  0.788211095250368  0.5690137593578373  1.0000
  P   P2        1.0  0.2848519146414858  0.2117894288838116  0.9309854246543596  1.0000
  P   P3        1.0  0.21515264845440643  0.21178736831433295  0.4309865694002327  1.0000
  P   P4        1.0  0.7151542508970081  0.7882138720139978  0.06901621828994572  1.0000
  H   H1        1.0  0.9062909171155697  0.7015451453139292  0.7465471200252056  1.0000
  H   H2        1.0  0.40630239610957375  0.29845878644593427  0.7534507719216706  1.0000
  H   H3        1.0  0.09370671578888332  0.2984533165547703  0.2534524373556551  1.0000
  H   H4        1.0  0.5937094578347486  0.7015454717323735  0.2465465055919652  1.0000
  H   H5        1.0  0.9011505828502494  0.4893537342937363  0.7767891865875501  1.0000
  H   H6        1.0  0.40115382362692037  0.5106434036117662  0.7232068556184575  1.0000
  H   H7        1.0  0.09884562794893982  0.5106437618085238  0.22321087933519132  1.0000
  H   H8        1.0  0.5988537640094691  0.4893598904931054  0.2767917018129042  1.0000
  H   H9        1.0  0.6829378434127165  0.3101116993062761  0.45205589957947734  1.0000
  H   H10       1.0  0.1829364663648008  0.689890357818946  0.0479401465820928  1.0000
  H   H11       1.0  0.317058367388924  0.6898867608604605  0.5479428864214457  1.0000
  H   H12       1.0  0.8170597444599252  0.31011294135896617  0.9520607249740609  1.0000
  H   H13       1.0  0.7017758690274009  0.5242024407389181  0.42065232350092446  1.0000
  H   H14       1.0  0.2017784507303872  0.47579485654190284  0.07934167333755236  1.0000
  H   H15       1.0  0.2982231859724891  0.4757950502723745  0.579345428288818  1.0000
  H   H16       1.0  0.7982234484746158  0.5242035968408559  0.9206540271545269  1.0000
  H   H17       1.0  0.5016123955793503  0.1910985035559563  0.5692260861990379  1.0000
  H   H18       1.0  0.001618682874664  0.8089076145502219  0.9307797926126615  1.0000
  H   H19       1.0  0.49838239312096283  0.8088989976402557  0.4307762938580739  1.0000
  H   H20       1.0  0.9983817942781459  0.1910995629813215  0.06922598718180242  1.0000
  H   H21       1.0  0.030281486710883602  0.27504589189042866  0.7358969834963391  1.0000
  H   H22       1.0  0.530270250033432  0.7249525933567255  0.764100676722187  1.0000
  H   H23       1.0  0.9697204125044508  0.7249535391486573  0.2641036081025306  1.0000
  H   H24       1.0  0.4697302271011949  0.27505167329258734  0.23590045767339532  1.0000
  H   H25       1.0  0.6245969861744953  0.04499281392523359  0.9005821684623714  1.0000
  H   H26       1.0  0.12460224629420222  0.9550031703853464  0.5994171987845578  1.0000
  H   H27       1.0  0.37540349094441444  0.9550075862722877  0.09941945734904323  1.0000
  H   H28       1.0  0.8753968087184631  0.04499626234674991  0.4005841641901571  1.0000
  H   H29       1.0  0.7118366871305426  0.9165876351998039  0.9209454608577022  1.0000
  H   H30       1.0  0.2118473289977558  0.08341162659053938  0.5790587195682664  1.0000
  H   H31       1.0  0.28816236788212285  0.08341179753228542  0.07905590211701252  1.0000
  H   H32       1.0  0.7881503039140726  0.9165878078375513  0.42094341478365765  1.0000
  C   C1        1.0  0.8040839356656306  0.6272955214445517  0.5812656075260565  1.0000
  C   C2        1.0  0.30409361672730023  0.37269927027202226  0.9187281795846546  1.0000
  C   C3        1.0  0.1959165414336326  0.37270100550524893  0.4187334241868756  1.0000
  C   C4        1.0  0.6959153929932286  0.6273001539860772  0.08126932650674959  1.0000
  C   C5        1.0  0.8620403511184166  0.6157387766872587  0.681048768612847  1.0000
  C   C6        1.0  0.36204418856600995  0.3842552961877247  0.8189471812514955  1.0000
  C   C7        1.0  0.13796154807284472  0.3842558136416656  0.3189489660522186  1.0000
  C   C8        1.0  0.637957710646873  0.6157431707868923  0.18105469026919968  1.0000
  C   C9        1.0  0.8575986478616643  0.49704706702225826  0.6986183150893625  1.0000
  C   C10       1.0  0.3576105543328865  0.5029498861947417  0.8013768719895255  1.0000
  C   C11       1.0  0.1424004071283989  0.5029484873651741  0.3013781396511492  1.0000
  C   C12       1.0  0.6423998774875059  0.49704953466837765  0.19861909134609598  1.0000
  C   C13       1.0  0.7907976946684558  0.38824870647970766  0.616247286092481  1.0000
  C   C14       1.0  0.29080361880014044  0.611748935184707  0.8837488067263383  1.0000
  C   C15       1.0  0.20919567192412103  0.6117487845196267  0.38375046569179017  1.0000
  C   C16       1.0  0.7091982804230528  0.388252429080275  0.1162515391646225  1.0000
  C   C17       1.0  0.7349075755879825  0.3959693752618065  0.5153803304618523  1.0000
  C   C18       1.0  0.23490942376344043  0.6040251172603632  0.9846094667119589  1.0000
  C   C19       1.0  0.26509147940551264  0.6040271448890735  0.48461561573540746  1.0000
  C   C20       1.0  0.7650910533387574  0.39597333442042526  0.015385462400175201  1.0000
  C   C21       1.0  0.7433283266337655  0.5159581786024673  0.4989132756752499  1.0000
  C   C22       1.0  0.24332935759545654  0.48404316313065704  0.001081852414650086  1.0000
  C   C23       1.0  0.2566735725732059  0.48404027817824874  0.5010839675739833  1.0000
  C   C24       1.0  0.7566696974255506  0.5159591634938463  0.998916442173169  1.0000
  C   C25       1.0  0.6247408550354195  0.18559533360975417  0.6184257921847095  1.0000
  C   C26       1.0  0.12474137570909251  0.8144035519837518  0.8815735924617631  1.0000
  C   C27       1.0  0.3752596220712121  0.8144021658994373  0.3815758164992858  1.0000
  C   C28       1.0  0.8752605235101641  0.18559780548530114  0.11842366791488965  1.0000
  C   C29       1.0  0.8943844647959552  0.231213336492317  0.7066041635034425  1.0000
  C   C30       1.0  0.3943801102185418  0.7687895845361796  0.7933965282093001  1.0000
  C   C31       1.0  0.10561316811390502  0.7687860945378092  0.29339642809132743  1.0000
  C   C32       1.0  0.6056203669170729  0.23121468381211946  0.20660537756486266  1.0000
  N   N1        1.0  0.8213562827162876  0.1290096748180787  0.7245795476925782  1.0000
  N   N2        1.0  0.32134563578182446  0.8709958434148819  0.7754225634545694  1.0000
  N   N3        1.0  0.17864419440606133  0.8709916911428978  0.27542156957558483  1.0000
  N   N4        1.0  0.6786505750502769  0.12900842832241466  0.2245808850726406  1.0000
  N   N5        1.0  0.6519795008142851  0.10086984697118602  0.6700266074866763  1.0000
  N   N6        1.0  0.15197065199624404  0.8991272283300021  0.8299769321355729  1.0000
  N   N7        1.0  0.3480209763002051  0.8991295857639018  0.32997475548940275  1.0000
  N   N8        1.0  0.8480255588157278  0.10087220949306186  0.17002674497214096  1.0000
  N   N9        1.0  0.7739154577516061  0.27052024898018345  0.640959724409875  1.0000
  N   N10       1.0  0.2739123594382775  0.729478292585547  0.8590381415256874  1.0000
  N   N11       1.0  0.22608217514842013  0.7294772454260824  0.35903957013565707  1.0000
  N   N12       1.0  0.7260866955846977  0.27052403743691394  0.14096169581929277  1.0000
  O   O1        1.0  0.5819311872340263  0.8276980254688624  0.614153484046476  1.0000
  O   O2        1.0  0.08193766933437273  0.17230068364644777  0.8858473610334914  1.0000
  O   O3        1.0  0.4180636014535041  0.172297534006546  0.3858452848256635  1.0000
  O   O4        1.0  0.9180670740959158  0.8277016463879718  0.1141524763169529  1.0000
  O   O5        1.0  0.9431978904626562  0.8718042228487662  0.6418459219099335  1.0000
  O   O6        1.0  0.4432039296447244  0.1281921310813061  0.8581530238409985  1.0000
  O   O7        1.0  0.056795476142703215  0.1281952098713788  0.35815544105931013  1.0000
  O   O8        1.0  0.5568008137703444  0.8718053735337891  0.1418508989828312  1.0000
  O   O9        1.0  0.7430421826122  0.9966690129399965  0.9025761198480216  1.0000
  O   O10       1.0  0.2430479279887336  0.0033313508277430996  0.5974299261785563  1.0000
  O   O11       1.0  0.25695687239407766  0.0033294489316944005  0.09742343753420361  1.0000
  O   O12       1.0  0.7569511270131244  0.9966661435815138  0.40256936836834717  1.0000
  O   O13       1.0  0.8042579034414176  0.7782729603749062  0.4497997408651886  1.0000
  O   O14       1.0  0.3042696410696096  0.2217334866153635  0.05020221823838262  1.0000
  O   O15       1.0  0.19573688527804478  0.22172937303655968  0.5502016392328388  1.0000
  O   O16       1.0  0.6957351023803257  0.7782727166667769  0.9498002132105442  1.0000
