data_image0
_chemical_formula_structural       Zn6H44C48S4N32O16
_chemical_formula_sum              "Zn6 H44 C48 S4 N32 O16"
_cell_length_a       8.1048748
_cell_length_b       14.010810276828431
_cell_length_c       15.9949
_cell_angle_alpha    114.11783295377825
_cell_angle_beta     90.0
_cell_angle_gamma    106.81179926813004

_space_group_name_H-M_alt    "P 1"
_space_group_IT_number       1

loop_
  _space_group_symop_operation_xyz
  'x, y, z'

loop_
  _atom_site_type_symbol
  _atom_site_label
  _atom_site_symmetry_multiplicity
  _atom_site_fract_x
  _atom_site_fract_y
  _atom_site_fract_z
  _atom_site_occupancy
  Zn  Zn1       1.0  0.2700396374275655  0.2758208152990491  0.04897685886277258  1.0000
  Zn  Zn2       1.0  0.9943786791204586  0.7241323922460624  0.4509151762367337  1.0000
  Zn  Zn3       1.0  0.7299576226887012  0.7241793881851208  0.9510220260912519  1.0000
  Zn  Zn4       1.0  0.005623928531548505  0.2758686357282656  0.5490865046224511  1.0000
  Zn  Zn5       1.0  0.013591949567761203  0.0001113061714477  0.7500614089596664  1.0000
  Zn  Zn6       1.0  0.9864044860798343  0.9998872483324063  0.2499375109775741  1.0000
  H   H1        1.0  0.5376620613412513  0.6907957816522909  0.1979249858811727  1.0000
  H   H2        1.0  0.8469197572929446  0.3091722667156844  0.3021780517267914  1.0000
  H   H3        1.0  0.46233478654067994  0.3092035973417211  0.8020748543633827  1.0000
  H   H4        1.0  0.1530906655455055  0.6908295857488085  0.6978239242404314  1.0000
  H   H5        1.0  0.3786851181186321  0.641846625410075  0.027586006117687113  1.0000
  H   H6        1.0  0.737080907819106  0.3582970393617373  0.4725492547364354  1.0000
  H   H7        1.0  0.6213104988156033  0.3581552270544108  0.9724140942516823  1.0000
  H   H8        1.0  0.2629270444909864  0.6417023396322747  0.5274512107074044  1.0000
  H   H9        1.0  0.7519684991318697  0.0361151424291748  0.11802511730770247  1.0000
  H   H10       1.0  0.7164938691110052  0.9639963672264429  0.38198484806376587  1.0000
  H   H11       1.0  0.24802958257541263  0.9638842365648372  0.8819740977375687  1.0000
  H   H12       1.0  0.2835050341872929  0.0360021872774112  0.6180153222720433  1.0000
  H   H13       1.0  0.5455367070859012  0.4231555577095918  0.26014257383004485  1.0000
  H   H14       1.0  0.12237914384489557  0.5766772742723276  0.23978390020768356  1.0000
  H   H15       1.0  0.454462196212404  0.5768429967942623  0.7398550957086341  1.0000
  H   H16       1.0  0.8776259343354625  0.4233262271724811  0.7602174155770383  1.0000
  H   H17       1.0  0.6734965876397253  0.6513966949203223  0.320480888142434  1.0000
  H   H18       1.0  0.022099745841679008  0.3484551003352507  0.1795805392329086  1.0000
  H   H19       1.0  0.3265006695988859  0.3486010350933739  0.6795171114874916  1.0000
  H   H20       1.0  0.97790944317142  0.6515467521292351  0.8204208115350295  1.0000
  H   H21       1.0  0.1523816639605187  0.5356704317305514  0.8831980487990803  1.0000
  H   H22       1.0  0.6167202292256351  0.4645375432736571  0.6168589481978728  1.0000
  H   H23       1.0  0.8476139529737168  0.4643314207339415  0.11680330196885792  1.0000
  H   H24       1.0  0.3832840187307625  0.535459362249874  0.3831406319218757  1.0000
  H   H25       1.0  0.03655972590338759  0.3194313977625569  0.8646056843275004  1.0000
  H   H26       1.0  0.7169568055905488  0.6806982506765564  0.6352719791800254  1.0000
  H   H27       1.0  0.9634326017891226  0.680571279192094  0.13539658674775268  1.0000
  H   H28       1.0  0.2830470330091615  0.3193003038272977  0.3647313171521915  1.0000
  H   H29       1.0  0.8410255930934412  0.2139230411117126  0.9549014937729152  1.0000
  H   H30       1.0  0.6275696966272764  0.7862569012270911  0.5451423435545094  1.0000
  H   H31       1.0  0.15897248861384128  0.7860763378822995  0.04509709607307846  1.0000
  H   H32       1.0  0.3724304433740287  0.2137441267472369  0.4548593373046755  1.0000
  H   H33       1.0  0.5894850688187033  0.0812378398440572  0.011896188103826002  1.0000
  H   H34       1.0  0.5088429401102061  0.918947049435701  0.48814816947323436  1.0000
  H   H35       1.0  0.4105126035318918  0.9187631881302778  0.9881036171575202  1.0000
  H   H36       1.0  0.4911576092477786  0.081052329558311  0.5118516707713211  1.0000
  H   H37       1.0  0.38755113287321313  0.09474876007752898  0.2732826489173306  1.0000
  H   H38       1.0  0.293077648001713  0.9050881943551872  0.22652963879333748  1.0000
  H   H39       1.0  0.6124481826594277  0.9052506189164831  0.7267159409286633  1.0000
  H   H40       1.0  0.7069167293518674  0.0949087111683511  0.773468065728558  1.0000
  H   H41       1.0  0.556091076320648  0.22008280708866582  0.18492261235278554  1.0000
  H   H42       1.0  0.3361249903544845  0.7795908982925894  0.3147637224449013  1.0000
  H   H43       1.0  0.44390782697765724  0.7799157474151883  0.8150756823851777  1.0000
  H   H44       1.0  0.6638726791184624  0.2204076562112647  0.6852339470937776  1.0000
  C   C1        1.0  0.5208531314738208  0.4747018579522617  0.22948678050602211  1.0000
  C   C2        1.0  0.0462111265933629  0.52518044343919  0.27049241117347816  1.0000
  C   C3        1.0  0.4791428919394392  0.5252958720614345  0.7705118443231881  1.0000
  C   C4        1.0  0.9537955947690337  0.4748214090252958  0.7295095647937442  1.0000
  C   C5        1.0  0.5849385275264254  0.5875539484481962  0.2600077958285993  1.0000
  C   C6        1.0  0.9974324022394541  0.4123415447857965  0.24003738710908346  1.0000
  C   C7        1.0  0.41505914194652865  0.4124446060556579  0.7399917493079257  1.0000
  C   C8        1.0  0.0025767867736447413  0.5876603076786964  0.7599652140574165  1.0000
  C   C9        1.0  0.41035415404639514  0.5153154186882603  0.12899871794222406  1.0000
  C   C10       1.0  0.895183090201968  0.4846831358155939  0.37105146833616937  1.0000
  C   C11       1.0  0.5896381707684599  0.4846847847959168  0.871001417410369  1.0000
  C   C12       1.0  0.10482692040214658  0.515317892158734  0.628950837722307  1.0000
  C   C13       1.0  0.3061104472118217  0.4928117842919377  0.04621709508148089  1.0000
  C   C14       1.0  0.8134528003496939  0.5072617988163728  0.45383493805660174  1.0000
  C   C15       1.0  0.6938814682463601  0.5071900681725481  0.9537848808857347  1.0000
  C   C16       1.0  0.18655597642906943  0.4927392291579551  0.5461673680018677  1.0000
  C   C17       1.0  0.18133172945855588  0.4996113546321795  0.9274540945618668  1.0000
  C   C18       1.0  0.681790486486527  0.5005553958640903  0.5725956494248265  1.0000
  C   C19       1.0  0.8186630658846568  0.5003913223224714  0.07254630091553341  1.0000
  C   C20       1.0  0.3182137614698633  0.499441509659448  0.4274051810934764  1.0000
  C   C21       1.0  0.12573588977588196  0.3927821647468193  0.9192840306348272  1.0000
  C   C22       1.0  0.7329239374313586  0.6073384143005498  0.5806691617939065  1.0000
  C   C23       1.0  0.8742572595076438  0.6072196877176737  0.08071794533239544  1.0000
  C   C24       1.0  0.2670799011683513  0.3926601402033043  0.41933288413974873  1.0000
  C   C25       1.0  0.8554641019712719  0.1766956614582185  0.0007793967112733219  1.0000
  C   C26       1.0  0.6792913362225691  0.8234545992348714  0.49925194112912397  1.0000
  C   C27       1.0  0.14453356750167498  0.8233028930456356  0.9992188980266831  1.0000
  C   C28       1.0  0.3207096253697514  0.1765456042492985  0.5007488194227534  1.0000
  C   C29       1.0  0.7293922871538783  0.1106309140079276  0.02863189553823989  1.0000
  C   C30       1.0  0.6193232659232919  0.8895218201556361  0.4713871984413273  1.0000
  C   C31       1.0  0.2706057945534042  0.8893684649860845  0.9713673195070385  1.0000
  C   C32       1.0  0.380677283434693  0.11047755883837601  0.5286132670025123  1.0000
  C   C33       1.0  0.9885892594713113  0.1320899193729517  0.09211858544276201  1.0000
  C   C34       1.0  0.8569757244583869  0.8679671739321791  0.4078593988128958  1.0000
  C   C35       1.0  0.011408822235978323  0.8679094596210604  0.9078793792039477  1.0000
  C   C36       1.0  0.143024824899598  0.132032205061833  0.5921404414316598  1.0000
  C   C37       1.0  0.13959185006244468  0.1333934383141298  0.1413525708576273  1.0000
  C   C38       1.0  0.0065710419962457176  0.8665375079966964  0.3585515027020349  1.0000
  C   C39       1.0  0.8604062316448376  0.8666059406798823  0.8586460189883665  1.0000
  C   C40       1.0  0.9934282735363952  0.1334618709973228  0.641448962741805  1.0000
  C   C41       1.0  0.333329265451745  0.1211085349469059  0.2275949775147268  1.0000
  C   C42       1.0  0.21248639845810402  0.878717701113743  0.27220847219725647  1.0000
  C   C43       1.0  0.6666696378465531  0.8788900195569482  0.7724033172232365  1.0000
  C   C44       1.0  0.7875096249551561  0.12128002889995318  0.7277895274326693  1.0000
  C   C45       1.0  0.4178540311087248  0.18360653796990084  0.18282022929902544  1.0000
  C   C46       1.0  0.234450962909456  0.8161512654075622  0.3169287168806817  1.0000
  C   C47       1.0  0.5821444599552379  0.8163911920437954  0.8171777703309003  1.0000
  C   C48       1.0  0.7655471187978266  0.18384811358644979  0.6830704981645893  1.0000
  S   S1        1.0  0.3894909097434934  0.1468895177247447  0.8651179797094101  1.0000
  S   S2        1.0  0.2425883421140682  0.8531749959918145  0.6348964212797837  1.0000
  S   S3        1.0  0.6105063503727735  0.8531106857594253  0.13488028004532998  1.0000
  S   S4        1.0  0.7574154993632902  0.1468260319825134  0.3651040091808397  1.0000
  N   N1        1.0  0.4119636498350303  0.4306246140588357  0.14800936289715588  1.0000
  N   N2        1.0  0.9814667289655006  0.5693228220551703  0.35197376113918466  1.0000
  N   N3        1.0  0.5880311426305269  0.5693755894253343  0.851990772455437  1.0000
  N   N4        1.0  0.018539992396895914  0.4306790304093226  0.6480282148280381  1.0000
  N   N5        1.0  0.5135519833238646  0.6116983182606788  0.19589779978036853  1.0000
  N   N6        1.0  0.9019462036250732  0.388265607656507  0.304190007903223  1.0000
  N   N7        1.0  0.4864423969073642  0.3883010607333333  0.8041026656634711  1.0000
  N   N8        1.0  0.09806463144770561  0.6117370692981439  0.6958128883713143  1.0000
  N   N9        1.0  0.2042229003904126  0.3893242530204972  0.9937123410807016  1.0000
  N   N10       1.0  0.8149378034271848  0.6107443831468586  0.5062491431111056  1.0000
  N   N11       1.0  0.7957677812424109  0.6106775994439886  0.0062890096872366165  1.0000
  N   N12       1.0  0.1850709733515856  0.3892566448274692  0.4937537881466483  1.0000
  N   N13       1.0  0.2950546583979445  0.5618397493732203  0.008181005432760544  1.0000
  N   N14       1.0  0.7334128619882208  0.4382907235560509  0.4919307777143729  1.0000
  N   N15       1.0  0.7049397247109327  0.4381621030912655  0.9918197201359005  1.0000
  N   N16       1.0  0.26659550255621417  0.561709479928119  0.5080706080367818  1.0000
  N   N17       1.0  0.015446984611258988  0.1901043449119939  0.04083310097671238  1.0000
  N   N18       1.0  0.8258273959016904  0.8099947973912478  0.4591768141692398  1.0000
  N   N19       1.0  0.9845515064527035  0.8098933851017023  0.9591648986532134  1.0000
  N   N20       1.0  0.1741719196309433  0.1900045816027713  0.5408236512746001  1.0000
  N   N21       1.0  0.8152401091776158  0.0836775062241628  0.08590772561009889  1.0000
  N   N22       1.0  0.732093284943801  0.9164117421971625  0.41407801666314725  1.0000
  N   N23       1.0  0.1847583847640024  0.9163226972600071  0.9140917845432099  1.0000
  N   N24       1.0  0.2679072644141911  0.0835876367968496  0.5859218235814082  1.0000
  N   N25       1.0  0.29577176562460045  0.19087359423021874  0.1286719726483767  1.0000
  N   N26       1.0  0.1051743003793106  0.8089575887713778  0.37113262251251905  1.0000
  N   N27       1.0  0.704225491614018  0.8091241357834704  0.8713266521808333  1.0000
  N   N28       1.0  0.8948266612130098  0.1910426147127922  0.6288681380393513  1.0000
  N   N29       1.0  0.15648725363073618  0.08939534547595679  0.2011266234957461  1.0000
  N   N30       1.0  0.06747613052385754  0.9105265314431178  0.29876982748057657  1.0000
  N   N31       1.0  0.8435120619018975  0.9106040335180553  0.7988719663502479  1.0000
  N   N32       1.0  0.932521126714761  0.0894711985705783  0.7012287973486337  1.0000
  O   O1        1.0  0.4652498249294297  0.0630924604275478  0.8622239376857264  1.0000
  O   O2        1.0  0.40229852688373313  0.9367148123594474  0.6376071105020314  1.0000
  O   O3        1.0  0.534749081246524  0.9369085675467802  0.1377771179741814  1.0000
  O   O4        1.0  0.5977040778906257  0.0632837421444066  0.3623924346344936  1.0000
  O   O5        1.0  0.4466269018305625  0.2462323369675232  0.9595036730469173  1.0000
  O   O6        1.0  0.2000101258565863  0.7537208705775882  0.5405903014207636  1.0000
  O   O7        1.0  0.5533683057469787  0.7537711644772785  0.040495141940674315  1.0000
  O   O8        1.0  0.7999920695610856  0.2462793329065818  0.4594117095296751  1.0000
  O   O9        1.0  0.4389370566137529  0.1862877799665625  0.7932354345667676  1.0000
  O   O10       1.0  0.25247405133738704  0.813840219492235  0.7068279481108135  1.0000
  O   O11       1.0  0.5610606128591941  0.8137107745372916  0.2067609845733499  1.0000
  O   O12       1.0  0.7475281469579329  0.1861624574624159  0.2931743229644397  1.0000
  O   O13       1.0  0.1936170278496121  0.1034125026669841  0.8587067596190676  1.0000
  O   O14       1.0  0.0905390498163712  0.8969595458788433  0.6413839559051198  1.0000
  O   O15       1.0  0.8063777646159521  0.8965877008171859  0.141290874936395  1.0000
  O   O16       1.0  0.9094652038953228  0.10304230658564961  0.3586161444642498  1.0000
