data_image0
_chemical_formula_structural       Cu4H14C18S4N14
_chemical_formula_sum              "Cu4 H14 C18 S4 N14"
_cell_length_a       5.724260990708397
_cell_length_b       9.474105690615138
_cell_length_c       11.38879347076476
_cell_angle_alpha    90.00110406385319
_cell_angle_beta     89.99898899483541
_cell_angle_gamma    93.46868102904507

_space_group_name_H-M_alt    "P 1"
_space_group_IT_number       1

loop_
  _space_group_symop_operation_xyz
  'x, y, z'

loop_
  _atom_site_type_symbol
  _atom_site_label
  _atom_site_symmetry_multiplicity
  _atom_site_fract_x
  _atom_site_fract_y
  _atom_site_fract_z
  _atom_site_occupancy
  Cu  Cu1       1.0  0.32293427187229173  0.46809956945007525  0.7902082749506151  1.0000
  Cu  Cu2       1.0  0.6770459918234764  0.531888129619894  0.2902019127660154  1.0000
  Cu  Cu3       1.0  0.4726975573219647  0.4385784870072129  0.5524926764312214  1.0000
  Cu  Cu4       1.0  0.5272914053581773  0.561422965741372  0.0524878688978063  1.0000
  H   H1        1.0  0.45210121585873253  0.11184832057119823  0.1461922086665908  1.0000
  H   H2        1.0  0.5478984203332402  0.8881551054106112  0.6461988825664522  1.0000
  H   H3        1.0  0.6018028341067279  0.9718349338012334  0.0923057459287904  1.0000
  H   H4        1.0  0.3981882136967556  0.028164769112308412  0.5923162472348409  1.0000
  H   H5        1.0  0.8615540274586381  0.010370722446815302  0.7475421685187486  1.0000
  H   H6        1.0  0.1384505380867297  0.9896184422078144  0.24754906039500926  1.0000
  H   H7        1.0  0.16409832063962437  0.8310593282009083  0.7545429160858536  1.0000
  H   H8        1.0  0.8359165948093973  0.16893361925899347  0.2545524301153961  1.0000
  H   H9        1.0  0.456870828293937  0.8382335853918267  0.9168937832113428  1.0000
  H   H10       1.0  0.543130831519896  0.16176535259781846  0.4169058445733569  1.0000
  H   H11       1.0  0.600365687502638  0.167745080267963  0.7619994049481421  1.0000
  H   H12       1.0  0.3996504865500228  0.832248528293363  0.2620009441817714  1.0000
  H   H13       1.0  0.9442827331784542  0.3349871691965094  0.065866171351793  1.0000
  H   H14       1.0  0.05572991683794733  0.6650165021310387  0.56587313475314  1.0000
  C   C1        1.0  0.9877352775648306  0.10545828399783372  0.9114150040935698  1.0000
  C   C2        1.0  0.012266631952016455  0.8945391086835603  0.4114203367232606  1.0000
  C   C3        1.0  0.9863950608241296  0.009233339766630903  0.8193751470115272  1.0000
  C   C4        1.0  0.013608293173916845  0.9907622132321098  0.3193827490045322  1.0000
  C   C5        1.0  0.15906321634516735  0.9109027332311546  0.8231705363302027  1.0000
  C   C6        1.0  0.8409416357072744  0.08909315553483314  0.3231807891606806  1.0000
  C   C7        1.0  0.32119027620473156  0.9139683911549458  0.913478648257076  1.0000
  C   C8        1.0  0.6788081139162685  0.08603024701023544  0.41348794666659233  1.0000
  C   C9        1.0  0.3016269024018783  0.015215230005274806  0.0033892193896037006  1.0000
  C   C10       1.0  0.6983711725265636  0.9847881918663292  0.5033974299728146  1.0000
  C   C11       1.0  0.64249662383601  0.2329310033355228  0.838247049881993  1.0000
  C   C12       1.0  0.357512699919674  0.7670683353370791  0.3382496988787125  1.0000
  C   C13       1.0  0.8179932621535784  0.3189016742761056  0.9956514141740628  1.0000
  C   C14       1.0  0.18201885061110096  0.681103195712737  0.4956556796255925  1.0000
  C   C15       1.0  0.8477167972458589  0.5925478201989095  0.7681155985725923  1.0000
  C   C16       1.0  0.15227878092794359  0.4074537601279431  0.26811870658939807  1.0000
  C   C17       1.0  0.9565770012758178  0.3281062792686243  0.5831783270399171  1.0000
  C   C18       1.0  0.04341267931434343  0.6718904980187406  0.08317570822271142  1.0000
  S   S1        1.0  0.5923634161485651  0.6551398720769513  0.7449706836605332  1.0000
  S   S2        1.0  0.4076213415443277  0.3448586057659001  0.24497162390576224  1.0000
  S   S3        1.0  0.2118628663627078  0.26714464842535085  0.6129019609666743  1.0000
  S   S4        1.0  0.7881215926945943  0.7328568930303095  0.11289735280072223  1.0000
  N   N1        1.0  0.4481908989629702  0.01996031375410471  0.0992545141778365  1.0000
  N   N2        1.0  0.5518072274969796  0.9800452863413653  0.5992653514459079  1.0000
  N   N3        1.0  0.1342652395337964  0.10905600176894845  0.0022821949408325  1.0000
  N   N4        1.0  0.8657326892297021  0.890945206603064  0.5022882407643366  1.0000
  N   N5        1.0  0.8231382508971805  0.21309196702485889  0.9141957986476613  1.0000
  N   N6        1.0  0.1768672980685295  0.7869088412390826  0.4142011496943567  1.0000
  N   N7        1.0  0.5298579753597039  0.34346880758545245  0.8723735527672004  1.0000
  N   N8        1.0  0.47015424408883894  0.6565325041354345  0.3723727434393282  1.0000
  N   N9        1.0  0.6411195326479769  0.3975175130216045  0.9725387791249959  1.0000
  N   N10       1.0  0.3588961689416621  0.6024884702043993  0.4725395370628009  1.0000
  N   N11       1.0  0.028605478425596707  0.5421411961272399  0.7852134592917679  1.0000
  N   N12       1.0  0.9713717312061263  0.45786404178267065  0.2852176201442731  1.0000
  N   N13       1.0  0.7734788572000753  0.37404120594739976  0.5641860376067172  1.0000
  N   N14       1.0  0.22650715516725486  0.6259570599930769  0.0641868013362341  1.0000
