data_image0
_chemical_formula_structural       Mg4H56C48O16
_chemical_formula_sum              "Mg4 H56 C48 O16"
_cell_length_a       6.919788798219125
_cell_length_b       11.263631586286166
_cell_length_c       15.3196
_cell_angle_alpha    70.55045573020679
_cell_angle_beta     83.14735066803235
_cell_angle_gamma    89.14290196715183

_space_group_name_H-M_alt    "P 1"
_space_group_IT_number       1

loop_
  _space_group_symop_operation_xyz
  'x, y, z'

loop_
  _atom_site_type_symbol
  _atom_site_label
  _atom_site_symmetry_multiplicity
  _atom_site_fract_x
  _atom_site_fract_y
  _atom_site_fract_z
  _atom_site_occupancy
  Mg  Mg1       1.0  0.7505433848526765  0.9804707581971002  0.7565652684599298  1.0000
  Mg  Mg2       1.0  0.24945694031279692  0.0195287720913839  0.24343482900960825  1.0000
  Mg  Mg3       1.0  0.24784666657182441  0.9048695259477028  0.774432766074206  1.0000
  Mg  Mg4       1.0  0.7521552296985091  0.09513282995649058  0.22556655495740333  1.0000
  H   H1        1.0  0.8915516901374403  0.1735380148689529  0.4471759614868347  1.0000
  H   H2        1.0  0.1084471794993433  0.8264615154195242  0.5528248671864234  1.0000
  H   H3        1.0  0.858805575854305  0.2849633450490785  0.5058141135849398  1.0000
  H   H4        1.0  0.1411918382537891  0.7150361852394056  0.4941854880163703  1.0000
  H   H5        1.0  0.1346982532367065  0.3402446328063604  0.5828599215190949  1.0000
  H   H6        1.0  0.8652992379221659  0.6597567812259371  0.41713921475370347  1.0000
  H   H7        1.0  0.3640826208833375  0.2701147344567829  0.5740969107548608  1.0000
  H   H8        1.0  0.6359147932247567  0.7298847958317012  0.4259039963635658  1.0000
  H   H9        1.0  0.22576541295081404  0.0689233604384611  0.43869678621229014  1.0000
  H   H10       1.0  0.7742349122146592  0.931076169850023  0.5613039640158065  1.0000
  H   H11       1.0  0.4155672299935773  0.11082818339195201  0.4920843511981304  1.0000
  H   H12       1.0  0.5844316396432063  0.8891713468965321  0.5079151719580111  1.0000
  H   H13       1.0  0.3714490304799867  0.4903846657955953  0.46083937554575266  1.0000
  H   H14       1.0  0.628548422153493  0.509615806364792  0.5391599933913015  1.0000
  H   H15       1.0  0.022247132888793403  0.5022654380132394  0.4320584221548316  1.0000
  H   H16       1.0  0.9777502812193006  0.4977340922752447  0.5679411794464784  1.0000
  H   H17       1.0  0.1777679001086057  0.5397114393654618  0.32567659821700096  1.0000
  H   H18       1.0  0.8222309310027924  0.460287149051112  0.6743231576034036  1.0000
  H   H19       1.0  0.9063557259466537  0.3880757137900872  0.3329607025293199  1.0000
  H   H20       1.0  0.0936417266868332  0.6119247583703  0.6670393191662856  1.0000
  H   H21       1.0  0.22542685397761633  0.3765688647189762  0.24222671301179588  1.0000
  H   H22       1.0  0.7745720156591674  0.6234306655695079  0.7577734629029039  1.0000
  H   H23       1.0  0.11051722400230092  0.22622256178240718  0.29465381063175766  1.0000
  H   H24       1.0  0.8894830626377939  0.7737760266341667  0.7053471722605877  1.0000
  H   H25       1.0  0.5787477966822223  0.3252575670439342  0.4229237964608147  1.0000
  H   H26       1.0  0.4212497330020356  0.6747447888602593  0.5770757599062862  1.0000
  H   H27       1.0  0.5091524804129506  0.4371557169206853  0.3209755755438978  1.0000
  H   H28       1.0  0.49084638922383317  0.5628438133677989  0.6790246003708093  1.0000
  H   H29       1.0  0.59864519667304  0.7666959755195323  0.9070719206086794  1.0000
  H   H30       1.0  0.4013566225465226  0.2333044966408551  0.0929278657514416  1.0000
  H   H31       1.0  0.7059884413299287  0.6173329868524391  0.9310805413652332  1.0000
  H   H32       1.0  0.2940104668322405  0.3826674853079481  0.06891874912665229  1.0000
  H   H33       1.0  0.7213409529349664  0.9273030309960575  0.9743227657788367  1.0000
  H   H34       1.0  0.2786622832878933  0.0726964992924266  0.0256778275589298  1.0000
  H   H35       1.0  0.9067866800072721  0.8866584326523039  0.04884471615383756  1.0000
  H   H36       1.0  0.09321651769019469  0.1133401557642699  0.9511561098481851  1.0000
  H   H37       1.0  0.9775344254526886  0.5600681168618991  0.039023507974747  1.0000
  H   H38       1.0  0.022465899712791795  0.4399314134265849  0.9609759367362329  1.0000
  H   H39       1.0  0.0568035297932568  0.6724136558938199  0.0855619994818753  1.0000
  H   H40       1.0  0.9431968338976091  0.3275868162665603  0.9144385180819654  1.0000
  H   H41       1.0  0.8364501972838668  0.5074777571390072  0.20511837063254032  1.0000
  H   H42       1.0  0.163550089356221  0.4925208312775665  0.7948813067426955  1.0000
  H   H43       1.0  0.6054965742487113  0.6551067596278273  0.25225139374990857  1.0000
  H   H44       1.0  0.3945052064454586  0.3448927706606497  0.7477486252744683  1.0000
  H   H45       1.0  0.8399147798937038  0.7276874086758554  0.2107273594191739  1.0000
  H   H46       1.0  0.1600855452717768  0.2723121216126216  0.7892727380503644  1.0000
  H   H47       1.0  0.6421418308980691  0.4549985383009841  0.09627311433132492  1.0000
  H   H48       1.0  0.35785991127070826  0.5450000501155898  0.9037271373573077  1.0000
  H   H49       1.0  0.4866132171351012  0.4941173041576121  0.18234098283627986  1.0000
  H   H50       1.0  0.5133871080303791  0.5058822261308649  0.8176584618747  1.0000
  H   H51       1.0  0.38218136605166825  0.6050924195668443  0.025625303285941932  1.0000
  H   H52       1.0  0.6178190361645833  0.394908994465446  0.9743743288550847  1.0000
  H   H53       1.0  0.3805363616108295  0.8206237933484175  0.03273202714707681  1.0000
  H   H54       1.0  0.6194640020800364  0.1793766788119697  0.9672678376582057  1.0000
  H   H55       1.0  0.3373470120633542  0.7095413045419434  0.14654418867421265  1.0000
  H   H56       1.0  0.6626533516275118  0.2904591676184438  0.8534563288896282  1.0000
  C   C1        1.0  0.07996313968362759  0.0955284161568599  0.6084569508971499  1.0000
  C   C2        1.0  0.9200372240072383  0.9044720560035273  0.39154291390813983  1.0000
  C   C3        1.0  0.140266188982082  0.1980605918040013  0.514923278905961  1.0000
  C   C4        1.0  0.8597312636513976  0.8019398803563859  0.4850760900310931  1.0000
  C   C5        1.0  0.9654575791998212  0.2494397042562468  0.4618609915555112  1.0000
  C   C6        1.0  0.0345412904369695  0.7505598260322373  0.5381391843591957  1.0000
  C   C7        1.0  0.23809307638337174  0.3066141545438441  0.5364510510364371  1.0000
  C   C8        1.0  0.7619058317788046  0.693386317616536  0.4635488922140071  1.0000
  C   C9        1.0  0.2906343776697042  0.1473982438719403  0.453930162921175  1.0000
  C   C10       1.0  0.7093659860211616  0.8526022282884468  0.5460697018841074  1.0000
  C   C11       1.0  0.3034630206947355  0.41324347298048986  0.44496443693032733  1.0000
  C   C12       1.0  0.6965343934133587  0.5867560573079942  0.555035817429534  1.0000
  C   C13       1.0  0.129179270968514  0.46277274901007104  0.3910045094354119  1.0000
  C   C14       1.0  0.8708167261362831  0.5372277231503162  0.6089949379468038  1.0000
  C   C15       1.0  0.033469152246461  0.3549058108894343  0.3702265675324909  1.0000
  C   C16       1.0  0.9665297173903228  0.6450937193990498  0.629773608382216  1.0000
  C   C17       1.0  0.1800455126636891  0.3031716127287609  0.3097406907974829  1.0000
  C   C18       1.0  0.819953318447709  0.6968269756878129  0.6902597177814727  1.0000
  C   C19       1.0  0.4530348580310033  0.3618295112677359  0.3854189076802896  1.0000
  C   C20       1.0  0.546962556077098  0.6381700190207482  0.6145813466795786  1.0000
  C   C21       1.0  0.35917874962611057  0.2549863879085166  0.3616127798993888  1.0000
  C   C22       1.0  0.6408186259565909  0.7450122005080573  0.6383883598832868  1.0000
  C   C23       1.0  0.5064938648125974  0.20291594147753503  0.3034977979291043  1.0000
  C   C24       1.0  0.4935064218274904  0.797082646939039  0.6965031849632484  1.0000
  C   C25       1.0  0.9939011382675532  0.7953025090373984  0.9056390996231158  1.0000
  C   C26       1.0  0.006099225423312801  0.2046979631229888  0.0943601124236153  1.0000
  C   C27       1.0  0.8428228502356419  0.741990675434792  0.9894679398068008  1.0000
  C   C28       1.0  0.15717605792653444  0.2580097967255952  0.010532003443643103  1.0000
  C   C29       1.0  0.6624578857210963  0.6913481068127538  0.9611253930748661  1.0000
  C   C30       1.0  0.3375409839156944  0.3086514234757303  0.03887478283984082  1.0000
  C   C31       1.0  0.780126696672049  0.8491549771138338  0.028459963312229802  1.0000
  C   C32       1.0  0.2198736284934242  0.1508445531746503  0.9715407869158669  1.0000
  C   C33       1.0  0.9281507294802367  0.6357089077313276  0.06618939999941631  1.0000
  C   C34       1.0  0.0718495956852365  0.3642906225571494  0.9338100447115636  1.0000
  C   C35       1.0  0.7742321852954889  0.5840924435588661  0.15119167247401316  1.0000
  C   C36       1.0  0.22576959539867397  0.415907086729618  0.8488083465503635  1.0000
  C   C37       1.0  0.713506958186521  0.6902282211169535  0.1898749557287474  1.0000
  C   C38       1.0  0.2864948225076489  0.3097713091715306  0.8101257160541806  1.0000
  C   C39       1.0  0.5975438668521564  0.5328800424339164  0.12184071630898793  1.0000
  C   C40       1.0  0.4024579523673992  0.4671204297264708  0.878159070051126  1.0000
  C   C41       1.0  0.624581991176484  0.7980640774647085  0.11403153830907087  1.0000
  C   C42       1.0  0.3754197895176858  0.2019354528237685  0.8859697862324155  1.0000
  C   C43       1.0  0.5106119854284401  0.6394462554528815  0.046834543410028615  1.0000
  C   C44       1.0  0.48938837826242576  0.3605542167075058  0.9531653213952538  1.0000
  C   C45       1.0  0.4479303916560653  0.7453296113402601  0.08548727602613583  1.0000
  C   C46       1.0  0.5520699720348006  0.2546708608201271  0.9145125887791467  1.0000
  C   C47       1.0  0.5699320812157254  0.901671870828082  0.1554743728117813  1.0000
  C   C48       1.0  0.4300712320579123  0.09832954320420842  0.8445257551974735  1.0000
  O   O1        1.0  0.8990494177014199  0.0823412676060968  0.6405775723610105  1.0000
  O   O2        1.0  0.1009493748845856  0.9176563789385668  0.3594237216407592  1.0000
  O   O3        1.0  0.21333720055667982  0.031430265490954  0.6504790851244735  1.0000
  O   O4        1.0  0.7866646957136538  0.9685720904132465  0.34952088866569403  1.0000
  O   O5        1.0  0.6845831502333014  0.2324398582314871  0.2908409030115209  1.0000
  O   O6        1.0  0.3154171749321719  0.767559672056997  0.7091598472165758  1.0000
  O   O7        1.0  0.450080763941564  0.12203834281278599  0.2663800321170272  1.0000
  O   O8        1.0  0.5499181442206051  0.8779621293476013  0.7336205638919823  1.0000
  O   O9        1.0  0.9439115095529259  0.8783699598827397  0.8295357420198641  1.0000
  O   O10       1.0  0.05609180372071171  0.1216314541495507  0.17046242771372283  1.0000
  O   O11       1.0  0.16937521506697106  0.7648188248116057  0.9064925639171975  1.0000
  O   O12       1.0  0.8306251871492876  0.2351825892206847  0.0935064154652707  1.0000
  O   O13       1.0  0.38949375735752784  0.9145340735713958  0.1802953729460839  1.0000
  O   O14       1.0  0.6105094788653318  0.0854654567170812  0.8197039148745662  1.0000
  O   O15       1.0  0.7070299674769346  0.9676151485571225  0.16509433515725652  1.0000
  O   O16       1.0  0.2929718132172354  0.0323843817313616  0.8349069893842298  1.0000
