data_image0
_chemical_formula_structural       Yb4H28C28S4O32
_chemical_formula_sum              "Yb4 H28 C28 S4 O32"
_cell_length_a       8.511140393269987
_cell_length_b       9.208022717373332
_cell_length_c       13.653852637730592
_cell_angle_alpha    102.00240995349652
_cell_angle_beta     90.00063959956186
_cell_angle_gamma    90.00054774895436

_space_group_name_H-M_alt    "P 1"
_space_group_IT_number       1

loop_
  _space_group_symop_operation_xyz
  'x, y, z'

loop_
  _atom_site_type_symbol
  _atom_site_label
  _atom_site_symmetry_multiplicity
  _atom_site_fract_x
  _atom_site_fract_y
  _atom_site_fract_z
  _atom_site_occupancy
  Yb  Yb1       1.0  0.537173688955228  0.756612184356122  0.7169496646009108  1.0000
  Yb  Yb2       1.0  0.0371683609844453  0.74339349202468  0.7830551886379524  1.0000
  Yb  Yb3       1.0  0.46282907057609884  0.24338297867386427  0.28305015467255157  1.0000
  Yb  Yb4       1.0  0.9628261740743155  0.2566092785910712  0.21694464879303152  1.0000
  H   H1        1.0  0.7942851120001179  0.16849556665373203  0.7051456837095459  1.0000
  H   H2        1.0  0.2942703969864482  0.33150804909138293  0.794846351589527  1.0000
  H   H3        1.0  0.20572469718760536  0.8315089721951026  0.2948564026595832  1.0000
  H   H4        1.0  0.7057417617276798  0.6684714277509656  0.20513397661725463  1.0000
  H   H5        1.0  0.8651142105128641  0.30709166718341413  0.573406944968049  1.0000
  H   H6        1.0  0.36510269100870824  0.19291380190370702  0.9265856893424388  1.0000
  H   H7        1.0  0.13488619931771947  0.6929227016259889  0.4265989059441467  1.0000
  H   H8        1.0  0.6348977184687358  0.8070685786023405  0.0734006314803182  1.0000
  H   H9        1.0  0.31517110742880317  0.0879048463482306  0.5389870934635113  1.0000
  H   H10       1.0  0.8151602369599614  0.4120966434967529  0.9610081049538125  1.0000
  H   H11       1.0  0.6848340019881007  0.9120983297829639  0.4610105003359096  1.0000
  H   H12       1.0  0.18483194830154298  0.5879079440292332  0.03899772253384981  1.0000
  H   H13       1.0  0.36313785972728146  0.5543078410144845  0.536585245828924  1.0000
  H   H14       1.0  0.8631332788422128  0.945696058539646  0.9634156054930402  1.0000
  H   H15       1.0  0.636860200149556  0.44569475127748603  0.46341758405130673  1.0000
  H   H16       1.0  0.1368565565318178  0.054305041445282094  0.036589465429770505  1.0000
  H   H17       1.0  0.42112374634223937  0.7101926261511835  0.5194851869070903  1.0000
  H   H18       1.0  0.9211212752073621  0.7898133932066358  0.9805139116025077  1.0000
  H   H19       1.0  0.5788766634119965  0.28981042038424226  0.4805191404996734  1.0000
  H   H20       1.0  0.07887325986337862  0.21018788514657424  0.0194881669056812  1.0000
  H   H21       1.0  0.6530973707998271  0.9941833972433618  0.8673169285414346  1.0000
  H   H22       1.0  0.1530890512260186  0.5058300057136833  0.63268517519235  1.0000
  H   H23       1.0  0.3468995141322749  0.00581788112256019  0.1326851499766448  1.0000
  H   H24       1.0  0.8469054838587695  0.4941725865592162  0.36731765467304467  1.0000
  H   H25       1.0  0.7792018020308475  0.977550807523656  0.7801173451237204  1.0000
  H   H26       1.0  0.2791964153879789  0.5224558495319374  0.71988056355238  1.0000
  H   H27       1.0  0.22079860767728118  0.022450016630600093  0.21988323589256004  1.0000
  H   H28       1.0  0.7208016444387014  0.4775425738855859  0.28011926349793015  1.0000
  C   C1        1.0  0.1642307946293968  0.02934580610650533  0.6504434757563617  1.0000
  C   C2        1.0  0.6642385336849087  0.47068285903449697  0.8495594992562944  1.0000
  C   C3        1.0  0.8357672653217278  0.9706653022772188  0.34956236734930013  1.0000
  C   C4        1.0  0.3357654008635294  0.5293266595734282  0.15044110256584992  1.0000
  C   C5        1.0  0.0132644721977755  0.04725987824239296  0.6972027419729159  1.0000
  C   C6        1.0  0.5132782184849419  0.4527488558260941  0.8027959252747436  1.0000
  C   C7        1.0  0.986727713025729  0.9527463798889928  0.3027978520031312  1.0000
  C   C8        1.0  0.48673159062453647  0.5472488863089069  0.1972016555500673  1.0000
  C   C9        1.0  0.9086923908248608  0.15190495063216503  0.6686040630097382  1.0000
  C   C10       1.0  0.4086879184107843  0.34810144433175344  0.8313904357864531  1.0000
  C   C11       1.0  0.0913127186461651  0.8481006749955642  0.3313980259384835  1.0000
  C   C12       1.0  0.5913242403995227  0.6518807578950216  0.1685988775201821  1.0000
  C   C13       1.0  0.9471159037244447  0.2280723357770214  0.5947781515481338  1.0000
  C   C14       1.0  0.4471072220176993  0.2719261860112781  0.9052144062990097  1.0000
  C   C15       1.0  0.05288568093849481  0.7719328356009002  0.4052224398686094  1.0000
  C   C16       1.0  0.5528955374433906  0.7280624074202394  0.09478165618845942  1.0000
  C   C17       1.0  0.0938407195249411  0.20295050274651782  0.5465578683198161  1.0000
  C   C18       1.0  0.5938225655911964  0.29704864056945723  0.9534392076012355  1.0000
  C   C19       1.0  0.9061643899459924  0.7970514570100209  0.4534464565078623  1.0000
  C   C20       1.0  0.40618136887089656  0.7029501883380791  0.046558375797722804  1.0000
  C   C21       1.0  0.20108929651574667  0.10699647089268895  0.5753386638105199  1.0000
  C   C22       1.0  0.7010787336109202  0.39300441692147825  0.9246540790923776  1.0000
  C   C23       1.0  0.7989146379663409  0.8930010928676709  0.42466190942396764  1.0000
  C   C24       1.0  0.2989193262279172  0.6069998459758923  0.07534351727623803  1.0000
  C   C25       1.0  0.2886611698108794  0.9323514422235707  0.6751702771578181  1.0000
  C   C26       1.0  0.7886675307490518  0.5676552684934111  0.8248239700252995  1.0000
  C   C27       1.0  0.7113321901587213  0.06763859464711428  0.3248198030201337  1.0000
  C   C28       1.0  0.211331704086561  0.432349951644305  0.17518036257427383  1.0000
  S   S1        1.0  0.14735965575104604  0.29692937820340154  0.45228324266472714  1.0000
  S   S2        1.0  0.6473566369813142  0.20306979803040562  0.047717907759377516  1.0000
  S   S3        1.0  0.8526372292331956  0.7030752093480147  0.5477225848427169  1.0000
  S   S4        1.0  0.3526367231607209  0.7969306206274922  0.9522849169033024  1.0000
  O   O1        1.0  0.4244205451955452  0.9335001115532009  0.6367639654848178  1.0000
  O   O2        1.0  0.9244146625906849  0.5665031860547673  0.8632403916830358  1.0000
  O   O3        1.0  0.5755810394231063  0.0664946460122096  0.363238097459778  1.0000
  O   O4        1.0  0.0755833973162297  0.4335011743876367  0.13676468707103603  1.0000
  O   O5        1.0  0.26551039589625697  0.8428899557924013  0.7366465953405099  1.0000
  O   O6        1.0  0.7655001873125543  0.6571200405955295  0.7633519545851116  1.0000
  O   O7        1.0  0.7344970633198002  0.15710687786841504  0.2633479904411189  1.0000
  O   O8        1.0  0.23450139732823766  0.34287992387613303  0.2366493725955578  1.0000
  O   O9        1.0  0.9678543645064579  0.9707399333042095  0.7640444032441494  1.0000
  O   O10       1.0  0.4678505182548561  0.5292641910461102  0.7359543347873088  1.0000
  O   O11       1.0  0.032150744972497584  0.029262253567687  0.23596067034184645  1.0000
  O   O12       1.0  0.5321581158938641  0.47073178293210566  0.264040997158709  1.0000
  O   O13       1.0  0.0086526183202622  0.2953507263455322  0.3872664650218313  1.0000
  O   O14       1.0  0.5086390414284665  0.2046582222295896  0.1127312997218795  1.0000
  O   O15       1.0  0.991356015894645  0.7046498707378605  0.6127333672707496  1.0000
  O   O16       1.0  0.4913484440743756  0.7953508420585963  0.887267804514373  1.0000
  O   O17       1.0  0.1915242287311898  0.45021977567514443  0.5000247348462139  1.0000
  O   O18       1.0  0.6915041805264079  0.049772768369614105  0.9999694042020553  1.0000
  O   O19       1.0  0.8084773559157269  0.5497849414720335  0.49997435905388704  1.0000
  O   O20       1.0  0.308480955082743  0.9502243898308079  3.341262937080022e-05  1.0000
  O   O21       1.0  0.2802480690535489  0.21214566450210276  0.399328891049585  1.0000
  O   O22       1.0  0.7802469437444441  0.28786160027144814  0.10066666030297003  1.0000
  O   O23       1.0  0.7197488159387928  0.787862816035876  0.6006754493367268  1.0000
  O   O24       1.0  0.21974524147501023  0.7121427113666527  0.8993346772336397  1.0000
  O   O25       1.0  0.4369112584438283  0.6371190039553057  0.5607563976707228  1.0000
  O   O26       1.0  0.936906500467181  0.8628889543947835  0.9392450826379746  1.0000
  O   O27       1.0  0.5630950259236656  0.36287924116387427  0.43924642184862256  1.0000
  O   O28       1.0  0.0630880346316474  0.13711495179780542  0.06075849858461881  1.0000
  O   O29       1.0  0.6630870024834935  0.9688639149241571  0.793760739332541  1.0000
  O   O30       1.0  0.16307911579189488  0.5311461086157936  0.7062406919633519  1.0000
  O   O31       1.0  0.33691693203272166  0.03113736347991391  0.20624133921521803  1.0000
  O   O32       1.0  0.8369177691201344  0.46885276902611395  0.29376063259864793  1.0000
