data_image0
_chemical_formula_structural       Cd2H24C30S4N4O12
_chemical_formula_sum              "Cd2 H24 C30 S4 N4 O12"
_cell_length_a       8.703141683549633
_cell_length_b       9.674394054496425
_cell_length_c       11.504857266732499
_cell_angle_alpha    66.43349330567534
_cell_angle_beta     77.82191527159134
_cell_angle_gamma    78.21915509076844

_space_group_name_H-M_alt    "P 1"
_space_group_IT_number       1

loop_
  _space_group_symop_operation_xyz
  'x, y, z'

loop_
  _atom_site_type_symbol
  _atom_site_label
  _atom_site_symmetry_multiplicity
  _atom_site_fract_x
  _atom_site_fract_y
  _atom_site_fract_z
  _atom_site_occupancy
  Cd  Cd1       1.0  0.27340746219552864  0.52384118090972  0.8391784272356376  1.0000
  Cd  Cd2       1.0  0.7265882045573449  0.47616385738339767  0.16082063819751372  1.0000
  H   H1        1.0  0.6511284843581107  0.4091490527810606  0.8426853303453328  1.0000
  H   H2        1.0  0.34885831076846324  0.5908455265587021  0.1573196574420735  1.0000
  H   H3        1.0  0.9082395064463566  0.437660551251163  0.6973099046242555  1.0000
  H   H4        1.0  0.09175635332344707  0.5623286573337865  0.3026990964298335  1.0000
  H   H5        1.0  0.9017712407471803  0.5853823210998  0.4585052614378001  1.0000
  H   H6        1.0  0.09823048702656927  0.4146139387828994  0.5415020892748147  1.0000
  H   H7        1.0  0.6446337898390269  0.6987440099590785  0.38152737955070387  1.0000
  H   H8        1.0  0.35536839463549086  0.3012567679186873  0.6184765598269166  1.0000
  H   H9        1.0  0.9821681556814141  0.7200289279489807  0.6757443227289529  1.0000
  H   H10       1.0  0.01783091163931517  0.279970274203869  0.32425021259031445  1.0000
  H   H11       1.0  0.9330644319878088  0.8708032986119534  0.4508424852187289  1.0000
  H   H12       1.0  0.06693543183135378  0.1291982061271426  0.5491511126000505  1.0000
  H   H13       1.0  0.16577399189021946  0.9049965260978395  0.2731028440031693  1.0000
  H   H14       1.0  0.8342303342399545  0.09500628756378399  0.7268913536818572  1.0000
  H   H15       1.0  0.4344015090645285  0.7892446530158921  0.3287605629983831  1.0000
  H   H16       1.0  0.5656025253311513  0.210759474838369  0.6712384297429566  1.0000
  H   H17       1.0  0.9843577145936206  0.36877677832939065  0.9399029153332847  1.0000
  H   H18       1.0  0.015640481675745777  0.6312271791225895  0.06009615113259058  1.0000
  H   H19       1.0  0.41128463743422816  0.2044360599644151  0.901726589556084  1.0000
  H   H20       1.0  0.5887149694606251  0.7955666999706777  0.0982700798979934  1.0000
  H   H21       1.0  0.9396618255627445  0.5431367118012956  0.8735842459294433  1.0000
  H   H22       1.0  0.06033678012465764  0.45686491224859793  0.1264138475288945  1.0000
  H   H23       1.0  0.3129794198967629  0.08972338594450949  0.8960555398086214  1.0000
  H   H24       1.0  0.6870288123456445  0.9102694557423802  0.10394769253662167  1.0000
  C   C1        1.0  0.44825287268371733  0.19270875988976843  0.20347244201227002  1.0000
  C   C2        1.0  0.551748809634283  0.8073091913871123  0.7965272185112371  1.0000
  C   C3        1.0  0.6075052609769925  0.1497153208601603  0.1931020955675891  1.0000
  C   C4        1.0  0.3924940591159327  0.850281813375453  0.8068992221387318  1.0000
  C   C5        1.0  0.5039686473460208  0.0339626923198608  0.43509435257330153  1.0000
  C   C6        1.0  0.49602899687668867  0.9660307969560833  0.5649032946641981  1.0000
  C   C7        1.0  0.3497526953581199  0.29112460514915034  0.10252391786649892  1.0000
  C   C8        1.0  0.6502459228018226  0.7088839292945295  0.8974734606853971  1.0000
  C   C9        1.0  0.731826313608252  0.19117975188429884  0.07488979151419531  1.0000
  C   C10       1.0  0.26817633249959255  0.808818604096423  0.925110589724362  1.0000
  C   C11       1.0  0.6550407582357349  0.4732509708136163  0.7400406195026507  1.0000
  C   C12       1.0  0.3449522496250097  0.5267415045229809  0.2599650449737042  1.0000
  C   C13       1.0  0.7980036595071667  0.48859156535396403  0.6574734374254732  1.0000
  C   C14       1.0  0.2019947819944149  0.5113964738948908  0.342532979529814  1.0000
  C   C15       1.0  0.7934760212503489  0.5707073670971781  0.5272098574065113  1.0000
  C   C16       1.0  0.20652280239906415  0.4292922480321124  0.47279674185989523  1.0000
  C   C17       1.0  0.6483653462675036  0.6355266079545885  0.4835858325253852  1.0000
  C   C18       1.0  0.3516417273411675  0.3644731159452944  0.5164168720004342  1.0000
  C   C19       1.0  0.5091308288469562  0.6184059039568126  0.5726007519236447  1.0000
  C   C20       1.0  0.4908733232322715  0.381597204687985  0.4274020628664772  1.0000
  C   C21       1.0  0.07976607521927548  0.7359927105050729  0.5965450316285654  1.0000
  C   C22       1.0  0.9202347500645938  0.26401692900795837  0.40344901241104497  1.0000
  C   C23       1.0  0.05286864354890497  0.8204700947119221  0.47071559883345054  1.0000
  C   C24       1.0  0.9471335624828184  0.1795314663887595  0.5292776248113071  1.0000
  C   C25       1.0  0.1816666504546375  0.839864199310746  0.37302102459052133  1.0000
  C   C26       1.0  0.8183400178881043  0.1601386707124632  0.626972798920484  1.0000
  C   C27       1.0  0.33276081699673893  0.7738943323395375  0.4045035978663449  1.0000
  C   C28       1.0  0.6672436442220758  0.22610743261430596  0.5954935601569461  1.0000
  C   C29       1.0  0.351298276567661  0.689926103158804  0.5330477698284498  1.0000
  C   C30       1.0  0.6487036600672196  0.3100698027440814  0.46694924035804775  1.0000
  S   S1        1.0  0.33926283631767956  0.12746011550159148  0.35693422410956543  1.0000
  S   S2        1.0  0.6607379292109241  0.872535762220501  0.6430629731639357  1.0000
  S   S3        1.0  0.683634126995983  0.0320744207079144  0.3326503856614309  1.0000
  S   S4        1.0  0.3163683840232139  0.9679249839805804  0.667347035238855  1.0000
  N   N1        1.0  0.5146092661385139  0.5366400039583752  0.6986286595594464  1.0000
  N   N2        1.0  0.4853888654430277  0.46335713159476904  0.3013737069443891  1.0000
  N   N3        1.0  0.22493838322665735  0.6720442438003856  0.6271875503968759  1.0000
  N   N4        1.0  0.7750610537693702  0.3279596238391136  0.3728078821399521  1.0000
  O   O1        1.0  0.20197791568033088  0.3106913084809477  0.138522413517201  1.0000
  O   O2        1.0  0.7980185350984356  0.68930912200463  0.8614764293218969  1.0000
  O   O3        1.0  0.4209643380571676  0.3473401775772871  0.987292021712996  1.0000
  O   O4        1.0  0.5790317381137484  0.6526625273137439  0.01270607071261056  1.0000
  O   O5        1.0  0.7641190706242396  0.10776630069766918  0.011710014200367904  1.0000
  O   O6        1.0  0.23589088970366826  0.8922300974539398  0.9882943034821707  1.0000
  O   O7        1.0  0.8000455753505306  0.3065667087908253  0.055725541962686996  1.0000
  O   O8        1.0  0.1999513975972674  0.6934373089753121  0.9442762967217251  1.0000
  O   O9        1.0  0.02566541005921147  0.4581802565763907  0.8694943782846922  1.0000
  O   O10       1.0  0.9743341968356416  0.5418225033587021  0.13050229116938547  1.0000
  O   O11       1.0  0.36042399941750597  0.184011383056486  0.8431100964749164  1.0000
  O   O12       1.0  0.6395755427895297  0.8159845549797706  0.15688987301712848  1.0000
