data_image0
_chemical_formula_structural       Zn2H20C28N6O8
_chemical_formula_sum              "Zn2 H20 C28 N6 O8"
_cell_length_a       6.770389562789107
_cell_length_b       7.74646820357826
_cell_length_c       13.226886679654326
_cell_angle_alpha    73.45348948943327
_cell_angle_beta     86.21082048336716
_cell_angle_gamma    87.37314627082417

_space_group_name_H-M_alt    "P 1"
_space_group_IT_number       1

loop_
  _space_group_symop_operation_xyz
  'x, y, z'

loop_
  _atom_site_type_symbol
  _atom_site_label
  _atom_site_symmetry_multiplicity
  _atom_site_fract_x
  _atom_site_fract_y
  _atom_site_fract_z
  _atom_site_occupancy
  Zn  Zn1       1.0  0.39515690392653363  0.39011201536735735  0.13833350838289957  1.0000
  Zn  Zn2       1.0  0.6048462589396949  0.609884692192743  0.861663833026732  1.0000
  H   H1        1.0  0.8615858119121002  0.45897079305546384  0.2003273997471168  1.0000
  H   H2        1.0  0.13841437187613792  0.5410298956172567  0.7996731996742028  1.0000
  H   H3        1.0  0.5726746171652904  0.9174907022537437  0.2639164158849069  1.0000
  H   H4        1.0  0.42731064666132573  0.0825099915324898  0.7360810294164821  1.0000
  H   H5        1.0  0.9490263678519498  0.8805789508976927  0.28670747435676697  1.0000
  H   H6        1.0  0.05096768205793719  0.11942446486646219  0.7132891583341062  1.0000
  H   H7        1.0  0.0856043363081938  0.7219823629854075  0.23415810555074038  1.0000
  H   H8        1.0  0.9143870855639237  0.27801559347328453  0.7658440632867567  1.0000
  H   H9        1.0  0.2803822748335135  0.5320001097413041  0.3658845396767133  1.0000
  H   H10       1.0  0.7195999648570819  0.468007239023045  0.6341172425821782  1.0000
  H   H11       1.0  0.6838490229670455  0.6714454640297518  0.45410587138038483  1.0000
  H   H12       1.0  0.31613927810051473  0.32855918835148384  0.5458976071919821  1.0000
  H   H13       1.0  0.36153566399359244  0.9306027438383778  0.49417172309635027  1.0000
  H   H14       1.0  0.6384763414807324  0.0694032987106183  0.5058328007068695  1.0000
  H   H15       1.0  0.15295547055295336  0.7863687189255015  0.6542820533862181  1.0000
  H   H16       1.0  0.8470550550087738  0.2136373190167902  0.3457225334078372  1.0000
  H   H17       1.0  0.8906607268449707  0.7055508658204841  0.9862498013591504  1.0000
  H   H18       1.0  0.1093442251922525  0.29444173318699995  0.013753426697505202  1.0000
  H   H19       1.0  0.6408358479261197  0.9453090221154881  0.0009445113600108135  1.0000
  H   H20       1.0  0.3591644984796077  0.05468628811792089  0.999056200586672  1.0000
  C   C1        1.0  0.746408496970453  0.5579989827991625  0.20796728464568998  1.0000
  C   C2        1.0  0.25358416969537256  0.4420043874138599  0.7920324382586369  1.0000
  C   C3        1.0  0.5984849123652297  0.79413166451328  0.24021461264007363  1.0000
  C   C4        1.0  0.40150492964952633  0.20586367488986204  0.75978199940851  1.0000
  C   C5        1.0  0.9588897458033472  0.7384460976850987  0.28712593966967853  1.0000
  C   C6        1.0  0.0410999610372897  0.261557263314522  0.7128739092163272  1.0000
  C   C7        1.0  0.9804423152085205  0.6153952120776579  0.3975725823158028  1.0000
  C   C8        1.0  0.019544435083148  0.3846107931018352  0.6024299851089907  1.0000
  C   C9        1.0  0.15789863192750891  0.5189012177908552  0.42496405255910463  1.0000
  C   C10       1.0  0.8420910298550836  0.4811048170742609  0.5750368752727083  1.0000
  C   C11       1.0  0.8227215664786132  0.5954187392567292  0.4735056482876486  1.0000
  C   C12       1.0  0.1772678827141192  0.40459136782327215  0.5264923571289302  1.0000
  C   C13       1.0  0.2507228647467201  0.1734783827181943  0.3156775499055086  1.0000
  C   C14       1.0  0.7492863611345797  0.8265169551554264  0.68432278409616  1.0000
  C   C15       1.0  0.1188495691875744  0.0816694012383437  0.4092368319714124  1.0000
  C   C16       1.0  0.8811640079535364  0.9183326248830069  0.5907667672279188  1.0000
  C   C17       1.0  0.20291078557577438  0.9601716394811816  0.4968168713762679  1.0000
  C   C18       1.0  0.7970998575453977  0.03983169388730091  0.5031889068889512  1.0000
  C   C19       1.0  0.08563746383164528  0.8798611251936561  0.5868400603795789  1.0000
  C   C20       1.0  0.9143745641716947  0.1201435804225923  0.41316392395074064  1.0000
  C   C21       1.0  0.28456068210515895  0.7233255719233823  0.9800936498530672  1.0000
  C   C22       1.0  0.7154423873687603  0.2766738299744205  0.019903256891048198  1.0000
  C   C23       1.0  0.13848756902453369  0.8668135861751407  0.9906645566928914  1.0000
  C   C24       1.0  0.8615155971179221  0.1331857747782337  0.0093353772738567  1.0000
  C   C25       1.0  0.9362659034711529  0.835007684033897  0.9923325518336907  1.0000
  C   C26       1.0  0.06374043344824541  0.16498628722135317  0.007668882288058391  1.0000
  C   C27       1.0  0.7977402088918809  0.9683000382686017  0.0015876778929708774  1.0000
  C   C28       1.0  0.20226605880233714  0.031696617088250896  0.9984140783689239  1.0000
  N   N1        1.0  0.5588654066802121  0.5629791491177444  0.18395478346248942  1.0000
  N   N2        1.0  0.4411347513027835  0.4370202230944428  0.8160437628746136  1.0000
  N   N3        1.0  0.46401938247547037  0.7123613286995861  0.20401913723530632  1.0000
  N   N4        1.0  0.5359748300518987  0.28763670862526425  0.7959776079809231  1.0000
  N   N5        1.0  0.7764318263089934  0.7017021221486601  0.2439172399779607  1.0000
  N   N6        1.0  0.22355942966940753  0.2982985593560556  0.7560822237770563  1.0000
  O   O1        1.0  0.16718174010854628  0.2873298721394661  0.23638090340372733  1.0000
  O   O2        1.0  0.8328289673234651  0.7126667970374997  0.7636206638856604  1.0000
  O   O3        1.0  0.4348746659068823  0.14345044356991818  0.3158559035651649  1.0000
  O   O4        1.0  0.5651348385132309  0.8565354845939411  0.6841444381544617  1.0000
  O   O5        1.0  0.2394236030181958  0.5596763787832941  0.023377748506227564  1.0000
  O   O6        1.0  0.7605840012239329  0.4403216692935459  0.9766207002094516  1.0000
  O   O7        1.0  0.4456733990369059  0.7747246819461324  0.9258174542758081  1.0000
  O   O8        1.0  0.554329504543297  0.22527744499770108  0.07417674738582748  1.0000
