data_image0
_chemical_formula_structural       Sm2H28C30N4O16
_chemical_formula_sum              "Sm2 H28 C30 N4 O16"
_cell_length_a       8.649773099578704
_cell_length_b       10.11592743111044
_cell_length_c       11.029101351883412
_cell_angle_alpha    65.80367632279257
_cell_angle_beta     68.88568231484976
_cell_angle_gamma    77.82647443718056

_space_group_name_H-M_alt    "P 1"
_space_group_IT_number       1

loop_
  _space_group_symop_operation_xyz
  'x, y, z'

loop_
  _atom_site_type_symbol
  _atom_site_label
  _atom_site_symmetry_multiplicity
  _atom_site_fract_x
  _atom_site_fract_y
  _atom_site_fract_z
  _atom_site_occupancy
  Sm  Sm1       1.0  0.6553944639145685  0.4363417093778922  0.1347453505695525  1.0000
  Sm  Sm2       1.0  0.3446052146603904  0.5636600881488079  0.8652561595459999  1.0000
  H   H1        1.0  0.9225096921148718  0.6037939190886875  0.8663793704373929  1.0000
  H   H2        1.0  0.07749068926310092  0.3962002713368237  0.1336247832030324  1.0000
  H   H3        1.0  0.7631357190928514  0.5891872620421594  0.8293346017081403  1.0000
  H   H4        1.0  0.23686725538525616  0.41080586188649454  0.1706674160825514  1.0000
  H   H5        1.0  0.22102807753660866  0.6438301510151802  0.47035273126734023  1.0000
  H   H6        1.0  0.7789746730452336  0.3561651371673661  0.5296512612248849  1.0000
  H   H7        1.0  0.0725741361543015  0.3160325187715856  0.38995197747674126  1.0000
  H   H8        1.0  0.9274294514771956  0.6839671233739965  0.6100501576798931  1.0000
  H   H9        1.0  0.7021808772057554  0.7926251802530332  0.9689732722273303  1.0000
  H   H10       1.0  0.2978183378593968  0.20738206625668454  0.03102179966556658  1.0000
  H   H11       1.0  0.20376713887728218  0.993942493039178  0.026008942556998677  1.0000
  H   H12       1.0  0.7962318830854755  0.0060669299958889  0.9739844640449533  1.0000
  H   H13       1.0  0.16092925192035074  0.13086033354479554  0.2538893383083689  1.0000
  H   H14       1.0  0.8390719665072766  0.8691382108437581  0.746112957996459  1.0000
  H   H15       1.0  0.6938894584859625  0.05447790367831121  0.5805532543289758  1.0000
  H   H16       1.0  0.3061119684410015  0.9455184703206218  0.4194488872705547  1.0000
  H   H17       1.0  0.6832124527848364  0.8189855705145278  0.43980367827339234  1.0000
  H   H18       1.0  0.3167945495995212  0.1810173529615042  0.5601962836941538  1.0000
  H   H19       1.0  0.6218173686801619  0.9328546671126364  0.2892552068234338  1.0000
  H   H20       1.0  0.3781899733978378  0.0671450115164802  0.7107413380927454  1.0000
  H   H21       1.0  0.9038740548596708  0.9794086980988652  0.17555814496506641  1.0000
  H   H22       1.0  0.09613347262224889  0.0205888009370483  0.8244409752401793  1.0000
  H   H23       1.0  0.9714426232576017  0.8257646778410858  0.3055500548900767  1.0000
  H   H24       1.0  0.02856614287570381  0.17423282824290004  0.6944487185652122  1.0000
  H   H25       1.0  0.5670096576105194  0.6655677386310048  0.34895585565629966  1.0000
  H   H26       1.0  0.43299487516954116  0.33443517381673626  0.6510438898130247  1.0000
  H   H27       1.0  0.03438446048401294  0.7596875023484981  0.08813685448016881  1.0000
  H   H28       1.0  0.9656179269884507  0.2403121480883215  0.9118610774358232  1.0000
  C   C1        1.0  0.33653715307601567  0.45684551713454613  0.3329744027374986  1.0000
  C   C2        1.0  0.6634661641480692  0.5431573974687113  0.6670229594874256  1.0000
  C   C3        1.0  0.16341861995226734  0.4787291034339773  0.42033370563001426  1.0000
  C   C4        1.0  0.8365813598239812  0.5212694339064966  0.5796689374247704  1.0000
  C   C5        1.0  0.12358971067707357  0.5816820745094378  0.4835303298055251  1.0000
  C   C6        1.0  0.8764125456010845  0.41831865038467714  0.5164708644565296  1.0000
  C   C7        1.0  0.03925528229726889  0.3972666259921738  0.4376384331453735  1.0000
  C   C8        1.0  0.9607447901809395  0.6027308215517024  0.5623654975539408  1.0000
  C   C9        1.0  0.393520489404267  0.7569805735582166  0.9856694998090703  1.0000
  C   C10       1.0  0.6064763333616057  0.2430255659908838  0.014328463226384348  1.0000
  C   C11       1.0  0.44727481671387176  0.8802608777637674  0.9975161059761889  1.0000
  C   C12       1.0  0.5527243133477883  0.11974746161041588  0.0024767682740574116  1.0000
  C   C13       1.0  0.6143607939078494  0.8838350906785308  0.9824181124851776  1.0000
  C   C14       1.0  0.3856370898039501  0.11617323857971233  0.017576018513139526  1.0000
  C   C15       1.0  0.3331493820167283  0.9967307449481241  0.015335655318367072  1.0000
  C   C16       1.0  0.6668472861390953  0.0032775864656287013  0.9846560924355429  1.0000
  C   C17       1.0  0.831734595193133  0.2176251338804391  0.3109852019995786  1.0000
  C   C18       1.0  0.16826415363020428  0.7823733994798232  0.6890168778070347  1.0000
  C   C19       1.0  0.9187894444111322  0.10384350666072353  0.4077000625658869  1.0000
  C   C20       1.0  0.08121043496468162  0.896156117408495  0.5923022028424826  1.0000
  C   C21       1.0  0.09123514442421769  0.07299309277021139  0.3617807740601293  1.0000
  C   C22       1.0  0.9087650361528927  0.9270032711127885  0.6382226242874792  1.0000
  C   C23       1.0  0.8278670264606587  0.029885614949329002  0.546607269906275  1.0000
  C   C24       1.0  0.17213399886458092  0.9701151059645741  0.45339336110761497  1.0000
  C   C25       1.0  0.8000490166324356  0.6841966189345925  0.2046916758092294  1.0000
  C   C26       1.0  0.19995459409447847  0.3158030324145785  0.7953077293530483  1.0000
  C   C27       1.0  0.7044416958475352  0.8385571945467801  0.32974240261392423  1.0000
  C   C28       1.0  0.2955656154365797  0.16144247181089363  0.6702577822947333  1.0000
  C   C29       1.0  0.8886291032329369  0.8638499803047638  0.24008204911207548  1.0000
  C   C30       1.0  0.1113770851971694  0.13614859841181473  0.7599170401967114  1.0000
  N   N1        1.0  0.6773396824578982  0.7107885595463871  0.3119830752137035  1.0000
  N   N2        1.0  0.32266792232904606  0.28920784355720025  0.6880191526323003  1.0000
  N   N3        1.0  0.9210461048136692  0.7761767722210849  0.15474831343207995  1.0000
  N   N4        1.0  0.07895646806271372  0.22382069862252507  0.8452521937729713  1.0000
  O   O1        1.0  0.36574422948256574  0.3696956221335981  0.2672149511325088  1.0000
  O   O2        1.0  0.6342577332927634  0.6303083660145958  0.732784200192192  1.0000
  O   O3        1.0  0.8245195599913373  0.5469976068038349  0.8995703770112728  1.0000
  O   O4        1.0  0.17548352258567954  0.4529944334639352  0.10043110842771338  1.0000
  O   O5        1.0  0.4524260997800695  0.5252738003298989  0.32034445542340945  1.0000
  O   O6        1.0  0.547574817446268  0.4747280042448806  0.6796567079421862  1.0000
  O   O7        1.0  0.4766566049830985  0.6332569798292695  0.012073630858466917  1.0000
  O   O8        1.0  0.5233439106415148  0.36674917166047283  0.9879260219214885  1.0000
  O   O9        1.0  0.2694270115139545  0.7783176455437797  0.9416609308161413  1.0000
  O   O10       1.0  0.730569144209241  0.22168195431334692  0.05834328484020547  1.0000
  O   O11       1.0  0.6737623619932335  0.23719367873772518  0.3527593946239164  1.0000
  O   O12       1.0  0.3262342107286287  0.7628015803401595  0.6472445116218353  1.0000
  O   O13       1.0  0.9167189585480597  0.2946053483417259  0.18768303561616045  1.0000
  O   O14       1.0  0.08327688827537122  0.7053975086337658  0.8123209570990682  1.0000
  O   O15       1.0  0.8024538015679427  0.5902822265399763  0.15611019781113805  1.0000
  O   O16       1.0  0.1975464175015205  0.4097141526823337  0.8438886505458639  1.0000
