data_image0
_chemical_formula_structural       Cu2H22C18I2N12
_chemical_formula_sum              "Cu2 H22 C18 I2 N12"
_cell_length_a       6.105523199010941
_cell_length_b       7.734372602014728
_cell_length_c       14.05662336600229
_cell_angle_alpha    89.99993924142623
_cell_angle_beta     89.99997469181756
_cell_angle_gamma    90.00021527279759

_space_group_name_H-M_alt    "P 1"
_space_group_IT_number       1

loop_
  _space_group_symop_operation_xyz
  'x, y, z'

loop_
  _atom_site_type_symbol
  _atom_site_label
  _atom_site_symmetry_multiplicity
  _atom_site_fract_x
  _atom_site_fract_y
  _atom_site_fract_z
  _atom_site_occupancy
  Cu  Cu1       1.0  0.1971980973598164  0.6197941019065709  0.4999996799638993  1.0000
  Cu  Cu2       1.0  0.8028012638598981  0.11979112657226662  5.944117588999999e-07  1.0000
  H   H1        1.0  0.019495203634114902  0.7488408119716611  0.8506037760001632  1.0000
  H   H2        1.0  0.9805108489951097  0.24885100392244647  0.6493933382726808  1.0000
  H   H3        1.0  0.9805126285758093  0.24885000003253308  0.3506067882853543  1.0000
  H   H4        1.0  0.019488984791301803  0.7488414902909283  0.1493948338985405  1.0000
  H   H5        1.0  0.5059231584795398  0.5190816295874966  0.6774057256566975  1.0000
  H   H6        1.0  0.4940736111982673  0.019090043825173104  0.8225872537079724  1.0000
  H   H7        1.0  0.49407391721832283  0.019089375017358596  0.1774138173951201  1.0000
  H   H8        1.0  0.5059184131991401  0.5190845586751179  0.3225929181890947  1.0000
  H   H9        1.0  0.39612269214033086  0.6047404647282377  0.8635948081939019  1.0000
  H   H10       1.0  0.6038843124353406  0.10474827191588791  0.6363988327916204  1.0000
  H   H11       1.0  0.6038844418304806  0.10474853581207809  0.3636014546334749  1.0000
  H   H12       1.0  0.39611484775990397  0.60474116817867  0.1364045197554944  1.0000
  H   H13       1.0  0.8978541545031434  0.7797122718410563  0.6769204292603135  1.0000
  H   H14       1.0  0.1021454936258195  0.2797221086389925  0.8230788012953739  1.0000
  H   H15       1.0  0.10214580010947572  0.27972014785325433  0.1769214871596176  1.0000
  H   H16       1.0  0.8978477708974496  0.7797139070564753  0.3230794056736599  1.0000
  H   H17       1.0  0.46603905101864734  0.941823206464285  0.4999995588572119  1.0000
  H   H18       1.0  0.533967920154943  0.44181588060518345  0.9999995774804802  1.0000
  H   H19       1.0  0.7009661001832654  0.42903988069178206  0.4999989724190712  1.0000
  H   H20       1.0  0.2990281815764675  0.9290324890338296  4.1080994609999984e-07  1.0000
  H   H21       1.0  0.9230072707074796  0.9464008552000608  0.5000002221547035  1.0000
  H   H22       1.0  0.07699808439066662  0.44639217409839915  0.9999996229313267  1.0000
  C   C1        1.0  0.3637766013004011  0.586316322183869  0.7048582595866151  1.0000
  C   C2        1.0  0.6362221262727559  0.08632521110313011  0.7951368149247386  1.0000
  C   C3        1.0  0.6362240441131563  0.08632448918830699  0.2048641879957742  1.0000
  C   C4        1.0  0.3637702442044244  0.5863205973116266  0.2951410856927268  1.0000
  C   C5        1.0  0.31091140652583965  0.6272089348507282  0.7971670506270884  1.0000
  C   C6        1.0  0.689092429268591  0.12721428036342533  0.7028301343423565  1.0000
  C   C7        1.0  0.6890942595453282  0.12721467278946363  0.2971701225790254  1.0000
  C   C8        1.0  0.31091005057287907  0.6272095097889618  0.2028337045257942  1.0000
  C   C9        1.0  0.048637671015583785  0.7196919002901652  0.7006602320932487  1.0000
  C   C10       1.0  0.9513600535517669  0.2196991298369042  0.7993390333484669  1.0000
  C   C11       1.0  0.9513603375174142  0.2196984160500008  0.2006618275301406  1.0000
  C   C12       1.0  0.0486329477888461  0.7196922885084973  0.2993398115974131  1.0000
  C   C13       1.0  0.5831311393265112  0.8359518321191716  0.49999957763761665  1.0000
  C   C14       1.0  0.41686877646458254  0.33594674484636755  0.9999996202347815  1.0000
  C   C15       1.0  0.6996692480106576  0.5693589525762661  0.49999964318206475  1.0000
  C   C16       1.0  0.30033431239700553  0.0693548126188901  0.9999997096389777  1.0000
  C   C17       1.0  0.8090888482157083  0.838265218405283  0.4999995538336535  1.0000
  C   C18       1.0  0.19091107858847783  0.33826075393436383  0.9999996426939717  1.0000
  I   I1        1.0  0.212304836889146  0.24464152314519794  0.49999978744060775  1.0000
  I   I2        1.0  0.7876946442775009  0.7446397850796487  0.9999987520938944  1.0000
  N   N1        1.0  0.19907507661881851  0.6446725171956089  0.6454065705415103  1.0000
  N   N2        1.0  0.8009206530050648  0.14468177954516653  0.8545891814606179  1.0000
  N   N3        1.0  0.8009226272455479  0.14468117265604968  0.14541104241248348  1.0000
  N   N4        1.0  0.19907193884050403  0.6446740914458786  0.35459206313359454  1.0000
  N   N5        1.0  0.11252893939261813  0.7119769944932771  0.7927200323654802  1.0000
  N   N6        1.0  0.887470386314071  0.2119842126717941  0.7072778147433355  1.0000
  N   N7        1.0  0.8874722208067496  0.21198332077264584  0.2927230637002225  1.0000
  N   N8        1.0  0.11252266563783311  0.7119775608217865  0.20727929131963657  1.0000
  N   N9        1.0  0.5161323822119712  0.6662547104593628  0.4999989224037265  1.0000
  N   N10       1.0  0.483865087965306  0.16624852895226638  0.9999996626923106  1.0000
  N   N11       1.0  0.8806040204338076  0.6691824437462657  0.49999959564972574  1.0000
  N   N12       1.0  0.11939510153462861  0.16917388839093658  0.9999996991535767  1.0000
