data_image0
_chemical_formula_structural       Al4H24C44O24
_chemical_formula_sum              "Al4 H24 C44 O24"
_cell_length_a       6.671959439837145
_cell_length_b       17.988041558391295
_cell_length_c       19.97021280377937
_cell_angle_alpha    95.70234187480406
_cell_angle_beta     92.51132969894772
_cell_angle_gamma    93.38752558546489

_space_group_name_H-M_alt    "P 1"
_space_group_IT_number       1

loop_
  _space_group_symop_operation_xyz
  'x, y, z'

loop_
  _atom_site_type_symbol
  _atom_site_label
  _atom_site_symmetry_multiplicity
  _atom_site_fract_x
  _atom_site_fract_y
  _atom_site_fract_z
  _atom_site_occupancy
  Al  Al1       1.0  0.7426165993654905  0.7492627090317044  0.249915193628425  1.0000
  Al  Al2       1.0  0.2573906139337153  0.2507433103548919  0.7500792061819015  1.0000
  Al  Al3       1.0  0.24286672668976186  0.7501092188939041  0.25030705732846315  1.0000
  Al  Al4       1.0  0.7571446404642828  0.24988985016612025  0.7496893915527211  1.0000
  H   H1        1.0  0.7746162473109806  0.4454580247746521  0.8824448974088882  1.0000
  H   H2        1.0  0.2253755756873375  0.5545322791785099  0.11757089047136304  1.0000
  H   H3        1.0  0.7340591666393479  0.05420277651392524  0.6159303507451741  1.0000
  H   H4        1.0  0.26595021171979744  0.9458166957439291  0.38405958552954905  1.0000
  H   H5        1.0  0.33173146617313176  0.35763291381220347  0.9430207331606724  1.0000
  H   H6        1.0  0.6682644735956628  0.6423538629112001  0.05698755318375961  1.0000
  H   H7        1.0  0.1766175067738018  0.14427497422953914  0.5590835576981378  1.0000
  H   H8        1.0  0.8233900636670198  0.8557389618677008  0.44090684298032573  1.0000
  H   H9        1.0  0.532380609615565  0.6592438150357155  0.9456230033752534  1.0000
  H   H10       1.0  0.39284663850963136  0.5999613579323722  0.9969040694515316  1.0000
  H   H11       1.0  0.3533030901472499  0.5870694340478623  0.9071541595189887  1.0000
  H   H12       1.0  0.607146081961332  0.40001973653848216  0.0031086871232517  1.0000
  H   H13       1.0  0.4676041060160259  0.3407309991451015  0.05438409602006541  1.0000
  H   H14       1.0  0.646671163534272  0.4129040892459984  0.09285782884040832  1.0000
  H   H15       1.0  0.10360586402873653  0.8966052625703826  0.4997244841343472  1.0000
  H   H16       1.0  0.9618024663024016  0.8378137538738315  0.5508199829242458  1.0000
  H   H17       1.0  0.1452656692475216  0.9083429338636009  0.5894153727454636  1.0000
  H   H18       1.0  0.0381947120642678  0.16220224589195448  0.44917028540148624  1.0000
  H   H19       1.0  0.8964060726192641  0.10340691060592629  0.5002644604166305  1.0000
  H   H20       1.0  0.8547449424985345  0.091672950244579  0.41057205475559044  1.0000
  H   H21       1.0  0.4719816867641598  0.6516152183670488  0.22980730994126478  1.0000
  H   H22       1.0  0.5280392959076181  0.3483785403200131  0.7702264830143832  1.0000
  H   H23       1.0  0.008763449457170199  0.8491334044090593  0.2593741187925644  1.0000
  H   H24       1.0  0.991264619765765  0.1508677759566055  0.7406864531157497  1.0000
  C   C1        1.0  0.002024715798235414  0.47763589343495744  0.5214932683326338  1.0000
  C   C2        1.0  0.9979399528568677  0.5223996743566702  0.478533348389938  1.0000
  C   C3        1.0  0.5009652028558804  0.02225924615185448  0.9783983468085395  1.0000
  C   C4        1.0  0.49905810394133004  0.9776994477975692  0.02156746286109981  1.0000
  C   C5        1.0  0.4882657493486988  0.8355549678667059  0.16406612444337304  1.0000
  C   C6        1.0  0.511728595598754  0.16443768104485912  0.835924547276392  1.0000
  C   C7        1.0  0.9979911997003865  0.6645999053405447  0.33610870137413684  1.0000
  C   C8        1.0  0.001999328874688908  0.3353999907419408  0.6638930075846617  1.0000
  C   C9        1.0  0.5265966357191019  0.8420824741188115  0.34594852303560236  1.0000
  C   C10       1.0  0.4734033561552238  0.15793023201139533  0.6540417738447959  1.0000
  C   C11       1.0  0.9603431913820089  0.6569244221320788  0.15403558705995124  1.0000
  C   C12       1.0  0.039663693353226406  0.34307289257075985  0.8459658288667312  1.0000
  C   C13       1.0  0.0060106749782065086  0.38529847453189353  0.611633073404427  1.0000
  C   C14       1.0  0.9939689880101169  0.6147168485695789  0.38837909794045805  1.0000
  C   C15       1.0  0.5064430227787184  0.11440520001522715  0.8880771650940675  1.0000
  C   C16       1.0  0.49354304319606257  0.8855757642371671  0.111909340779512  1.0000
  C   C17       1.0  0.051250653899082003  0.397130105000116  0.9077075522289706  1.0000
  C   C18       1.0  0.9487380787336548  0.6028629644803375  0.09229813967778713  1.0000
  C   C19       1.0  0.45767223831268916  0.10368164162280641  0.5924543713402883  1.0000
  C   C20       1.0  0.5423307937104623  0.8963325642909011  0.40753395738867243  1.0000
  C   C21       1.0  0.004828668785108918  0.4292308511681569  0.5684269942947607  1.0000
  C   C22       1.0  0.9951335780230579  0.5707925827945178  0.43159050190690346  1.0000
  C   C23       1.0  0.5036610217573383  0.07053123548814004  0.9313425115364143  1.0000
  C   C24       1.0  0.4963633842977088  0.9294441996769577  0.0686288915522297  1.0000
  C   C25       1.0  0.7671734333396785  0.5526396903098245  0.9884590505917431  1.0000
  C   C26       1.0  0.23281309177842496  0.44733533554332894  0.011560148177927899  1.0000
  C   C27       1.0  0.7312815409262683  0.9461474585515787  0.5101099948086728  1.0000
  C   C28       1.0  0.2687262001568484  0.053873295138402  0.48987137016870014  1.0000
  C   C29       1.0  0.7817724677621171  0.6025824881317376  0.0459704008618758  1.0000
  C   C30       1.0  0.21820846816968498  0.3974019228388883  0.9540437175750894  1.0000
  C   C31       1.0  0.711806663770922  0.8960574482035284  0.45273332680325507  1.0000
  C   C32       1.0  0.2881948985610093  0.10395773933705502  0.5472539788092874  1.0000
  C   C33       1.0  0.0979490698156056  0.5532757712904514  0.081547120924661  1.0000
  C   C34       1.0  0.9020364365807723  0.44670892657288175  0.9184690713683566  1.0000
  C   C35       1.0  0.39542818479682057  0.9466787955259908  0.41921145300261753  1.0000
  C   C36       1.0  0.6045886130507228  0.05333957138045521  0.5807775725114298  1.0000
  C   C37       1.0  0.08303048093148388  0.5004514452720487  0.024052553109015704  1.0000
  C   C38       1.0  0.9169667555733837  0.4995266357768813  0.9759678021049112  1.0000
  C   C39       1.0  0.41560111769082647  0.9998067388395173  0.47650886611937443  1.0000
  C   C40       1.0  0.5844004434846822  0.00020800047363420988  0.5234794445191541  1.0000
  C   C41       1.0  0.46520993089565366  0.6023665378264057  0.9487097503209088  1.0000
  C   C42       1.0  0.5347706988559366  0.3976119120659121  0.0513058575427721  1.0000
  C   C43       1.0  0.03203119401664621  0.894302415131115  0.5480694027119953  1.0000
  C   C44       1.0  0.9679870461008945  0.10571620634900823  0.4519166239079838  1.0000
  O   O1        1.0  0.3550617965971341  0.8289593692342693  0.31475082567369134  1.0000
  O   O2        1.0  0.6449440311755907  0.17105059234813783  0.6852390381956469  1.0000
  O   O3        1.0  0.796914618641324  0.6850069745118291  0.17147958108407832  1.0000
  O   O4        1.0  0.20309401223127574  0.31499565938813134  0.8285193565737858  1.0000
  O   O5        1.0  0.6571256788319744  0.8235887481696481  0.1918767237797852  1.0000
  O   O6        1.0  0.3428747881231544  0.1764052701218333  0.8081155421398664  1.0000
  O   O7        1.0  0.17062914952454383  0.6918465672967502  0.32319077391841944  1.0000
  O   O8        1.0  0.8293656834767518  0.30815134890130474  0.6768074650478085  1.0000
  O   O9        1.0  0.6881426102093114  0.8129193684154574  0.3281491528265761  1.0000
  O   O10       1.0  0.31185590503528  0.18709162997704  0.6718461510933055  1.0000
  O   O11       1.0  0.1310997821477997  0.6708016279369746  0.1856016015726709  1.0000
  O   O12       1.0  0.8689132635805448  0.32920030221953317  0.8143953803045465  1.0000
  O   O13       1.0  0.8293529805270622  0.6755288096607616  0.3076497645796152  1.0000
  O   O14       1.0  0.17064679321282478  0.3244764679266581  0.6923490626290559  1.0000
  O   O15       1.0  0.31501642255877016  0.8092488204319893  0.17747683289216812  1.0000
  O   O16       1.0  0.6849808606146937  0.19074141699840652  0.8225168900864336  1.0000
  O   O17       1.0  0.4845784671151705  0.704179994873613  0.24648268999025202  1.0000
  O   O18       1.0  0.5154273788274112  0.29582514468881277  0.7535192360974536  1.0000
  O   O19       1.0  0.9999763470879373  0.7949791138453577  0.2529061952256768  1.0000
  O   O20       1.0  3.5400003263004816e-05  0.20502484281504962  0.747094296638089  1.0000
  O   O21       1.0  0.6142632363552423  0.5484913797658565  0.9405827700729861  1.0000
  O   O22       1.0  0.38571604957990496  0.45148938213517203  0.0594338323524539  1.0000
  O   O23       1.0  0.8864795596962125  0.9494086911871593  0.5570729292293992  1.0000
  O   O24       1.0  0.11353884181225739  0.05061316206626293  0.4429121018973633  1.0000
