data_image0
_chemical_formula_structural       Zn4H20C34N10O10
_chemical_formula_sum              "Zn4 H20 C34 N10 O10"
_cell_length_a       9.834214933235739
_cell_length_b       9.845167010437004
_cell_length_c       10.851330835722681
_cell_angle_alpha    110.13344868583856
_cell_angle_beta     116.48125312596365
_cell_angle_gamma    92.93672052917788

_space_group_name_H-M_alt    "P 1"
_space_group_IT_number       1

loop_
  _space_group_symop_operation_xyz
  'x, y, z'

loop_
  _atom_site_type_symbol
  _atom_site_label
  _atom_site_symmetry_multiplicity
  _atom_site_fract_x
  _atom_site_fract_y
  _atom_site_fract_z
  _atom_site_occupancy
  Zn  Zn1       1.0  0.5467383210655755  0.8010649845479564  0.5766007016281662  1.0000
  Zn  Zn2       1.0  0.4532618554737056  0.19893466847945257  0.4234011483267253  1.0000
  Zn  Zn3       1.0  0.45746860562781694  0.6874208793693555  0.21951148204492194  1.0000
  Zn  Zn4       1.0  0.5425318588404907  0.3125798848424638  0.780489906239069  1.0000
  H   H1        1.0  0.1857467666589656  0.49240658985444696  0.8805703826149412  1.0000
  H   H2        1.0  0.8142542439976455  0.5075919351893319  0.11943053023767898  1.0000
  H   H3        1.0  0.9611247766589913  0.27612088793696904  0.7641895387491645  1.0000
  H   H4        1.0  0.03887964742061452  0.7238776204007847  0.2358145796617562  1.0000
  H   H5        1.0  0.11049790078938321  0.3007223049555279  0.21354218970915176  1.0000
  H   H6        1.0  0.889503409617234  0.6992773396955699  0.7864601119420273  1.0000
  H   H7        1.0  0.33175542178723566  0.5098548764984869  0.31128188816986585  1.0000
  H   H8        1.0  0.6682447488415522  0.49014477231746423  0.688719036550296  1.0000
  H   H9        1.0  0.5046417497573688  0.725060440982091  0.7832345945710345  1.0000
  H   H10       1.0  0.4953553131089308  0.27494034835866193  0.21676543862411532  1.0000
  H   H11       1.0  0.39891027489856157  0.6145153166179825  0.9009959340810528  1.0000
  H   H12       1.0  0.6010882215850799  0.38548658395378516  0.09900593960893632  1.0000
  H   H13       1.0  0.6810088579021283  0.9612063968484535  0.32626189489965174  1.0000
  H   H14       1.0  0.3189918885847192  0.038795474336318095  0.6737381064787016  1.0000
  H   H15       1.0  0.8052275306030553  0.08414590038162828  0.22323958704510008  1.0000
  H   H16       1.0  0.19477232845476064  0.9158526204040879  0.7767580984070435  1.0000
  H   H17       1.0  0.975241733619214  0.7331881795059659  0.46202627915158717  1.0000
  H   H18       1.0  0.02475531742610572  0.2668126014118712  0.5379719035740964  1.0000
  H   H19       1.0  0.37500764433646344  0.875501781464429  0.37378195881344567  1.0000
  H   H20       1.0  0.6249931139713638  0.12450009814325823  0.6262198930343743  1.0000
  C   C1        1.0  0.7164489130050314  0.6070911129405161  0.44014034176005623  1.0000
  C   C2        1.0  0.2835520621886616  0.39290738683450854  0.5598550196841714  1.0000
  C   C3        1.0  0.8594623415782011  0.5458064214927633  0.4701441635488451  1.0000
  C   C4        1.0  0.1405392567574495  0.4541943343427448  0.5298576764314262  1.0000
  C   C5        1.0  0.9839060488981561  0.6296183345772094  0.4776405092536677  1.0000
  C   C6        1.0  0.016094703499185015  0.3703835408190201  0.5223604173594226  1.0000
  C   C7        1.0  0.8754372130136191  0.41375559023572345  0.4925641463759193  1.0000
  C   C8        1.0  0.12456522534985474  0.586244041827605  0.5074376817368105  1.0000
  C   C9        1.0  0.7470379631479035  0.31253221560949385  0.48172831253140913  1.0000
  C   C10       1.0  0.25296107361355524  0.6874674415827757  0.5182721604924723  1.0000
  C   C11       1.0  0.1658215528668094  0.4463494718353758  0.9508436094068885  1.0000
  C   C12       1.0  0.8341797516293212  0.553650168604264  0.049157767009553786  1.0000
  C   C13       1.0  0.03992649623862121  0.32588552657867353  0.8861695557535402  1.0000
  C   C14       1.0  0.9600759421248526  0.674114105484655  0.11383227235918258  1.0000
  C   C15       1.0  0.015017042057131396  0.2719599351995541  0.9806473319361333  1.0000
  C   C16       1.0  0.984983657028508  0.7280374618139832  0.019350341648461625  1.0000
  C   C17       1.0  0.1224860526380027  0.3404218270939339  0.13612068318629864  1.0000
  C   C18       1.0  0.8775135184907797  0.6595755825073726  0.8638774639367385  1.0000
  C   C19       1.0  0.24648257313118907  0.4574846721222059  0.19102647259671818  1.0000
  C   C20       1.0  0.7535167456488098  0.5425160920430088  0.8089726135215329  1.0000
  C   C21       1.0  0.8854727600313623  0.1492440225214438  0.9277060192521348  1.0000
  C   C22       1.0  0.1145273987764526  0.8507556178715916  0.07229305499856753  1.0000
  C   C23       1.0  0.7358771330979011  0.9921770076039919  0.9337156486631744  1.0000
  C   C24       1.0  0.26412303162040734  0.007822637000508299  0.06628435082225083  1.0000
  C   C25       1.0  0.6652972839841098  0.9167699897052087  0.9934321239194901  1.0000
  C   C26       1.0  0.33470287482370514  0.0832296506878265  0.006566950331212202  1.0000
  C   C27       1.0  0.5488998260812538  0.7828296584579989  0.9039617294446387  1.0000
  C   C28       1.0  0.45109836474189546  0.2171711182949849  0.09603783021205468  1.0000
  C   C29       1.0  0.48728400414299267  0.7199572816573367  0.9700106506644134  1.0000
  C   C30       1.0  0.5127144805196694  0.28004461049151536  0.029989372556109124  1.0000
  C   C31       1.0  0.6468877961345215  0.9116490881521458  0.20682590196339135  1.0000
  C   C32       1.0  0.35311039468862765  0.088351688600838  0.7931736576933092  1.0000
  C   C33       1.0  0.7145875775661922  0.980575776454522  0.1488729063750469  1.0000
  C   C34       1.0  0.2854128750811427  0.0194249793343815  0.8511266314394847  1.0000
  N   N1        1.0  0.26823861942473576  0.5126082103847197  0.10100081864788275  1.0000
  N   N2        1.0  0.7317615452935726  0.48739143421977377  0.8989991808375494  1.0000
  N   N3        1.0  0.7836854520787214  0.060158633314394215  0.7812308031155769  1.0000
  N   N4        1.0  0.21631358468273726  0.939841023877875  0.2187696699083046  1.0000
  N   N5        1.0  0.6884717727105922  0.958853914339386  0.7848454140580543  1.0000
  N   N6        1.0  0.3115295258750521  0.0411457218887961  0.21515503712365813  1.0000
  N   N7        1.0  0.8587379132046564  0.11118081724362842  0.025204447307736064  1.0000
  N   N8        1.0  0.14126141148582866  0.8888199511330442  0.9747955640452376  1.0000
  N   N9        1.0  0.5341249149258402  0.7824163166666835  0.11866321184182044  1.0000
  N   N10       1.0  0.465873275897309  0.2175844600863073  0.8813363478148801  1.0000
  O   O1        1.0  0.7015295492590141  0.6796956396452742  0.5527644333606219  1.0000
  O   O2        1.0  0.29846606816896337  0.3203040300415481  0.4472319088702222  1.0000
  O   O3        1.0  0.6308000770111235  0.5899345500311525  0.3037198493136728  1.0000
  O   O4        1.0  0.3692028602567562  0.41006280917246585  0.69627410148982  1.0000
  O   O5        1.0  0.7718936028644379  0.19993100891261412  0.508715326336919  1.0000
  O   O6        1.0  0.22810686160387664  0.8000697552992051  0.491286061947072  1.0000
  O   O7        1.0  0.6135304351779283  0.34968713578842886  0.4418761624789055  1.0000
  O   O8        1.0  0.38646889542304314  0.6503136367997017  0.5581247741088049  1.0000
  O   O9        1.0  0.4711249347654346  0.839554410416433  0.39645204303369047  1.0000
  O   O10       1.0  0.5288749479343267  0.16044412721511486  0.6035493433573791  1.0000
