data_image0
_chemical_formula_structural       Pr2Cu3P6H24C30N6O18
_chemical_formula_sum              "Pr2 Cu3 P6 H24 C30 N6 O18"
_cell_length_a       10.457886729492262
_cell_length_b       11.454831563124339
_cell_length_c       11.454251176107773
_cell_angle_alpha    111.16400013892314
_cell_angle_beta     107.71445186328076
_cell_angle_gamma    107.72806900012904

_space_group_name_H-M_alt    "P 1"
_space_group_IT_number       1

loop_
  _space_group_symop_operation_xyz
  'x, y, z'

loop_
  _atom_site_type_symbol
  _atom_site_label
  _atom_site_symmetry_multiplicity
  _atom_site_fract_x
  _atom_site_fract_y
  _atom_site_fract_z
  _atom_site_occupancy
  Pr  Pr1       1.0  0.9999982250881843  0.9999993649201144  0.9999976333663912  1.0000
  Pr  Pr2       1.0  0.5000009901721398  8.818744206000233e-07  0.9999992977874468  1.0000
  Cu  Cu1       1.0  0.9999981926460109  2.571277165000208e-07  0.4999984312500344  1.0000
  Cu  Cu2       1.0  7.21359548044787e-07  0.5000029527840083  0.9999994399415042  1.0000
  Cu  Cu3       1.0  0.49999675611525873  0.4999959783344749  0.4999959524954462  1.0000
  P   P1        1.0  0.17356536928161856  0.0167608430325643  0.7634008071410391  1.0000
  P   P2        1.0  0.156823625517447  0.7466208077534802  0.9832218979161595  1.0000
  P   P3        1.0  0.41019587322411877  0.23653052407466651  0.25338402482977074  1.0000
  P   P4        1.0  0.8264323244023188  0.9832374635961327  0.23659542343886378  1.0000
  P   P5        1.0  0.843177134356587  0.25337961569215384  0.016775945011936202  1.0000
  P   P6        1.0  0.5898001824551002  0.7634624910255638  0.7466115842403767  1.0000
  H   H1        1.0  0.33521836896176893  0.3132173432353725  0.018706527291008995  1.0000
  H   H2        1.0  0.022045948975723265  0.7053922810280326  0.6868188714543352  1.0000
  H   H3        1.0  0.3165030428127764  0.9812711989714913  0.2946487932133693  1.0000
  H   H4        1.0  0.6647832855276903  0.6867788472308547  0.9812900300596537  1.0000
  H   H5        1.0  0.9779594080177461  0.29461131766653637  0.31318051636666416  1.0000
  H   H6        1.0  0.6834944978380834  0.0187207579300761  0.7053494616218288  1.0000
  H   H7        1.0  0.37162985542048693  0.5450563148117169  0.02537660367108437  1.0000
  H   H8        1.0  0.8265904571763372  0.4802000954386685  0.45498486149958234  1.0000
  H   H9        1.0  0.34630687940227034  0.9746845335636465  0.519854846216269  1.0000
  H   H10       1.0  0.6283713920658158  0.45494305027107634  0.9746262288932284  1.0000
  H   H11       1.0  0.17341136334047752  0.5198024446133401  0.5450149133721139  1.0000
  H   H12       1.0  0.6536923079161597  0.0253127147721557  0.48014752464623467  1.0000
  H   H13       1.0  0.25483394722778735  0.5423979100570334  0.7994246791240229  1.0000
  H   H14       1.0  0.7123658277900163  0.2569049679595281  0.4576357678879504  1.0000
  H   H15       1.0  0.45549108337903027  0.2007065150483101  0.7431389942865891  1.0000
  H   H16       1.0  0.7451603387120045  0.4576035707899635  0.20058136376550104  1.0000
  H   H17       1.0  0.287628970062606  0.7430975713909119  0.5423638151235651  1.0000
  H   H18       1.0  0.5445056632346521  0.7992939079997824  0.256858614202919  1.0000
  H   H19       1.0  0.08355583915467697  0.30395829494701593  0.5726621557253182  1.0000
  H   H20       1.0  0.7794217511208643  0.26860446925786624  0.6960883932812648  1.0000
  H   H21       1.0  0.5109491812655662  0.4274099751266505  0.7313617714475598  1.0000
  H   H22       1.0  0.9164360125775063  0.696046360541601  0.4273417456793851  1.0000
  H   H23       1.0  0.22057257427948687  0.7313991282904907  0.30391231549975833  1.0000
  H   H24       1.0  0.48904343201810724  0.5725862145688227  0.26862967186199443  1.0000
  C   C1        1.0  0.196262541200646  0.19162975592583817  0.7927517779101975  1.0000
  C   C2        1.0  0.004605360582559123  0.6010274347806401  0.8084068488662695  1.0000
  C   C3        1.0  0.4034686565231311  0.2072211620633979  0.3989306323817771  1.0000
  C   C4        1.0  0.8037346800310204  0.808369608900783  0.2072455784391992  1.0000
  C   C5        1.0  0.9953959328614347  0.39897404693283534  0.19159327047771074  1.0000
  C   C6        1.0  0.5965263996309957  0.7927718528962231  0.6010664469301545  1.0000
  C   C7        1.0  0.2841346865654302  0.3173709580389854  0.9229132652337809  1.0000
  C   C8        1.0  0.9667854248967416  0.605440169886542  0.6826688921367249  1.0000
  C   C9        1.0  0.3612141061365293  0.07709033935923061  0.39458119337161424  1.0000
  C   C10       1.0  0.7158644920901551  0.6826262903910559  0.07708561111117261  1.0000
  C   C11       1.0  0.033217397310878034  0.39456237028252167  0.3173302861225693  1.0000
  C   C12       1.0  0.6387839637528643  0.9229026758573085  0.6054175906206892  1.0000
  C   C13       1.0  0.3040732570447062  0.44471947631116376  0.9260548073691621  1.0000
  C   C14       1.0  0.8593854470417241  0.48122507652328733  0.5553213635514778  1.0000
  C   C15       1.0  0.3780816279410005  0.073994256382278  0.5188166178315825  1.0000
  C   C16       1.0  0.6959244496335019  0.5552788301761851  0.0739466649870694  1.0000
  C   C17       1.0  0.1406148950005885  0.5187785216567063  0.4446783864433357  1.0000
  C   C18       1.0  0.6219180253325618  0.926001933826285  0.48118200637325254  1.0000
  C   C19       1.0  0.23666318857428342  0.4436747869908401  0.7997051459475274  1.0000
  C   C20       1.0  0.7929571495012268  0.35592058806336974  0.5563615042240285  1.0000
  C   C21       1.0  0.4370136007771777  0.20037081917442376  0.6440970214129463  1.0000
  C   C22       1.0  0.7633346316764502  0.5563277525222787  0.20029963626191732  1.0000
  C   C23       1.0  0.20704124378002578  0.6440851264189646  0.4436402202927924  1.0000
  C   C24       1.0  0.5629830933816677  0.7996274873136713  0.35590067940873377  1.0000
  C   C25       1.0  0.1448026268006473  0.3142767028402105  0.6745654790102265  1.0000
  C   C26       1.0  0.8304025858458884  0.3601867458785931  0.6857621715394656  1.0000
  C   C27       1.0  0.4702649536155263  0.32548897568333496  0.6397911549303288  1.0000
  C   C28       1.0  0.8551921775491066  0.685725836439552  0.32543672488945663  1.0000
  C   C29       1.0  0.16959681778902086  0.6398189686265638  0.31424245088251723  1.0000
  C   C30       1.0  0.5297301506620115  0.6745061558834067  0.36020408479065213  1.0000
  N   N1        1.0  0.1255659596022838  0.1916925870510227  0.6724230980005146  1.0000
  N   N2        1.0  0.9338042102085351  0.48063727887387125  0.8083274598144498  1.0000
  N   N3        1.0  0.4531236399001272  0.3275689838181961  0.5193116718003381  1.0000
  N   N4        1.0  0.8744293128683226  0.8083088940779392  0.32757623287089643  1.0000
  N   N5        1.0  0.06619565721579343  0.5193673775276012  0.19167254232047537  1.0000
  N   N6        1.0  0.5468709329731639  0.6724250894571356  0.4806821651341553  1.0000
  O   O1        1.0  0.11181261489080917  0.9306693599250836  0.6010633020359748  1.0000
  O   O2        1.0  0.18114532916303006  0.670477645191191  0.06941391550208918  1.0000
  O   O3        1.0  0.510702412667051  0.3988791780251404  0.3296080656532467  1.0000
  O   O4        1.0  0.8881851312479652  0.06933106326362551  0.39893283621175607  1.0000
  O   O5        1.0  0.8188579676625735  0.32952383675639396  0.9305850106171007  1.0000
  O   O6        1.0  0.4892931640627579  0.6011148953436843  0.6703860482982335  1.0000
  O   O7        1.0  0.058766293477418664  0.9590148442069261  0.8099512202897755  1.0000
  O   O8        1.0  0.099784588277288  0.8509401753193302  0.040846174603316965  1.0000
  O   O9        1.0  0.24886348439650163  0.1898778406978252  0.1490318394958834  1.0000
  O   O10       1.0  0.9412329354672836  0.040984520806681204  0.19004669009360953  1.0000
  O   O11       1.0  0.9002171819504028  0.14906024814911234  0.9591545662299409  1.0000
  O   O12       1.0  0.7511321031618722  0.8101162325531986  0.8509666426025432  1.0000
  O   O13       1.0  0.33168467898987325  0.0380056905851447  0.8442889804303846  1.0000
  O   O14       1.0  0.2937299320043466  0.8062298670996951  0.9619809747175905  1.0000
  O   O15       1.0  0.4874906283318198  0.1557056214034205  0.19378968217900905  1.0000
  O   O16       1.0  0.6683140688397061  0.9619947327206193  0.15570656120494425  1.0000
  O   O17       1.0  0.7062693493951925  0.19377161447391697  0.03801684333362232  1.0000
  O   O18       1.0  0.5125033650138207  0.8442852769733732  0.8062045915599327  1.0000
