data_image0
_chemical_formula_structural       Cd2H36C48S4N12Cl4
_chemical_formula_sum              "Cd2 H36 C48 S4 N12 Cl4"
_cell_length_a       8.079954359156945
_cell_length_b       9.731342594
_cell_length_c       15.7097
_cell_angle_alpha    90.0
_cell_angle_beta     104.638906969482
_cell_angle_gamma    90.0

_space_group_name_H-M_alt    "P 1"
_space_group_IT_number       1

loop_
  _space_group_symop_operation_xyz
  'x, y, z'

loop_
  _atom_site_type_symbol
  _atom_site_label
  _atom_site_symmetry_multiplicity
  _atom_site_fract_x
  _atom_site_fract_y
  _atom_site_fract_z
  _atom_site_occupancy
  Cd  Cd1       1.0  0.9999998604441913  0.499999866719314  4.910994207032154e-07  1.0000
  Cd  Cd2       1.0  0.0  1.027607432e-06  0.4999993634506054  1.0000
  H   H1        1.0  0.6506153107424311  0.2841129035683778  0.004286407481473001  1.0000
  H   H2        1.0  0.3493858288567253  0.7841127702876989  0.4957136133389141  1.0000
  H   H3        1.0  0.3493883871666554  0.7158858022628182  0.995715218978418  1.0000
  H   H4        1.0  0.6506127524325007  0.2158879907583682  0.5042854383913564  1.0000
  H   H5        1.0  0.8591636196320209  0.1819872214849312  0.2724232529095899  1.0000
  H   H6        1.0  0.1408400782770656  0.6819870882042451  0.22757710045151205  1.0000
  H   H7        1.0  0.1408400782770656  0.8180094291314007  0.7275783735503011  1.0000
  H   H8        1.0  0.8591610613220906  0.3180136728418219  0.7724216472700857  1.0000
  H   H9        1.0  0.0868789260744407  0.3547424177757819  0.21216053335611915  1.0000
  H   H10       1.0  0.9131234926796878  0.8547433121025351  0.2878390171852274  1.0000
  H   H11       1.0  0.9131247718346529  0.6452542328405428  0.7878410931037649  1.0000
  H   H12       1.0  0.08687508860954547  0.1452595041584033  0.7121593979956485  1.0000
  H   H13       1.0  0.4024822723029473  0.3104761723077019  0.16203466932681468  1.0000
  H   H14       1.0  0.5975188672962162  0.8104750114195838  0.3379659880429599  1.0000
  H   H15       1.0  0.5975188672962162  0.6895235611309332  0.8379653514935652  1.0000
  H   H16       1.0  0.4024809931479822  0.1895267772339224  0.6620332299576714  1.0000
  H   H17       1.0  0.334445298864388  0.845264661124105  0.14401569223451108  1.0000
  H   H18       1.0  0.6655545615798033  0.3452627391899199  0.3559841623155151  1.0000
  H   H19       1.0  0.6655571198897334  0.1547340447070908  0.855985767955019  1.0000
  H   H20       1.0  0.3344465780193531  0.6547380218561472  0.644015858504865  1.0000
  H   H21       1.0  0.5215447372992301  0.7088908784542554  0.1427483491963741  1.0000
  H   H22       1.0  0.4784576814548913  0.20888895652007022  0.3572524744437614  1.0000
  H   H23       1.0  0.4784538439899961  0.2911078273769405  0.85725261218208  1.0000
  H   H24       1.0  0.5215447372992301  0.7911128321334289  0.6427483491963739  1.0000
  H   H25       1.0  0.696841412871116  0.539813489172488  0.09202038920082597  1.0000
  H   H26       1.0  0.3031571684181101  0.039812594845742  0.40797866252944454  1.0000
  H   H27       1.0  0.3031546101081801  0.4601841890512759  0.9079789665381168  1.0000
  H   H28       1.0  0.6968426920260811  0.9601891938077642  0.5920205554711869  1.0000
  H   H29       1.0  0.0168247252559226  0.8380683262583305  0.0343078729585926  1.0000
  H   H30       1.0  0.9831751351882687  0.3380674319315844  0.46569134504203885  1.0000
  H   H31       1.0  0.9831738560333037  0.1619314071802975  0.9656930884198541  1.0000
  H   H32       1.0  0.0168234461009575  0.6619353843293538  0.5343051604906676  1.0000
  H   H33       1.0  0.849014804138946  0.0252431766354064  0.077831754414035  1.0000
  H   H34       1.0  0.1509863354602174  0.5252409881398563  0.42216826640634497  1.0000
  H   H35       1.0  0.15098377715028724  0.9747555291957894  0.9221692069644118  1.0000
  H   H36       1.0  0.849013524983981  0.47475977290621074  0.5778303150448919  1.0000
  C   C1        1.0  0.7415120625622436  0.2793499431081656  0.06818277745400539  1.0000
  C   C2        1.0  0.2584903561918779  0.7793508374349187  0.4318174096367357  1.0000
  C   C3        1.0  0.2584916353468429  0.7206477351155911  0.9318188490058785  1.0000
  C   C4        1.0  0.7415082250973482  0.22065095121858042  0.5681810055441472  1.0000
  C   C5        1.0  0.854130144844369  0.22972164204539777  0.20923500322188454  1.0000
  C   C6        1.0  0.14587227390975943  0.7297225363721509  0.29076582041825816  1.0000
  C   C7        1.0  0.1458748322196897  0.7702750085709269  0.7907667895083675  1.0000
  C   C8        1.0  0.8541263073794738  0.2702802798887873  0.7092338678614138  1.0000
  C   C9        1.0  0.9636744177453593  0.312502614169091  0.17805244576125284  1.0000
  C   C10       1.0  0.0363292801637272  0.812503508495837  0.32194727105045456  1.0000
  C   C11       1.0  0.0363292801637272  0.6874930088398017  0.821949180698638  1.0000
  C   C12       1.0  0.9636731385903943  0.1874972525502301  0.6780516429414971  1.0000
  C   C13       1.0  0.5626989899913042  0.1345035371385492  0.14128796005933  1.0000
  C   C14       1.0  0.4373021496078593  0.6345034038578632  0.3587126973104446  1.0000
  C   C15       1.0  0.4373047079177893  0.8654941410852146  0.8587143029499484  1.0000
  C   C16       1.0  0.5626989899913042  0.365499412403075  0.6412866869605409  1.0000
  C   C17       1.0  0.4219855480557797  0.2002323914894717  0.15618389179104494  1.0000
  C   C18       1.0  0.5780143123884116  0.7002312306013536  0.3438153262095866  1.0000
  C   C19       1.0  0.5780168706983417  0.7997673419491562  0.8438175683984851  1.0000
  C   C20       1.0  0.4219855480557797  0.2997705580521455  0.6561826186922557  1.0000
  C   C21       1.0  0.3866616836946193  0.9485361254973412  0.1458468409972653  1.0000
  C   C22       1.0  0.613338176749572  0.4485362587780272  0.3541536501021553  1.0000
  C   C23       1.0  0.6133394559045371  0.0514636079412938  0.8541544529219036  1.0000
  C   C24       1.0  0.3866629628495843  0.5514655298754789  0.6458457341688371  1.0000
  C   C25       1.0  0.5447575624508474  0.9874351773335589  0.13392711179466935  1.0000
  C   C26       1.0  0.455244856303274  0.4874342830068059  0.36607243874667716  1.0000
  C   C27       1.0  0.4552422979933439  0.0125625008902048  0.8660746524035331  1.0000
  C   C28       1.0  0.5447562832958823  0.5125675056466932  0.6339269455243153  1.0000
  C   C29       1.0  0.6637854902630733  0.8866710751011908  0.11307675635155327  1.0000
  C   C30       1.0  0.3362143701811178  0.3866701807744448  0.38692309819847276  1.0000
  C   C31       1.0  0.3362143701811178  0.11332660312257299  0.8869243712972545  1.0000
  C   C32       1.0  0.6637867694180386  0.6133326354864934  0.61307628607252  1.0000
  C   C33       1.0  0.628768623093535  0.7457727368960008  0.11872835548687986  1.0000
  C   C34       1.0  0.3712337956605865  0.24577287017668684  0.3812711950544738  1.0000
  C   C35       1.0  0.3712286790407261  0.2542239137203239  0.881272439621213  1.0000
  C   C36       1.0  0.628768623093535  0.7542299460842514  0.6187283554868795  1.0000
  C   C37       1.0  0.7280259317652238  0.6485209968757175  0.09067086304202829  1.0000
  C   C38       1.0  0.2719726495240025  0.1485180473340932  0.4093288252376368  1.0000
  C   C39       1.0  0.2719713703690374  0.3514777089554784  0.9093292955166702  1.0000
  C   C40       1.0  0.7280259317652238  0.8514827137119667  0.5906702264926337  1.0000
  C   C41       1.0  0.9044162848322657  0.814636821530442  0.05829037684491566  1.0000
  C   C42       1.0  0.0955848547668907  0.3146348995962569  0.44170900742606983  1.0000
  C   C43       1.0  0.0955822964569606  0.1853618843007538  0.9417105845335313  1.0000
  C   C44       1.0  0.9044137265223355  0.685365861449803  0.558288134656024  1.0000
  C   C45       1.0  0.8095733399451317  0.9195987001338964  0.08339391156343366  1.0000
  C   C46       1.0  0.1904290788089895  0.41959575059227217  0.41660500242852544  1.0000
  C   C47       1.0  0.1904239621891293  0.0804000056972995  0.9166062469952648  1.0000
  C   C48       1.0  0.8095720607901669  0.580406038061227  0.5833931087436851  1.0000
  S   S1        1.0  0.267321642070911  0.084348073461733  0.16361392037393324  1.0000
  S   S2        1.0  0.7326794975282453  0.584347940181047  0.3363873735452357  1.0000
  S   S3        1.0  0.7326807766832104  0.915651659976902  0.8363881763649912  1.0000
  S   S4        1.0  0.2673203629159459  0.4156548760798843  0.6636112079060009  1.0000
  N   N1        1.0  0.8927312042261022  0.341735990473751  0.09031574047826746  1.0000
  N   N2        1.0  0.1072712145280192  0.841737912407936  0.4096838100630861  1.0000
  N   N3        1.0  0.1072724936829843  0.6582616877500129  0.909686522531018  1.0000
  N   N4        1.0  0.8927299250711371  0.158263876245563  0.5903143011091172  1.0000
  N   N5        1.0  0.7129753944458912  0.2098179136411176  0.13861999840961658  1.0000
  N   N6        1.0  0.2870257451532723  0.7098177803604315  0.36138065896015786  1.0000
  N   N7        1.0  0.28702830346320235  0.7901787369752142  0.861382264599662  1.0000
  N   N8        1.0  0.7129728361359611  0.2901829806856355  0.6386183927701126  1.0000
  N   N9        1.0  0.8640141752596762  0.6810252476452874  0.060010853048460364  1.0000
  N   N10       1.0  0.1359856851845223  0.1810253809259734  0.4399883649521711  1.0000
  N   N11       1.0  0.1359831268745921  0.3189724305784694  0.9399899420596327  1.0000
  N   N12       1.0  0.8640128961047111  0.8189774353349649  0.5600087771299228  1.0000
  Cl  Cl1       1.0  0.2787035629503477  0.5447110662066592  0.12597616072928014  1.0000
  Cl  Cl2       1.0  0.7212950183388784  0.0447132547022093  0.37402416409977945  1.0000
  Cl  Cl3       1.0  0.7212950183388784  0.45528661201710463  0.8740254371985684  1.0000
  Cl  Cl4       1.0  0.2787035629503477  0.9552895615587218  0.6259774338280619  1.0000
