data_image0
_chemical_formula_structural       K4H34C30S2N2O12
_chemical_formula_sum              "K4 H34 C30 S2 N2 O12"
_cell_length_a       5.8858812056268395
_cell_length_b       8.787655909621275
_cell_length_c       17.836194481560415
_cell_angle_alpha    82.23961393212792
_cell_angle_beta     77.80770043811646
_cell_angle_gamma    75.19031956514884

_space_group_name_H-M_alt    "P 1"
_space_group_IT_number       1

loop_
  _space_group_symop_operation_xyz
  'x, y, z'

loop_
  _atom_site_type_symbol
  _atom_site_label
  _atom_site_symmetry_multiplicity
  _atom_site_fract_x
  _atom_site_fract_y
  _atom_site_fract_z
  _atom_site_occupancy
  K   K1        1.0  0.853267017306983  0.8642638185782663  0.409075211386579  1.0000
  K   K2        1.0  0.14676758255249206  0.13574564232583705  0.590928437941308  1.0000
  K   K3        1.0  0.9606192321756098  0.35530393096474466  0.4134921804093992  1.0000
  K   K4        1.0  0.03938013313622686  0.644697508062457  0.5865102661401734  1.0000
  H   H1        1.0  0.2726424393831833  0.9430290919403393  0.466784422791612  1.0000
  H   H2        1.0  0.7273637996648149  0.056977012075222426  0.5332206598689595  1.0000
  H   H3        1.0  0.31938402740574645  0.0427132296362842  0.3884068298143788  1.0000
  H   H4        1.0  0.680621387175428  0.9572905254508375  0.6115967718472106  1.0000
  H   H5        1.0  0.4983207086041831  0.7053770094447601  0.4845861903233555  1.0000
  H   H6        1.0  0.5016964259471449  0.29463965435619605  0.515408563226984  1.0000
  H   H7        1.0  0.5003612055216493  0.7443412030752655  0.5714819240576432  1.0000
  H   H8        1.0  0.49963792318862943  0.25565671039777277  0.4285162755971114  1.0000
  H   H9        1.0  0.557497624885407  0.3513243152304924  0.9175940977289087  1.0000
  H   H10       1.0  0.44248989727176985  0.6486713065228005  0.0824083411969809  1.0000
  H   H11       1.0  0.27273426592299194  0.31161136475323303  0.95826204948537  1.0000
  H   H12       1.0  0.7272507977810817  0.6883807300833454  0.0417435723358537  1.0000
  H   H13       1.0  0.5211068606459434  0.15490824081772567  0.9318619388188908  1.0000
  H   H14       1.0  0.47887411704380173  0.845081532688326  0.0681390402638655  1.0000
  H   H15       1.0  0.14912842560899967  0.41704179166284666  0.23657307002439154  1.0000
  H   H16       1.0  0.8508694936408929  0.5829596659012852  0.7634249798242152  1.0000
  H   H17       1.0  0.8270025464790435  0.8778724955083705  0.1386561520478367  1.0000
  H   H18       1.0  0.17301286587645143  0.12213004617643722  0.8613334404143486  1.0000
  H   H19       1.0  0.08666898669184052  0.9947258586052573  0.19508382439088479  1.0000
  H   H20       1.0  0.9133288982056555  0.005286212162587804  0.8049118692825842  1.0000
  H   H21       1.0  0.8624368492900203  0.587068625754526  0.1583031245666859  1.0000
  H   H22       1.0  0.13756055981438917  0.41292577975367817  0.8416869946585236  1.0000
  H   H23       1.0  0.6413506606510494  0.5163010003961902  0.2826007211631421  1.0000
  H   H24       1.0  0.3586430435975245  0.4836934213387991  0.7173929943175068  1.0000
  H   H25       1.0  0.8897009012417955  0.34388703173409146  0.13991072047949157  1.0000
  H   H26       1.0  0.11029745551395813  0.6561026312626271  0.8600897354796331  1.0000
  H   H27       1.0  0.3885182150753579  0.8241975213169471  0.26792061504087167  1.0000
  H   H28       1.0  0.61146872180651  0.17580989121338322  0.7320816704394773  1.0000
  H   H29       1.0  0.32052337140282816  0.10466168624671472  0.21912750735128841  1.0000
  H   H30       1.0  0.6794681291541096  0.8953374457815572  0.7808750190477411  1.0000
  H   H31       1.0  0.24679947634108146  0.12598809835931493  0.08526566201727799  1.0000
  H   H32       1.0  0.7531936549896088  0.8740110198700041  0.9147384452514941  1.0000
  H   H33       1.0  0.8077225121573831  0.37313152608854966  0.006139553852527523  1.0000
  H   H34       1.0  0.19226992172605148  0.6268499211955646  0.9938623579654403  1.0000
  C   C1        1.0  0.40429570150339345  0.5808560624600076  0.38802739965954197  1.0000
  C   C2        1.0  0.5957089858355076  0.4191712855523166  0.6119691371160414  1.0000
  C   C3        1.0  0.45725723102443533  0.5088895282481051  0.3095190157966101  1.0000
  C   C4        1.0  0.5427458359307238  0.4911107027650844  0.6904860792615821  1.0000
  C   C5        1.0  0.2878679627035369  0.6080533743112184  0.2579309146550202  1.0000
  C   C6        1.0  0.7121439418653494  0.3919420940556436  0.7420700034650379  1.0000
  C   C7        1.0  0.2721291515136032  0.7715431907816214  0.2443006453695702  1.0000
  C   C8        1.0  0.7278566841450029  0.22845715453127727  0.7557027201472835  1.0000
  C   C9        1.0  0.10576010288135515  0.8674792263195673  0.20227256975318397  1.0000
  C   C10       1.0  0.8942467454043382  0.13253160451333912  0.7977248833757073  1.0000
  C   C11       1.0  0.9577537058300791  0.8019320002455432  0.1709175752324299  1.0000
  C   C12       1.0  0.04225356439153671  0.19807293851541638  0.8290779835373812  1.0000
  C   C13       1.0  0.9776919256528342  0.6392968443947924  0.1823141493180103  1.0000
  C   C14       1.0  0.02231398796149625  0.3607022123028187  0.8176801868879479  1.0000
  C   C15       1.0  0.13987516062541522  0.5432102797779025  0.22608477490207685  1.0000
  C   C16       1.0  0.860126094056703  0.4567911520835042  0.7739153103535301  1.0000
  C   C17       1.0  0.6076773643959115  0.22376325867989524  0.1871651066042617  1.0000
  C   C18       1.0  0.39231871861855433  0.7762228821380789  0.8128357164189737  1.0000
  C   C19       1.0  0.7466256969695025  0.2986689617468984  0.12770424218886942  1.0000
  C   C20       1.0  0.25336521634471854  0.7013219245430239  0.8722977246833067  1.0000
  C   C21       1.0  0.7017006068758819  0.31300803472669975  0.05280402767466796  1.0000
  C   C22       1.0  0.2982966674390539  0.6869698503443475  0.947195564026501  1.0000
  C   C23       1.0  0.5203995810913681  0.2530221949060307  0.03637493690199279  1.0000
  C   C24       1.0  0.4795817070846624  0.7469711060493796  0.9636291627430964  1.0000
  C   C25       1.0  0.38725718462251274  0.17486476326487835  0.09705630183048441  1.0000
  C   C26       1.0  0.6127379994178455  0.8251284490935478  0.9029474919489501  1.0000
  C   C27       1.0  0.4282352847425628  0.16111950925946422  0.171789052883085  1.0000
  C   C28       1.0  0.5717525297409907  0.8388749282873466  0.828215125476916  1.0000
  C   C29       1.0  0.4661563697945751  0.2694182758965271  0.956770735153448  1.0000
  C   C30       1.0  0.5338332789569903  0.7305714418810613  0.0432302639506119  1.0000
  S   S1        1.0  0.6372873405106246  0.21415087989794304  0.28517563903043447  1.0000
  S   S2        1.0  0.3627073139792499  0.7858494134768679  0.7148254938427526  1.0000
  N   N1        1.0  0.43653711242941273  0.3441672082587389  0.3283725361425311  1.0000
  N   N2        1.0  0.5634556189603329  0.6558342831215074  0.6716252764267949  1.0000
  O   O1        1.0  0.5809976660483754  0.6127715170684741  0.4085866373691545  1.0000
  O   O2        1.0  0.4190459437792171  0.38724028020998  0.5913994739557182  1.0000
  O   O3        1.0  0.19441752615398403  0.5984943269675256  0.42723605683923443  1.0000
  O   O4        1.0  0.8055930555374644  0.40149406849633357  0.5727693203147908  1.0000
  O   O5        1.0  0.8827839003227425  0.22719140428511514  0.2832837452012456  1.0000
  O   O6        1.0  0.11720971063609663  0.7728171486269987  0.7167163663290381  1.0000
  O   O7        1.0  0.5860718693746565  0.06105765832982259  0.3196396894356965  1.0000
  O   O8        1.0  0.41392688991200544  0.9389402456672759  0.6803641418814904  1.0000
  O   O9        1.0  0.18897758560694908  0.022294079038935908  0.4306647203609018  1.0000
  O   O10       1.0  0.8110277732494069  0.9777143858088382  0.5693413887613943  1.0000
  O   O11       1.0  0.4528140321863958  0.7913079943106426  0.5214934394164175  1.0000
  O   O12       1.0  0.547211075356948  0.20870036518071805  0.4785024641271177  1.0000
