data_image0
_chemical_formula_structural       Ag4H36C48S4N8O16
_chemical_formula_sum              "Ag4 H36 C48 S4 N8 O16"
_cell_length_a       8.338500938345886
_cell_length_b       9.726591946
_cell_length_c       14.934
_cell_angle_alpha    90.0
_cell_angle_beta     94.37568917997842
_cell_angle_gamma    90.0

_space_group_name_H-M_alt    "P 1"
_space_group_IT_number       1

loop_
  _space_group_symop_operation_xyz
  'x, y, z'

loop_
  _atom_site_type_symbol
  _atom_site_label
  _atom_site_symmetry_multiplicity
  _atom_site_fract_x
  _atom_site_fract_y
  _atom_site_fract_z
  _atom_site_occupancy
  Ag  Ag1       1.0  0.15605116842471742  0.7849265233275986  0.4155677525810119  1.0000
  Ag  Ag2       1.0  0.3439490722479803  0.2849250811986295  0.0844320567878469  1.0000
  Ag  Ag3       1.0  0.8439529212070411  0.2150753328210016  0.584432019871059  1.0000
  Ag  Ag4       1.0  0.6560502063352942  0.7150747187312945  0.915568180324712  1.0000
  H   H1        1.0  0.07301487722276792  0.2932157548947956  0.9969955555644745  1.0000
  H   H2        1.0  0.42698295792569513  0.7932161689144195  0.5030041513281489  1.0000
  H   H3        1.0  0.9269819958362717  0.7067840450351284  0.003005248684814892  1.0000
  H   H4        1.0  0.5730223344681846  0.20678363101549727  0.49699567236203995  1.0000
  H   H5        1.0  0.6465062889175357  0.2591123400664941  0.3283436066674453  1.0000
  H   H6        1.0  0.8534944331005647  0.7591106978674489  0.17165649105209724  1.0000
  H   H7        1.0  0.3534941924278669  0.7408884879727609  0.6716566816832383  1.0000
  H   H8        1.0  0.1465084537690728  0.2408880739531369  0.8283445693877809  1.0000
  H   H9        1.0  0.6588971442720108  0.8183462454465769  0.3001109153477302  1.0000
  H   H10       1.0  0.8410963611733708  0.3183458314269458  0.19989155339496276  1.0000
  H   H11       1.0  0.3410997287870288  0.18165458259268516  0.6998885496756344  1.0000
  H   H12       1.0  0.158900511885669  0.6816539685029781  0.8001105900802585  1.0000
  H   H13       1.0  0.3841441795175698  0.8228144086265772  0.2232081305841689  1.0000
  H   H14       1.0  0.1158524528687721  0.322812966497608  0.2767955427481184  1.0000
  H   H15       1.0  0.6158526935414699  0.1771884756313611  0.7767926736651205  1.0000
  H   H16       1.0  0.8841468257145095  0.6771868334323159  0.7232060335903725  1.0000
  H   H17       1.0  0.6370152930330306  0.0028581439577522  0.10569005673870892  1.0000
  H   H18       1.0  0.8629818206987139  0.502856501758707  0.39430854804054855  1.0000
  H   H19       1.0  0.36298398555025113  0.9971416559721716  0.8943088411479252  1.0000
  H   H20       1.0  0.1370186606466888  0.4971412419525407  0.6056897314712373  1.0000
  H   H21       1.0  0.9184002881140643  0.9830195461147183  0.17754457967701143  1.0000
  H   H22       1.0  0.5815944200934382  0.48301913209508734  0.3224559314649085  1.0000
  H   H23       1.0  0.0815953821828614  0.0169792257058674  0.8224548341082425  1.0000
  H   H24       1.0  0.4184060612519644  0.5169796397254984  0.6775436872728093  1.0000
  H   H25       1.0  0.7939673302852057  0.3151206524357661  0.9271854326853769  1.0000
  H   H26       1.0  0.7060333917328947  0.8151231226740734  0.5728139954211926  1.0000
  H   H27       1.0  0.2060319482980759  0.6848770912754816  0.0728141348142159  1.0000
  H   H28       1.0  0.2939731034231059  0.1848756491465124  0.42718520989414804  1.0000
  H   H29       1.0  0.5246941497469353  0.24093947941999969  0.931038386895949  1.0000
  H   H30       1.0  0.9753029639848023  0.7409409215489688  0.5689608874962744  1.0000
  H   H31       1.0  0.47530392607422567  0.7590592924005861  0.0689617989784992  1.0000
  H   H32       1.0  0.0246999228848352  0.25905579405294077  0.43103883371767887  1.0000
  H   H33       1.0  0.3718844252341142  0.2652141689834977  0.2541911503969061  1.0000
  H   H34       1.0  0.1281158154385835  0.7652135548937906  0.24580731974602804  1.0000
  H   H35       1.0  0.6281148533491674  0.7347887152744335  0.745808417102694  1.0000
  H   H36       1.0  0.8718870714310543  0.2347872731454643  0.7541924014679253  1.0000
  C   C1        1.0  0.668188481644691  0.0386723327233511  0.3183412014792708  1.0000
  C   C2        1.0  0.8318074293249325  0.538671718633644  0.1816593609007597  1.0000
  C   C3        1.0  0.3318095941764696  0.9613284953159038  0.6816563059433207  1.0000
  C   C4        1.0  0.1681954575447122  0.4613270531869418  0.8183416995391184  1.0000
  C   C5        1.0  0.5887147718405288  0.1641335432660469  0.3046435519992201  1.0000
  C   C6        1.0  0.9112835446533367  0.6641339572856779  0.1953557736311211  1.0000
  C   C7        1.0  0.41128450674275296  0.8358672847732079  0.6953553458874211  1.0000
  C   C8        1.0  0.08871813945418693  0.335865842644246  0.8046452355706394  1.0000
  C   C9        1.0  0.4353878596163483  0.1672446021207818  0.2607125447944796  1.0000
  C   C10       1.0  0.06460757000787963  0.6672460442497509  0.2392877292348743  1.0000
  C   C11       1.0  0.5646114189669335  0.832755197809135  0.7392870227051205  1.0000
  C   C12       1.0  0.935394114099644  0.3327527275708348  0.7607126103539272  1.0000
  C   C13       1.0  0.3615226295751341  0.0435897796837637  0.2302864957680413  1.0000
  C   C14       1.0  0.1384764083354497  0.5435912218127327  0.2697152712015907  1.0000
  C   C15       1.0  0.6384766490081475  0.9564110483554984  0.7697144109574836  1.0000
  C   C16       1.0  0.8615240730099529  0.4564065218985149  0.7302856867620521  1.0000
  C   C17       1.0  0.4412898133364394  0.9178764822833471  0.2469623631649753  1.0000
  C   C18       1.0  0.05870681904990251  0.4178781244823924  0.2530413101673119  1.0000
  C   C19       1.0  0.5587070597226003  0.0821233176465768  0.7530377714713551  1.0000
  C   C20       1.0  0.9412912567712581  0.5821206473381935  0.7469608845460272  1.0000
  C   C21       1.0  0.59518683480524  0.9152630283478729  0.2895623605987723  1.0000
  C   C22       1.0  0.9048090761643834  0.41526261432824185  0.21043820178125833  1.0000
  C   C23       1.0  0.4048112410159206  0.0847367715820511  0.7104364860497442  1.0000
  C   C24       1.0  0.09519020241889822  0.5847351293830059  0.7895633745572326  1.0000
  C   C25       1.0  0.0133927561999698  0.1343780028252866  0.09005091677634168  1.0000
  C   C26       1.0  0.48660628171060694  0.6343773887355795  0.4099501805803243  1.0000
  C   C27       1.0  0.9866065223833118  0.8656217971046374  0.9099493203362244  1.0000
  C   C28       1.0  0.5133954023969096  0.3656203549756682  0.590051498234395  1.0000
  C   C29       1.0  0.9771840839396121  0.22796782391101536  0.019595463445689597  1.0000
  C   C30       1.0  0.5228154353163746  0.7279672098213082  0.4804039134227693  1.0000
  C   C31       1.0  0.0228127891194347  0.7720340322375846  0.980404001577682  1.0000
  C   C32       1.0  0.4771910598396261  0.2720325901086155  0.5195959615055301  1.0000
  C   C33       1.0  0.8220927196862109  0.2401745660730299  0.9802169851150424  1.0000
  C   C34       1.0  0.6779067995697758  0.740176008201999  0.5197810525274846  1.0000
  C   C35       1.0  0.1779053561349571  0.759825233856894  0.0197825311464399  1.0000
  C   C36       1.0  0.3220996955862248  0.2598217355092487  0.4802181527878489  1.0000
  C   C37       1.0  0.6993400205382088  0.1587935433679988  0.0121364621016653  1.0000
  C   C38       1.0  0.8006607014798919  0.6587949854969679  0.4878622963919454  1.0000
  C   C39       1.0  0.3006592580450729  0.841205228452587  0.9878637750108935  1.0000
  C   C40       1.0  0.1993433881518669  0.3412027582142798  0.5121368064471596  1.0000
  C   C41       1.0  0.734903290885832  0.064063549027189  0.08249103148800428  1.0000
  C   C42       1.0  0.7650938228459125  0.5640660192654892  0.4175069036782943  1.0000
  C   C43       1.0  0.2650935821732148  0.9359341946840657  0.9175084335353603  1.0000
  C   C44       1.0  0.23490665849949016  0.43593480877377283  0.5824920454464576  1.0000
  C   C45       1.0  0.8898431071121848  0.05221150458654479  0.12129321318374757  1.0000
  C   C46       1.0  0.6101528038574386  0.5522129467155068  0.37870667958331694  1.0000
  C   C47       1.0  0.11015376594686192  0.9477872672340409  0.8787069214525758  1.0000
  C   C48       1.0  0.3898488802500779  0.447785825105079  0.6212923207795528  1.0000
  S   S1        1.0  0.8577209391882832  0.0334094410256043  0.3813008514253369  1.0000
  S   S2        1.0  0.6422773773055823  0.5334098550452353  0.1186998134309292  1.0000
  S   S3        1.0  0.1422771366328845  0.9665924151229959  0.6186993344491114  1.0000
  S   S4        1.0  0.3577243068019413  0.4665909729940267  0.8813005261578652  1.0000
  N   N1        1.0  0.2077771561333819  0.0373306500381503  0.1856747408644139  1.0000
  N   N2        1.0  0.29221947625296  0.5373300359484432  0.3143262540160237  1.0000
  N   N3        1.0  0.7922209196877787  0.9626712061104499  0.8143261146230003  1.0000
  N   N4        1.0  0.7077798023303217  0.4626697639814807  0.6856746527095013  1.0000
  N   N5        1.0  0.1720539184238774  0.1315743486624115  0.1284083079267262  1.0000
  N   N6        1.0  0.3279451194867065  0.6315727064633662  0.3715921198169738  1.0000
  N   N7        1.0  0.8279429546351693  0.8684264793768506  0.8715918267095973  1.0000
  N   N8        1.0  0.6720589701450523  0.36842709346655766  0.6284083222480561  1.0000
  O   O1        1.0  0.9487580040087451  0.1556937937159759  0.3554207948039618  1.0000
  O   O2        1.0  0.5512403124851133  0.6556931796262688  0.1445798700523042  1.0000
  O   O3        1.0  0.0512400718124155  0.844307034323286  0.6445787214575205  1.0000
  O   O4        1.0  0.4487649799087663  0.3443097046316694  0.8554212928638094  1.0000
  O   O5        1.0  0.8193744772962717  0.036300484482154595  0.4760687777024941  1.0000
  O   O6        1.0  0.6806214336733518  0.5362988422831094  0.023932454290502402  1.0000
  O   O7        1.0  0.180617584714291  0.9637044559944599  0.5239311519813654  1.0000
  O   O8        1.0  0.3193766421478088  0.4636999295374764  0.9760684011969047  1.0000
  O   O9        1.0  0.9301416519240462  0.9032865826774169  0.35476701072078504  1.0000
  O   O10       1.0  0.5698566645698193  0.4032851405484478  0.1452336541354882  1.0000
  O   O11       1.0  0.0698576266592355  0.0967152734711831  0.645234565617706  1.0000
  O   O12       1.0  0.4301426140134623  0.596714659381476  0.8547659133641119  1.0000
  O   O13       1.0  0.5443965960254928  0.1685945096806876  0.979451710727993  1.0000
  O   O14       1.0  0.9556017204683656  0.6685959518096566  0.5205462756764234  1.0000
  O   O15       1.0  0.4556002770335468  0.8314042621398983  0.020547754295371593  1.0000
  O   O16       1.0  0.04440236916339301  0.3314028200109291  0.4794528271626817  1.0000
