data_image0
_chemical_formula_structural       Cd3H52C56S6N10O18
_chemical_formula_sum              "Cd3 H52 C56 S6 N10 O18"
_cell_length_a       8.44211518615711
_cell_length_b       11.646813011894839
_cell_length_c       15.7095
_cell_angle_alpha    95.48926290160637
_cell_angle_beta     104.69322352205447
_cell_angle_gamma    99.14258553655742

_space_group_name_H-M_alt    "P 1"
_space_group_IT_number       1

loop_
  _space_group_symop_operation_xyz
  'x, y, z'

loop_
  _atom_site_type_symbol
  _atom_site_label
  _atom_site_symmetry_multiplicity
  _atom_site_fract_x
  _atom_site_fract_y
  _atom_site_fract_z
  _atom_site_occupancy
  Cd  Cd1       1.0  0.4999995813711209  0.4999997866316336  0.999999705011362  1.0000
  Cd  Cd2       1.0  0.4776081802524672  0.45021998549265874  0.32442458425879284  1.0000
  Cd  Cd3       1.0  0.5223934316575694  0.5497795877706153  0.6755764327134626  1.0000
  H   H1        1.0  0.030250185934029603  0.5678084895915703  0.42336700681781986  1.0000
  H   H2        1.0  0.9697494513525484  0.4321928408746132  0.5766325925094475  1.0000
  H   H3        1.0  0.9318869878030469  0.4182643720360346  0.40990975001326996  1.0000
  H   H4        1.0  0.0681136367952675  0.5817360798286942  0.5900899215789933  1.0000
  H   H5        1.0  0.14613704978352618  0.5950187765991259  0.1916233365502009  1.0000
  H   H6        1.0  0.853863337542613  0.4049807966641481  0.8083768769472854  1.0000
  H   H7        1.0  0.9808002489922957  0.55191898230931  0.09110236097454559  1.0000
  H   H8        1.0  0.019200375606011698  0.4480814695554188  0.9088979471752194  1.0000
  H   H9        1.0  0.028241831560109208  0.4347829579588308  0.2623053857890838  1.0000
  H   H10       1.0  0.9717573311821325  0.5652166153044433  0.737694660791135  1.0000
  H   H11       1.0  0.8805360597698524  0.3684371264185772  0.15907230095315578  1.0000
  H   H12       1.0  0.11946456482845488  0.6315633254461446  0.8409280071966021  1.0000
  H   H13       1.0  0.5169926888371421  0.6414124477372241  0.19386001362423846  1.0000
  H   H14       1.0  0.48300769848899705  0.35858712552605  0.8061401998732476  1.0000
  H   H15       1.0  0.37761422718271825  0.6574284736287552  0.42919496556078934  1.0000
  H   H16       1.0  0.6223863974155961  0.3425719782359664  0.5708040694739721  1.0000
  H   H17       1.0  0.3487263065442576  0.8648249824758524  0.4262959730792487  1.0000
  H   H18       1.0  0.6512753053657788  0.1351745907874218  0.5737031342205086  1.0000
  H   H19       1.0  0.499842862809146  0.8479400197470426  0.1819414175193045  1.0000
  H   H20       1.0  0.5001587491008976  0.1520595535162315  0.8180570532229579  1.0000
  H   H21       1.0  0.33504544097397826  0.028061651815768602  0.4216215010052195  1.0000
  H   H22       1.0  0.6649561709360582  0.9719379214475056  0.5783763331795412  1.0000
  H   H23       1.0  0.5221877507661645  0.023369041453889804  0.18888063896192617  1.0000
  H   H24       1.0  0.47781287383214993  0.976631410410839  0.8111177595153406  1.0000
  H   H25       1.0  0.3621651193534206  0.24356150186631004  0.42555955201354567  1.0000
  H   H26       1.0  0.6378360180122797  0.7564363141940618  0.5744393659816609  1.0000
  H   H27       1.0  0.7674984888153132  0.9490450819812822  0.02155321022825519  1.0000
  H   H28       1.0  0.2324996866151992  0.05095536988343951  0.9784461275294729  1.0000
  H   H29       1.0  0.2322076862999936  0.8836226605684132  0.9856532435079258  1.0000
  H   H30       1.0  0.7677902518583508  0.1163769126948608  0.014345999597530601  1.0000
  H   H31       1.0  0.7558384213826413  0.7362223305588387  0.023657751403895557  1.0000
  H   H32       1.0  0.24415975404787096  0.2637781213058901  0.9763422229113343  1.0000
  H   H33       1.0  0.2434200544625256  0.6739637529791693  0.9875051597993474  1.0000
  H   H34       1.0  0.7565776464236434  0.32603494168265007  0.012494625211331786  1.0000
  H   H35       1.0  0.5396744238043638  0.2388899779393086  0.20279968581245805  1.0000
  H   H36       1.0  0.4603259635217753  0.7611095953239655  0.7971998911275262  1.0000
  H   H37       1.0  0.07558278572940941  0.7921268624285106  0.11019592302059779  1.0000
  H   H38       1.0  0.9244159024684961  0.2078709536318541  0.8898026611400806  1.0000
  H   H39       1.0  0.7636655743174997  0.8667069467887387  0.4719875112123332  1.0000
  H   H40       1.0  0.23632869008914525  0.13329262647453533  0.5280112311413204  1.0000
  H   H41       1.0  0.8280856266904237  0.2258972196484521  0.46521134060571967  1.0000
  H   H42       1.0  0.1719152351800588  0.7741041108177242  0.5347884256388227  1.0000
  H   H43       1.0  0.9663520713780895  0.8107215835853695  0.24114919497941395  1.0000
  H   H44       1.0  0.0336487904923928  0.18927974688081411  0.7588518443801178  1.0000
  H   H45       1.0  0.01444032790097789  0.1841434427850359  0.22411023355569876  1.0000
  H   H46       1.0  0.9855590721134319  0.8158570090796928  0.775891180791781  1.0000
  H   H47       1.0  0.8706283022309478  0.8318053826593186  0.3435342377531327  1.0000
  H   H48       1.0  0.12937062323912576  0.1681933120025008  0.656466350732309  1.0000
  H   H49       1.0  0.9455223718843797  0.20792366971905105  0.337144318226123  1.0000
  H   H50       1.0  0.0544816891934587  0.7920759035442231  0.6628570325806606  1.0000
  H   H51       1.0  0.11793968515100059  0.1482569664265085  0.09422321685970297  1.0000
  H   H52       1.0  0.8820540664882515  0.8517452426411225  0.9057762790910002  1.0000
  C   C1        1.0  0.022616369372940374  0.4891622377056351  0.45669983375827866  1.0000
  C   C2        1.0  0.9773832679136376  0.5108390927605413  0.5432997655689957  1.0000
  C   C3        1.0  0.05706641712819759  0.5204009123764024  0.14849023206982534  1.0000
  C   C4        1.0  0.9429342074701166  0.4795995394883263  0.8515094395224378  1.0000
  C   C5        1.0  0.95193753001017  0.45188054223932994  0.1987073948173261  1.0000
  C   C6        1.0  0.048064081899873726  0.5481190310239442  0.8012923490399257  1.0000
  C   C7        1.0  0.48060399794157854  0.6938175100185546  0.24422616931752825  1.0000
  C   C8        1.0  0.5193983257849695  0.3061846990490836  0.7557738584965461  1.0000
  C   C9        1.0  0.4018326785152269  0.7029048848496516  0.3749815969537947  1.0000
  C   C10       1.0  0.5981684588504734  0.2970929312107131  0.6250179575989137  1.0000
  C   C11       1.0  0.3874103489016463  0.8197676641481664  0.3730208332536336  1.0000
  C   C12       1.0  0.6125883392962592  0.1802301519122054  0.6269777509070449  1.0000
  C   C13       1.0  0.4700387239348344  0.8105836431572087  0.23811768551064455  1.0000
  C   C14       1.0  0.5299599260400143  0.18941856591042952  0.7618805684366379  1.0000
  C   C15       1.0  0.42560426263738543  0.8777114299908604  0.3042516660156522  1.0000
  C   C16       1.0  0.5743963619609289  0.1222890218738684  0.695748005576611  1.0000
  C   C17       1.0  0.4288594375846841  0.0051661765451883  0.305205597493888  1.0000
  C   C18       1.0  0.5711424115975275  0.9948342753195407  0.6947936044581411  1.0000
  C   C19       1.0  0.3828346052317571  0.0704225422833886  0.3717660435461951  1.0000
  C   C20       1.0  0.617165544822214  0.9295761523784307  0.6282328021840228  1.0000
  C   C21       1.0  0.4849851981516693  0.0672736346748977  0.242872416258443  1.0000
  C   C22       1.0  0.5150166510305425  0.9327268171898311  0.757126785693593  1.0000
  C   C23       1.0  0.3978732106084024  0.19126626476663944  0.37462654181421573  1.0000
  C   C24       1.0  0.6021269394455684  0.8087324298951799  0.6253729404735039  1.0000
  C   C25       1.0  0.6478677141937865  0.8922637058612539  0.013990557515086289  1.0000
  C   C26       1.0  0.3521302239645507  0.1077358674020203  0.986009322147865  1.0000
  C   C27       1.0  0.35128609268388533  0.855911570732502  0.991480134541092  1.0000
  C   C28       1.0  0.6487123200187953  0.1440897597336814  0.008519934426409718  1.0000
  C   C29       1.0  0.4996739483588044  0.9366269290408624  0.0011983390210375349  1.0000
  C   C30       1.0  0.5003239897995329  0.0633726442224116  0.9988015406419137  1.0000
  C   C31       1.0  0.6424518927354441  0.7725173565931344  0.014506854349662006  1.0000
  C   C32       1.0  0.3575475072789658  0.22748309527159455  0.9854932868828283  1.0000
  C   C33       1.0  0.35632014906810366  0.7374866380500864  0.992880509244422  1.0000
  C   C34       1.0  0.6436790136741307  0.2625129352131879  0.0071195373357965655  1.0000
  C   C35       1.0  0.495855918527809  0.1882737482168224  0.24999846066422288  1.0000
  C   C36       1.0  0.5041456933822275  0.8117258250464516  0.7500000100780396  1.0000
  C   C37       1.0  0.06075203924289947  0.8782113542177683  0.13786402098247658  1.0000
  C   C38       1.0  0.9392471234993423  0.1217882190455057  0.8621360255977419  1.0000
  C   C39       1.0  0.0843315852779085  0.0746635514982898  0.1283950947445547  1.0000
  C   C40       1.0  0.9156643782569773  0.9253377789678865  0.8716046403884119  1.0000
  C   C41       1.0  0.8018431960566302  0.9412729735257203  0.4398283182295444  1.0000
  C   C42       1.0  0.1981540302852025  0.0587239639331969  0.5601712774765841  1.0000
  C   C43       1.0  0.8387365502709372  0.13939890657471213  0.4360421602879825  1.0000
  C   C44       1.0  0.16126383705520203  0.8606006666885622  0.5639580532095039  1.0000
  C   C45       1.0  0.9981573430048627  0.8891842077675705  0.21166712474408908  1.0000
  C   C46       1.0  0.0018425315538835032  0.11081800130006773  0.7883338423504469  1.0000
  C   C47       1.0  0.023455014749409003  0.09454278797981892  0.20191772018719684  1.0000
  C   C48       1.0  0.9765431606810964  0.9054576638849099  0.7980835272430225  1.0000
  C   C49       1.0  0.9788391364969441  0.0003848274365268  0.24627042507902522  1.0000
  C   C50       1.0  0.02116441181350122  0.9996173816311043  0.7537323158823028  1.0000
  C   C51       1.0  0.9154470001042014  0.0170299319685938  0.3254787962006204  1.0000
  C   C52       1.0  0.08455413726149892  0.9829678840917709  0.6745220314670846  1.0000
  C   C53       1.0  0.8640149270542422  0.9216142660089588  0.36679068647884344  1.0000
  C   C54       1.0  0.1359866848557942  0.0783853072543153  0.6332103304934122  1.0000
  C   C55       1.0  0.903927739044491  0.12878979402655943  0.36333349563976464  1.0000
  C   C56       1.0  0.09607608476117949  0.8712089006352599  0.6366671239572455  1.0000
  S   S1        1.0  0.2216697116978352  0.4460193919446099  0.47405901197824807  1.0000
  S   S2        1.0  0.778330912900472  0.5539810599201189  0.5259412961715098  1.0000
  S   S3        1.0  0.1742659068921597  0.42729112336685665  0.10360795811823209  1.0000
  S   S4        1.0  0.8257349549783155  0.5727102070993269  0.8963924446837978  1.0000
  S   S5        1.0  0.8020510620562362  0.5321425421978105  0.22405904862627316  1.0000
  S   S6        1.0  0.1979524862542092  0.4678596668698205  0.7759411461050759  1.0000
  N   N1        1.0  0.4990723595878563  0.6959094600787736  0.002961124283231707  1.0000
  N   N2        1.0  0.5009270404265536  0.3040909917859551  0.9970390169492588  1.0000
  N   N3        1.0  0.44895827989162035  0.6404503791459035  0.3121315608961766  1.0000
  N   N4        1.0  0.5510435692905915  0.3595500727188252  0.6878676410558525  1.0000
  N   N5        1.0  0.45466983823762047  0.24982241582225845  0.3152565306093819  1.0000
  N   N6        1.0  0.5453303118163504  0.7501762788395612  0.6847429516783305  1.0000
  N   N7        1.0  0.10414145153671231  0.9683760711559799  0.09591895545719349  1.0000
  N   N8        1.0  0.895853524686437  0.0316261379116582  0.9040807074107772  1.0000
  N   N9        1.0  0.7861843410774939  0.04765446422353391  0.4742347067246015  1.0000
  N   N10       1.0  0.21381335980868238  0.9523442304382854  0.525764441728576  1.0000
  O   O1        1.0  0.2437309011102471  0.43230354465772086  0.3829910716743611  1.0000
  O   O2        1.0  0.7562684989041628  0.5676969072070079  0.6170090695581364  1.0000
  O   O3        1.0  0.21618964534190602  0.3381605203391373  0.513823316020094  1.0000
  O   O4        1.0  0.7838095174003356  0.6618390529241367  0.4861760940026229  1.0000
  O   O5        1.0  0.3433918172047541  0.5476147137897699  0.5320387039994756  1.0000
  O   O6        1.0  0.6566085701213851  0.4523848594735043  0.4679615094980107  1.0000
  O   O7        1.0  0.2758831546515097  0.5066639786546361  0.06094479733129528  1.0000
  O   O8        1.0  0.7241177072189727  0.49333735181154037  0.9390562420282363  1.0000
  O   O9        1.0  0.27768722296805487  0.3812893084769087  0.1782597962444186  1.0000
  O   O10       1.0  0.7223131643580841  0.6187102647863655  0.8217410538105694  1.0000
  O   O11       1.0  0.052475734804375  0.33436320485813553  0.04003170481812649  1.0000
  O   O12       1.0  0.947526351650005  0.6656381256080479  0.9599682283436762  1.0000
  O   O13       1.0  0.7067072523831613  0.5615756908821226  0.13868737233171655  1.0000
  O   O14       1.0  0.293291198542569  0.4384212465767946  0.861311753734185  1.0000
  O   O15       1.0  0.6981161996637085  0.4462917583951197  0.2612478211443729  1.0000
  O   O16       1.0  0.3018914969427726  0.5537122078754209  0.7387556098733083  1.0000
  O   O17       1.0  0.8930883823040288  0.6363437959533514  0.2867198808131093  1.0000
  O   O18       1.0  0.10691540327858462  0.3636592917157345  0.7132784988980132  1.0000
