data_image0
_chemical_formula_structural       Cd2H56C76N12Cl4
_chemical_formula_sum              "Cd2 H56 C76 N12 Cl4"
_cell_length_a       11.990864446527926
_cell_length_b       13.042038072051003
_cell_length_c       12.876143689529549
_cell_angle_alpha    105.76942092287256
_cell_angle_beta     90.00715030732273
_cell_angle_gamma    117.4117131554596

_space_group_name_H-M_alt    "P 1"
_space_group_IT_number       1

loop_
  _space_group_symop_operation_xyz
  'x, y, z'

loop_
  _atom_site_type_symbol
  _atom_site_label
  _atom_site_symmetry_multiplicity
  _atom_site_fract_x
  _atom_site_fract_y
  _atom_site_fract_z
  _atom_site_occupancy
  Cd  Cd1       1.0  0.25161294025387093  0.5000316716609774  0.2500915152149902  1.0000
  Cd  Cd2       1.0  0.7483875330001625  0.4999695299214508  0.7499077478774367  1.0000
  H   H1        1.0  0.23926113170929852  0.030170580442998588  0.1644297718919958  1.0000
  H   H2        1.0  0.7091374115912216  0.9702702021628937  0.3357327762453792  1.0000
  H   H3        1.0  0.7607422677133115  0.9698298013903112  0.8355762631478072  1.0000
  H   H4        1.0  0.2908663837974785  0.029730972289385704  0.6642641498018023  1.0000
  H   H5        1.0  0.10792756891135717  0.9526328698588314  0.22444779977712412  1.0000
  H   H6        1.0  0.6552178197783148  0.047583712376571406  0.275607483067418  1.0000
  H   H7        1.0  0.8920724055602278  0.047365667643205704  0.7755554139249129  1.0000
  H   H8        1.0  0.34478892723855387  0.9524183609314179  0.7243889058328534  1.0000
  H   H9        1.0  0.3236525068633184  0.8113781814664874  0.4015326122852655  1.0000
  H   H10       1.0  0.012254441401502397  0.1887221856707342  0.09794429098835881  1.0000
  H   H11       1.0  0.6763478187755821  0.18861939183552318  0.5984656846491205  1.0000
  H   H12       1.0  0.9877489241775166  0.8112781292878212  0.9020562895301296  1.0000
  H   H13       1.0  0.42773042595597127  0.165479703348538  0.20254447825934113  1.0000
  H   H14       1.0  0.7623826116516598  0.8350102806148386  0.2979415158719974  1.0000
  H   H15       1.0  0.5722675544883558  0.8345215161931206  0.7974563428126729  1.0000
  H   H16       1.0  0.23762079872614086  0.16499179116269863  0.7020548724215203  1.0000
  H   H17       1.0  0.18255376420719927  0.8293744720174415  0.2808354339600569  1.0000
  H   H18       1.0  0.8536081363388276  0.171021091661089  0.2190080906537872  1.0000
  H   H19       1.0  0.8174466449088627  0.1706249345318582  0.7191649044880108  1.0000
  H   H20       1.0  0.14639553077392972  0.8289764927249265  0.7809909861046833  1.0000
  H   H21       1.0  0.8793507249265177  0.23886140478553838  0.5202283881715815  1.0000
  H   H22       1.0  0.14065248612978104  0.7610800294553782  0.9790955993617771  1.0000
  H   H23       1.0  0.1206500933744223  0.7611371522061887  0.47977638411680357  1.0000
  H   H24       1.0  0.8593477097645061  0.23892395046727438  0.020909063577320815  1.0000
  H   H25       1.0  0.03918949961756378  0.3874510724405128  0.4395704916927414  1.0000
  H   H26       1.0  0.1513879135160465  0.612531524778113  0.0599145279926319  1.0000
  H   H27       1.0  0.9608053126106951  0.612543815378352  0.5604301965064593  1.0000
  H   H28       1.0  0.8486103270293769  0.38747521361246134  0.9400939760550956  1.0000
  H   H29       1.0  0.5596889799081594  0.20275752364527475  0.5064029726114327  1.0000
  H   H30       1.0  0.8565781570316845  0.7973982129652484  0.9938778269970782  1.0000
  H   H31       1.0  0.44031296441668394  0.7972382840494491  0.4935987376339668  1.0000
  H   H32       1.0  0.14342601369831703  0.20260204505469664  0.006118078369112827  1.0000
  H   H33       1.0  0.6047628966111844  0.2553579028012933  0.10040685333272852  1.0000
  H   H34       1.0  0.8493449496783683  0.7448047322447164  0.39975764697685173  1.0000
  H   H35       1.0  0.3952321128657915  0.744642379670502  0.899591388016873  1.0000
  H   H36       1.0  0.1506592210516331  0.2551955257752212  0.6002382583893322  1.0000
  H   H37       1.0  0.474194149388211  0.5095616541477241  0.08572688449787345  1.0000
  H   H38       1.0  0.4641848638721554  0.49099194498195686  0.4147928625676229  1.0000
  H   H39       1.0  0.5257944290411986  0.4904341092110229  0.9142717064511742  1.0000
  H   H40       1.0  0.5358178054926485  0.509011978767319  0.585207125522551  1.0000
  H   H41       1.0  0.8599663896607196  0.0347670981596266  0.49049394313616557  1.0000
  H   H42       1.0  0.32563614427125015  0.9652905174123628  0.009183856950038172  1.0000
  H   H43       1.0  0.1400352724695821  0.9652314783217832  0.5095123877385747  1.0000
  H   H44       1.0  0.6743671088218264  0.0347079069776868  0.9908100067507775  1.0000
  H   H45       1.0  0.00028490907690346354  0.9715721359710232  0.3775479826255222  1.0000
  H   H46       1.0  0.5289919851866286  0.028535237322131497  0.12260172727864932  1.0000
  H   H47       1.0  0.9997188608522051  0.028427319876414  0.6224562525159527  1.0000
  H   H48       1.0  0.47101133687920765  0.9714649916545848  0.8773918402838561  1.0000
  H   H49       1.0  0.6321634875362533  0.4323944269107543  0.04080900728922644  1.0000
  H   H50       1.0  0.6994390694043132  0.5675808847458443  0.45903500538445036  1.0000
  H   H51       1.0  0.36782423255939983  0.5676012882976949  0.9591856874214743  1.0000
  H   H52       1.0  0.3005644292854511  0.43242302983250597  0.5409642036400797  1.0000
  H   H53       1.0  0.41275300824744227  0.21865753795923837  0.3904480370314047  1.0000
  H   H54       1.0  0.6937882104427401  0.7817261022472122  0.10978485125615128  1.0000
  H   H55       1.0  0.5872503766707665  0.7813428152134633  0.6095556603564063  1.0000
  H   H56       1.0  0.3062137593416949  0.21827142405234667  0.8902095498949548  1.0000
  C   C1        1.0  0.4557933837594206  0.0053629460612115015  0.46413808012955127  1.0000
  C   C2        1.0  0.950424497588152  0.9947560387521509  0.0358713596675458  1.0000
  C   C3        1.0  0.5442065858773687  0.9946355818872873  0.5358643543551551  1.0000
  C   C4        1.0  0.0495775605082471  0.005243330348228903  0.9641258622145727  1.0000
  C   C5        1.0  0.2029030720760829  0.0321989133142537  0.24282375294045272  1.0000
  C   C6        1.0  0.6707289656080136  0.9681377130299609  0.25730504272583943  1.0000
  C   C7        1.0  0.7970960730705343  0.9677996333587018  0.7571802398272283  1.0000
  C   C8        1.0  0.32927483461548224  0.0318634709758499  0.7426926625386728  1.0000
  C   C9        1.0  0.3470128194674161  0.9020337941359032  0.39929745628109714  1.0000
  C   C10       1.0  0.9450186236357324  0.09811123138316448  0.10045036114187408  1.0000
  C   C11       1.0  0.6529835776032086  0.09795926120091282  0.6007011907078024  1.0000
  C   C12       1.0  0.05498728922136564  0.9018908415422118  0.8995460276067107  1.0000
  C   C13       1.0  0.35393277652546823  0.2881454992166965  0.19447669853165914  1.0000
  C   C14       1.0  0.5656642605196893  0.712111126718284  0.3056747024983295  1.0000
  C   C15       1.0  0.6460638419678589  0.7118529985407348  0.8055233976942945  1.0000
  C   C16       1.0  0.4343370323897133  0.28789004658614914  0.6943222230937849  1.0000
  C   C17       1.0  0.43719334508807606  0.23915350352287854  0.17285292203848  1.0000
  C   C18       1.0  0.698019811460469  0.7611436840652033  0.32737263742324535  1.0000
  C   C19       1.0  0.562802448915086  0.7608450129590164  0.8271487324704552  1.0000
  C   C20       1.0  0.3019852672368657  0.23885838847755989  0.6726237511736529  1.0000
  C   C21       1.0  0.24927538287461462  0.2494702366559096  0.2590773469056344  1.0000
  C   C22       1.0  0.49966734962805515  0.7507259868155958  0.24102603386524638  1.0000
  C   C23       1.0  0.7507182053481857  0.7505255385520613  0.7409220241708852  1.0000
  C   C24       1.0  0.500335709582437  0.2492770491619538  0.7589752711959293  1.0000
  C   C25       1.0  0.28784174421730313  0.0249487277627267  0.3241653464444738  1.0000
  C   C26       1.0  0.7629875868642485  0.9754443224381004  0.17595954028384847  1.0000
  C   C27       1.0  0.7121570255880059  0.9750507353425634  0.6758396670042047  1.0000
  C   C28       1.0  0.23701447123215053  0.0245550466622717  0.82403768159827  1.0000
  C   C29       1.0  0.26500466751011226  0.911783821404356  0.3307564434771423  1.0000
  C   C30       1.0  0.8534174598374448  0.08852525536876499  0.1691466299738096  1.0000
  C   C31       1.0  0.7349940829560138  0.0882156034867876  0.6692454531022136  1.0000
  C   C32       1.0  0.1465846079285527  0.911474132838684  0.8308521503429703  1.0000
  C   C33       1.0  0.1092847052572807  0.2625695412365943  0.3625281412103618  1.0000
  C   C34       1.0  0.3464750275486708  0.7374821500970442  0.1374392506932551  1.0000
  C   C35       1.0  0.8907104581382937  0.7374243823822512  0.6374676302211884  1.0000
  C   C36       1.0  0.6535235835032508  0.26252366230765745  0.8625674534561442  1.0000
  C   C37       1.0  0.9417415142109321  0.21339934097327531  0.4708390535582723  1.0000
  C   C38       1.0  0.22840810523567967  0.7866059864622201  0.028762543265699544  1.0000
  C   C39       1.0  0.05825119021852742  0.7865946674795623  0.5291637303741865  1.0000
  C   C40       1.0  0.7715899635206114  0.21339707588025897  0.9712410985373339  1.0000
  C   C41       1.0  0.09777701506685328  0.14594817611468613  0.3461600608339666  1.0000
  C   C42       1.0  0.45171261463048046  0.8541605624850916  0.15393840570028777  1.0000
  C   C43       1.0  0.9022174811232802  0.8540494136161101  0.6538397934732529  1.0000
  C   C44       1.0  0.5482880207430796  0.14584429603835497  0.8460641612021647  1.0000
  C   C45       1.0  0.030406160393447103  0.2976344264523192  0.4260661817044991  1.0000
  C   C46       1.0  0.23260242300472106  0.7023768498033648  0.07365137453142277  1.0000
  C   C47       1.0  0.9695906746877937  0.7023695041721894  0.5739345845411847  1.0000
  C   C48       1.0  0.7673961928819962  0.2976289721548824  0.9263561088353073  1.0000
  C   C49       1.0  0.47688871895179824  0.1192246633266407  0.45865647424444933  1.0000
  C   C50       1.0  0.8575174185983484  0.8809718244924624  0.04157280396599824  1.0000
  C   C51       1.0  0.5231098887339839  0.8807711428376307  0.5413452353941893  1.0000
  C   C52       1.0  0.1424876552641834  0.11903023849676228  0.9584228054135621  1.0000
  C   C53       1.0  0.5378062988652134  0.2906317841045976  0.11682458039767601  1.0000
  C   C54       1.0  0.7470478887472255  0.7095129487716534  0.3832403898639997  1.0000
  C   C55       1.0  0.4621890218150924  0.709365786901735  0.883173715626576  1.0000
  C   C56       1.0  0.25295460882844617  0.2904872989295271  0.6167547359814805  1.0000
  C   C57       1.0  0.4661873738063278  0.43164220607855  0.10798605847740114  1.0000
  C   C58       1.0  0.534214479236084  0.568657661357001  0.39224148547327087  1.0000
  C   C59       1.0  0.5338024927665187  0.5683544649242266  0.8920127742386939  1.0000
  C   C60       1.0  0.46579023378954076  0.4313453467251733  0.6077574822392862  1.0000
  C   C61       1.0  0.9308262467237609  0.09723876691389677  0.45324462818680894  1.0000
  C   C62       1.0  0.33377685504394355  0.902814668896177  0.04654318000579857  1.0000
  C   C63       1.0  0.0691770498824909  0.9027597434579848  0.5467562484699826  1.0000
  C   C64       1.0  0.6662261799925558  0.0971883193136875  0.9534542289687166  1.0000
  C   C65       1.0  0.008366262964514702  0.06090652952499911  0.3902786144647266  1.0000
  C   C66       1.0  0.4475505912067846  0.9392041544507351  0.10977517280709764  1.0000
  C   C67       1.0  0.9916305176483463  0.9390956251734509  0.6097247855712595  1.0000
  C   C68       1.0  0.5524507113722166  0.06079703796077501  0.8902233112196852  1.0000
  C   C69       1.0  0.5534681987613793  0.38901015212679363  0.0833812707149804  1.0000
  C   C70       1.0  0.6642014407223228  0.6110694679747225  0.41660254590460977  1.0000
  C   C71       1.0  0.44652377077547095  0.6109873886884712  0.9166146870505258  1.0000
  C   C72       1.0  0.33580325779891496  0.3889335114468366  0.5833940841559482  1.0000
  C   C73       1.0  0.39377272604949803  0.12850226968404144  0.3907072436019661  1.0000
  C   C74       1.0  0.7651728547751517  0.8718536290283936  0.10951517312397398  1.0000
  C   C75       1.0  0.606228931246008  0.8714962972438369  0.6092983080554433  1.0000
  C   C76       1.0  0.23483207630704328  0.1281448152339593  0.8904802493148836  1.0000
  N   N1        1.0  0.20406948837408828  0.3241171070304247  0.3074137992963131  1.0000
  N   N2        1.0  0.37972566559491855  0.6760137828116443  0.1926242667853303  1.0000
  N   N3        1.0  0.7959220416834897  0.6758795551840464  0.6925842545058245  1.0000
  N   N4        1.0  0.6202728571450393  0.3239901867922441  0.8073796166330566  1.0000
  N   N5        1.0  0.3697812716079554  0.3834215992697311  0.16181114886015993  1.0000
  N   N6        1.0  0.48612735713972915  0.6168918505820997  0.3384144912839205  1.0000
  N   N7        1.0  0.6302132245821851  0.6165759904610653  0.8381887054470597  1.0000
  N   N8        1.0  0.5138773558859029  0.38311115750007474  0.6615844764286294  1.0000
  N   N9        1.0  0.18712509849709144  0.1399007079911314  0.2802131283710523  1.0000
  N   N10       1.0  0.5471700416525779  0.8603209640098587  0.21993032796115147  1.0000
  N   N11       1.0  0.8128723589908021  0.8600977997024514  0.7197877472239256  1.0000
  N   N12       1.0  0.45283088558512213  0.139681144833979  0.780069176746622  1.0000
  Cl  Cl1       1.0  0.10037546123564313  0.397899270577426  0.07540391315900763  1.0000
  Cl  Cl2       1.0  0.2020205636304198  0.6020802229210743  0.4244582061597058  1.0000
  Cl  Cl3       1.0  0.8996238714900925  0.6021046516413904  0.9245960743244126  1.0000
  Cl  Cl4       1.0  0.7979797765128679  0.3979173790415516  0.5755424284266724  1.0000
