data_image0
_chemical_formula_structural       Zn2H36C48N2O13
_chemical_formula_sum              "Zn2 H36 C48 N2 O13"
_cell_length_a       10.796527318091396
_cell_length_b       11.744582458644906
_cell_length_c       13.031521005512944
_cell_angle_alpha    82.95055036316147
_cell_angle_beta     88.54251217694153
_cell_angle_gamma    85.60193069333977

_space_group_name_H-M_alt    "P 1"
_space_group_IT_number       1

loop_
  _space_group_symop_operation_xyz
  'x, y, z'

loop_
  _atom_site_type_symbol
  _atom_site_label
  _atom_site_symmetry_multiplicity
  _atom_site_fract_x
  _atom_site_fract_y
  _atom_site_fract_z
  _atom_site_occupancy
  Zn  Zn1       1.0  0.47709043590980116  0.618257484993414  0.4962279474052594  1.0000
  Zn  Zn2       1.0  0.5078799025268238  0.3804875729764489  0.4985535500635337  1.0000
  H   H1        1.0  0.0838167081062764  0.6777592190032776  0.4820463162395401  1.0000
  H   H2        1.0  0.3036982692528126  0.9819631988977519  0.6531464725454088  1.0000
  H   H3        1.0  0.628999760017244  0.23251078175761816  0.3486002711703123  1.0000
  H   H4        1.0  0.3806404824334279  0.18383287539626986  0.5943167415472318  1.0000
  H   H5        1.0  0.877471726769201  0.6756000346312375  0.48507603561918716  1.0000
  H   H6        1.0  0.07636910472245971  0.5685327820624907  0.34745309764719684  1.0000
  H   H7        1.0  0.1184791374258793  0.3109031147672709  0.5496574604490405  1.0000
  H   H8        1.0  0.9028005935637466  0.3873438302240046  0.6650846939725812  1.0000
  H   H9        1.0  0.2371721254360679  0.5100693716748381  0.24274752585982645  1.0000
  H   H10       1.0  0.3534340887463614  0.36066811437193275  0.15342250613407066  1.0000
  H   H11       1.0  0.3119566857278357  0.15389065391727993  0.19797610501463944  1.0000
  H   H12       1.0  0.9042144702300446  0.30981744885756507  0.5585572701633127  1.0000
  H   H13       1.0  0.14990424600078  0.10042547283266859  0.3315990258744749  1.0000
  H   H14       1.0  0.030785300762595103  0.24977235682582935  0.4177767682985803  1.0000
  H   H15       1.0  0.6192062632836509  0.15278742911412727  0.008980381001421706  1.0000
  H   H16       1.0  0.7714354977580412  0.012146708697720502  0.10506662295065894  1.0000
  H   H17       1.0  0.956568144194243  0.0807599065012425  0.18361500827456476  1.0000
  H   H18       1.0  0.9897803604852838  0.28977263155184113  0.16268996223443824  1.0000
  H   H19       1.0  0.8393096390491904  0.4292220059702387  0.06428867749882983  1.0000
  H   H20       1.0  0.7229471580797336  0.2551962521851435  0.864030797646983  1.0000
  H   H21       1.0  0.40699066066813566  0.633290711676018  0.7369483662795774  1.0000
  H   H22       1.0  0.11636954615712368  0.5584770060201832  0.6804274312650735  1.0000
  H   H23       1.0  0.8934621219089462  0.3931368205397801  0.3887909827952428  1.0000
  H   H24       1.0  0.7655837160281178  0.7999382446822594  0.5625190331408163  1.0000
  H   H25       1.0  0.6636816662778386  0.8713050529457362  0.7171405976019899  1.0000
  H   H26       1.0  0.6915111181385497  0.7567428956846027  0.8908885748500239  1.0000
  H   H27       1.0  0.8277479636472476  0.574721426441897  0.9067683750735755  1.0000
  H   H28       1.0  0.9321835192770394  0.5065214206583234  0.7544149244440209  1.0000
  H   H29       1.0  0.8327128076272101  0.6291494736272014  0.35356832114106856  1.0000
  H   H30       1.0  0.21455819102493484  0.3808358987497086  0.6736111342339514  1.0000
  H   H31       1.0  0.6235074425733628  0.4017530738867946  0.1795345377231783  1.0000
  H   H32       1.0  0.41055382591641615  0.7266552064182292  0.1666077885004782  1.0000
  H   H33       1.0  0.3844910229385404  0.7278900261920072  0.9756071678455103  1.0000
  H   H34       1.0  0.5784084914540555  0.8185899258030958  0.39029142834439773  1.0000
  H   H35       1.0  0.318727729318482  0.772861630282385  0.6284262426912052  1.0000
  H   H36       1.0  0.6442870588882172  0.023044094119079293  0.32316992554751783  1.0000
  C   C1        1.0  0.4958529449462787  0.4667360573851767  0.7013788751113381  1.0000
  C   C2        1.0  0.49366031365562424  0.5671222662842438  0.9691502806357309  1.0000
  C   C3        1.0  0.5680020193240196  0.4753857029130656  0.02493986300003571  1.0000
  C   C4        1.0  0.2551621854341235  0.4949088578847877  0.4939640424039809  1.0000
  C   C5        1.0  0.5744314091538029  0.4739265973574901  0.13333403094206633  1.0000
  C   C6        1.0  0.45244131553744876  0.6573951213377072  0.12578507311125264  1.0000
  C   C7        1.0  0.43896164056288706  0.6582600180018686  0.020714264440094606  1.0000
  C   C8        1.0  0.5856033463591572  0.0548100738921349  0.38442941070210424  1.0000
  C   C9        1.0  0.5782023139408992  0.16946647696717326  0.3976531532383022  1.0000
  C   C10       1.0  0.4375202796165423  0.14386865829244747  0.5361768999243355  1.0000
  C   C11       1.0  0.4378748361386826  0.024649052418467904  0.5290927310938686  1.0000
  C   C12       1.0  0.8727133588667684  0.4924877885162289  0.5164504192859384  1.0000
  C   C13       1.0  0.5160669079648272  0.9790687307928604  0.4517818669418788  1.0000
  C   C14       1.0  0.520169412079632  0.859202261481961  0.4472984659417564  1.0000
  C   C15       1.0  0.37464296154888627  0.8342903113958897  0.58241884689496  1.0000
  C   C16       1.0  0.5168542709497288  0.5516260150061996  0.29809557487737254  1.0000
  C   C17       1.0  0.36569359167864957  0.9493647951015872  0.5943569523370656  1.0000
  C   C18       1.0  0.7321046468990531  0.48547644483323177  0.5143222544976  1.0000
  C   C19       1.0  0.05856320256832959  0.6073662502192362  0.5404423171393518  1.0000
  C   C20       1.0  0.9122436092599384  0.6084240730830713  0.5463990307351737  1.0000
  C   C21       1.0  0.06083512536406492  0.48583310005788133  0.3938274097090472  1.0000
  C   C22       1.0  0.07686606910041147  0.389519445075983  0.578230775972685  1.0000
  C   C23       1.0  0.9179319343612209  0.4786382268828148  0.40389823181885737  1.0000
  C   C24       1.0  0.11410807178387469  0.4935491987075337  0.503198019395839  1.0000
  C   C25       1.0  0.12660209411590978  0.39176103651627153  0.3380736105212564  1.0000
  C   C26       1.0  0.21718488220202659  0.42019193661978693  0.2621368131936778  1.0000
  C   C27       1.0  0.28322599825839495  0.33573705192473097  0.21176624634417615  1.0000
  C   C28       1.0  0.2603651693002361  0.22016917498979885  0.23702093581552935  1.0000
  C   C29       1.0  0.1696180998085595  0.19034779371262533  0.311862867422235  1.0000
  C   C30       1.0  0.1028447399006325  0.27529529053760626  0.36116775249124805  1.0000
  C   C31       1.0  0.7194163692409673  0.3008677893635507  0.0285835419889153  1.0000
  C   C32       1.0  0.7017062631338716  0.18248751574696329  0.04112502015863841  1.0000
  C   C33       1.0  0.7866882518813012  0.10366503280163641  0.09640839514945301  1.0000
  C   C34       1.0  0.9348325194108966  0.3883874548172059  0.5845757124872009  1.0000
  C   C35       1.0  0.8902132010370705  0.14193082438102067  0.14037397184725361  1.0000
  C   C36       1.0  0.9091332427428469  0.25936427184554833  0.12856733567959114  1.0000
  C   C37       1.0  0.8247778201187045  0.33761325435827416  0.07295999001998871  1.0000
  C   C38       1.0  0.8546287991662496  0.6469050495856407  0.6452515812165771  1.0000
  C   C39       1.0  0.7799286980202637  0.7505887401788411  0.6384626031400203  1.0000
  C   C40       1.0  0.7219758343341525  0.7906660934589522  0.7253565505053318  1.0000
  C   C41       1.0  0.7378889840266041  0.7271880896885177  0.8226034119399019  1.0000
  C   C42       1.0  0.8137909645389099  0.6249700018284159  0.8313030492285522  1.0000
  C   C43       1.0  0.8720349516127184  0.5856423572189441  0.743962156508758  1.0000
  C   C44       1.0  0.5170995481384323  0.561781903032596  0.18293098993488144  1.0000
  C   C45       1.0  0.5252732648010152  0.4705969062553661  0.8111302753197978  1.0000
  C   C46       1.0  0.6291086880222565  0.3865218505616355  0.9725116091930205  1.0000
  C   C47       1.0  0.6067785135888782  0.384510446894346  0.868017187804874  1.0000
  C   C48       1.0  0.4743434702160982  0.5635862804327514  0.8616404771865902  1.0000
  N   N1        1.0  0.45314681416972746  0.7905017014927294  0.5107283611322729  1.0000
  N   N2        1.0  0.5060969055747435  0.21197742196978447  0.4738905502972557  1.0000
  O   O1        1.0  0.4440211949739208  0.5615685392751713  0.6519753353735284  1.0000
  O   O2        1.0  0.40374820700826297  0.6510364494839677  0.812090422414322  1.0000
  O   O3        1.0  0.11511019376078477  0.6300104651509315  0.6326212284648991  1.0000
  O   O4        1.0  0.8535677759892548  0.5562870661069184  0.3263498411554978  1.0000
  O   O5        1.0  0.1241721648047331  0.3926325083911306  0.6811016777065859  1.0000
  O   O6        1.0  0.5175189535849681  0.37600188851592964  0.6591816925775263  1.0000
  O   O7        1.0  0.3001093075486592  0.588916150493439  0.45983120664975996  1.0000
  O   O8        1.0  0.31831525277552686  0.39997007927917844  0.5207220156058767  1.0000
  O   O9        1.0  0.5150696513528884  0.6443047164945664  0.3399887562919164  1.0000
  O   O10       1.0  0.5139888420068671  0.4503769235409506  0.3459449189586152  1.0000
  O   O11       1.0  0.6632054004718526  0.5775005909730239  0.5196253549469391  1.0000
  O   O12       1.0  0.6955113354954889  0.3878345253148865  0.5024158658029166  1.0000
  O   O13       1.0  0.6673308218620023  0.30297349981422866  0.8151721116803688  1.0000
