data_image0
_chemical_formula_structural       Li4B4H88C32O16
_chemical_formula_sum              "Li4 B4 H88 C32 O16"
_cell_length_a       6.355263597004308
_cell_length_b       12.596615498028081
_cell_length_c       14.744969204033442
_cell_angle_alpha    90.00022383337934
_cell_angle_beta     89.99990337878653
_cell_angle_gamma    90.00009228658732

_space_group_name_H-M_alt    "P 1"
_space_group_IT_number       1

loop_
  _space_group_symop_operation_xyz
  'x, y, z'

loop_
  _atom_site_type_symbol
  _atom_site_label
  _atom_site_symmetry_multiplicity
  _atom_site_fract_x
  _atom_site_fract_y
  _atom_site_fract_z
  _atom_site_occupancy
  Li  Li1       1.0  0.4999990777702337  0.24999952155746288  0.5304272501885876  1.0000
  Li  Li2       1.0  0.9999987340413057  0.7500001143378867  0.9695736142420228  1.0000
  Li  Li3       1.0  0.4999984228853124  0.750000354835343  0.469572073242368  1.0000
  Li  Li4       1.0  3.401104322999998e-07  0.24999976205866395  0.0304270655831971  1.0000
  B   B1        1.0  0.4999993992692779  0.24999993974117268  0.3662878771924838  1.0000
  B   B2        1.0  0.9999987977349817  0.7500005828225013  0.1337136114523645  1.0000
  B   B3        1.0  0.4999996748837389  0.7500007305194101  0.6337128026340579  1.0000
  B   B4        1.0  2.7641670639999966e-07  0.2500000874396306  0.8662877465715937  1.0000
  H   H1        1.0  0.2187739204882888  0.4543435680296495  0.6976006429431152  1.0000
  H   H2        1.0  0.2812282577312856  0.954343218063364  0.8023999093475922  1.0000
  H   H3        1.0  0.7187720047194973  0.5456566335634319  0.8024004256423041  1.0000
  H   H4        1.0  0.781226727171891  0.045657828063262684  0.6976004357034213  1.0000
  H   H5        1.0  0.7812267271649063  0.5456571022300236  0.3023993586854345  1.0000
  H   H6        1.0  0.7187723899205879  0.04565745219785809  0.19760077047837402  1.0000
  H   H7        1.0  0.281227069430912  0.4543432428346747  0.1976009323803254  1.0000
  H   H8        1.0  0.2187723469823908  0.9543436360613522  0.302400244124442  1.0000
  H   H9        1.0  0.34126580744219137  0.33901989326913895  0.7456493367020229  1.0000
  H   H10       1.0  0.1587375755100737  0.839019223974553  0.7543508310964524  1.0000
  H   H11       1.0  0.8412628751690151  0.6609812015670324  0.7543509647657771  1.0000
  H   H12       1.0  0.6587362254937403  0.16098251663458285  0.7456489246794361  1.0000
  H   H13       1.0  0.658736413712454  0.6609815708536573  0.2543499867298706  1.0000
  H   H14       1.0  0.8412630721417429  0.16098224015225074  0.24565052692825864  1.0000
  H   H15       1.0  0.15873619898400196  0.3390194686935502  0.2456497150607717  1.0000
  H   H16       1.0  0.3412628486631419  0.8390197413525157  0.2543510769523394  1.0000
  H   H17       1.0  0.1448964384234799  0.32316932966001843  0.6606102076750345  1.0000
  H   H18       1.0  0.35510374684594126  0.823169208959058  0.8393905854768633  1.0000
  H   H19       1.0  0.6448963706975164  0.676830811996531  0.8393915927378401  1.0000
  H   H20       1.0  0.8551027806451688  0.17683189710345457  0.6606090277472774  1.0000
  H   H21       1.0  0.8551026357282083  0.6768313406021133  0.3393911503489235  1.0000
  H   H22       1.0  0.644896900805925  0.1768314613021644  0.1606100943491029  1.0000
  H   H23       1.0  0.3551042769530284  0.3231698582662402  0.16060976528554247  1.0000
  H   H24       1.0  0.1448962935104419  0.8231695670196113  0.3393909738831766  1.0000
  H   H25       1.0  0.0999891819873326  0.3592452675426543  0.48537221041906514  1.0000
  H   H26       1.0  0.4000162243390122  0.8592492536999997  0.014627292636276898  1.0000
  H   H27       1.0  0.5999824036270524  0.640752548880968  0.0146268558182783  1.0000
  H   H28       1.0  0.9000154440371304  0.1407480122837228  0.4853722339930044  1.0000
  H   H29       1.0  0.900014612659888  0.6407514333950173  0.5146264348068996  1.0000
  H   H30       1.0  0.5999875703068156  0.1407482411048093  0.9853727089858423  1.0000
  H   H31       1.0  0.40001352352449976  0.35924494592065054  0.9853731458066973  1.0000
  H   H32       1.0  0.0999836301134565  0.8592494825176259  0.514627089433418  1.0000
  H   H33       1.0  0.8929162672743587  0.3262016131867469  0.40696953354910187  1.0000
  H   H34       1.0  0.6070837469026173  0.826204132848488  0.0930301745637578  1.0000
  H   H35       1.0  0.3929161474256658  0.6737972347664752  0.0930306764341466  1.0000
  H   H36       1.0  0.1070807983949393  0.1737944831967297  0.4069688865232805  1.0000
  H   H37       1.0  0.10708752738065638  0.6737974693383745  0.5930270770885856  1.0000
  H   H38       1.0  0.3929200477457543  0.1737949496843924  0.9069698270610047  1.0000
  H   H39       1.0  0.6070845002236637  0.32620184776667555  0.9069700033891763  1.0000
  H   H40       1.0  0.8929119817655432  0.8262030115958509  0.593027724115764  1.0000
  H   H41       1.0  0.7015646920007085  0.4692647793053836  0.4996936702828307  1.0000
  H   H42       1.0  0.7984373531443438  0.9692678236285768  0.0003058366079998  1.0000
  H   H43       1.0  0.2015644779246983  0.5307347072584034  0.0003046440195219999  1.0000
  H   H44       1.0  0.2984367309218641  0.030730947675770896  0.4996964765538152  1.0000
  H   H45       1.0  0.2984359556538791  0.5307350970871453  0.5003049749495716  1.0000
  H   H46       1.0  0.20156172100226402  0.030729671177425588  0.9996955214106646  1.0000
  H   H47       1.0  0.7984361697298823  0.46926516913413235  0.9996940012128803  1.0000
  H   H48       1.0  0.7015623432208143  0.9692657532692974  0.5003062378583536  1.0000
  H   H49       1.0  0.9111262632257179  0.47294222867832747  0.5810264253551694  1.0000
  H   H50       1.0  0.5888754084835952  0.9729446378698795  0.9189738259773462  1.0000
  H   H51       1.0  0.41112597080199714  0.5270549535184442  0.9189738253904736  1.0000
  H   H52       1.0  0.08887484109222749  0.027054664467939898  0.581026658707529  1.0000
  H   H53       1.0  0.0888759579239746  0.5270544722571557  0.4189715416739475  1.0000
  H   H54       1.0  0.4111220921666998  0.027054444663548293  0.08102753204453711  1.0000
  H   H55       1.0  0.5888746768434672  0.47294254128819785  0.0810275326276226  1.0000
  H   H56       1.0  0.9111242330634399  0.9729460057895379  0.41897266472418687  1.0000
  H   H57       1.0  0.6794124726118299  0.40018238628728386  0.6998486098884554  1.0000
  H   H58       1.0  0.8205889664306908  0.9001820579658497  0.8001520770543349  1.0000
  H   H59       1.0  0.17941287832868366  0.5998185772326463  0.8001511308767134  1.0000
  H   H60       1.0  0.3205881662398795  0.0998190200986002  0.6998495958176889  1.0000
  H   H61       1.0  0.32059132204300783  0.5998190778345956  0.30015003534545304  1.0000
  H   H62       1.0  0.1794101077209902  0.09981861229628917  0.1998492809696231  1.0000
  H   H63       1.0  0.8205893428220391  0.4001820930292154  0.1998495489486842  1.0000
  H   H64       1.0  0.6794093344168743  0.9001824440238266  0.3001504058133334  1.0000
  H   H65       1.0  0.5670916889750188  0.5190681319090797  0.651281097353177  1.0000
  H   H66       1.0  0.9329116783921024  0.0190685535042476  0.8487189971456104  1.0000
  H   H67       1.0  0.06708995077845968  0.4809327404810517  0.8487187249510484  1.0000
  H   H68       1.0  0.4329091654681037  0.9809334095524772  0.6512819159912695  1.0000
  H   H69       1.0  0.4329121056798755  0.48093253834721134  0.3487168696819865  1.0000
  H   H70       1.0  0.06708739576079378  0.9809337044875047  0.1512830390784146  1.0000
  H   H71       1.0  0.9329091233771507  0.5190687236420146  0.15128127667940558  1.0000
  H   H72       1.0  0.5670883351885934  0.019068848435537696  0.348718763838491  1.0000
  H   H73       1.0  0.4106970571038531  0.31638530577561846  0.41439459751754265  1.0000
  H   H74       1.0  0.08930349166421793  0.8163853954344448  0.0856067972294099  1.0000
  H   H75       1.0  0.9106964317462314  0.6836159381970998  0.08560627775946729  1.0000
  H   H76       1.0  0.5893031264820293  0.18361479391893445  0.41439431135900406  1.0000
  H   H77       1.0  0.589303590549342  0.6836153644840549  0.5856054041110141  1.0000
  H   H78       1.0  0.910697155986327  0.18361527482832674  0.9143945607939727  1.0000
  H   H79       1.0  0.08930264240672868  0.3163855259290713  0.9143950802658125  1.0000
  H   H80       1.0  0.41069594766971557  0.8163850824776088  0.585606368466216  1.0000
  H   H81       1.0  0.3697058464632974  0.20442563191064514  0.3188899875654414  1.0000
  H   H82       1.0  0.1302927707992652  0.7044261920035237  0.1811103557099614  1.0000
  H   H83       1.0  0.8697067784857708  0.795575578805405  0.18111091746821725  1.0000
  H   H84       1.0  0.6302931377504065  0.29557482446991656  0.3188907231237009  1.0000
  H   H85       1.0  0.6302932276910411  0.7955750383483817  0.681110014063691  1.0000
  H   H86       1.0  0.8697063033550164  0.29557527212109136  0.8188903241179017  1.0000
  H   H87       1.0  0.1302938691660387  0.20442588532140593  0.8188904405564941  1.0000
  H   H88       1.0  0.3697059364026033  0.7044258457906667  0.6811099567028405  1.0000
  C   C1        1.0  0.27501381534447933  0.37334799199891205  0.6831826886614962  1.0000
  C   C2        1.0  0.22498810387766346  0.8733476624037236  0.8168182717860119  1.0000
  C   C3        1.0  0.7750121020931929  0.6266522552216569  0.8168176608995807  1.0000
  C   C4        1.0  0.7249853152981058  0.12665333809322019  0.6831821140925101  1.0000
  C   C5        1.0  0.7249884058075792  0.6266526782613935  0.3168173129664851  1.0000
  C   C6        1.0  0.7750141172730026  0.12665380172372653  0.18318308623813098  1.0000
  C   C7        1.0  0.2249885455587375  0.37334762117397685  0.18318234072764739  1.0000
  C   C8        1.0  0.27501218535864774  0.8733481260292065  0.3168178875385124  1.0000
  C   C9        1.0  0.9641216506619158  0.30695535383301825  0.4731235642791987  1.0000
  C   C10       1.0  0.535876728470079  0.8069567190351918  0.026876757862361  1.0000
  C   C11       1.0  0.4641234250059583  0.6930443457574282  0.0268772722111876  1.0000
  C   C12       1.0  0.035878302855955696  0.19304183924121074  0.4731230331125573  1.0000
  C   C13       1.0  0.0358758499962875  0.6930445225566825  0.5268744027569312  1.0000
  C   C14       1.0  0.46412234568039423  0.19304236349732656  0.9731239219615302  1.0000
  C   C15       1.0  0.5358803696410847  0.30695473677700136  0.9731234076109984  1.0000
  C   C16       1.0  0.9641223447987458  0.8069564494201414  0.5268742557223689  1.0000
  C   C17       1.0  0.7660433464371367  0.430822080078812  0.5610738398489447  1.0000
  C   C18       1.0  0.7339597640842684  0.9308239044511094  0.938926271052722  1.0000
  C   C19       1.0  0.26604153704348477  0.5691773659981507  0.9389258380254615  1.0000
  C   C20       1.0  0.23395940954130623  0.06917551559925529  0.5610747865067864  1.0000
  C   C21       1.0  0.2339573012175649  0.5691762085825472  0.43892344898598173  1.0000
  C   C22       1.0  0.26604088356240396  0.0691751780851462  0.0610757651654339  1.0000
  C   C23       1.0  0.7339575371082603  0.43082251039839997  0.0610748417997584  1.0000
  C   C24       1.0  0.7660412381119527  0.9308243607948228  0.4389245369230323  1.0000
  C   C25       1.0  0.6104713715759544  0.4356187194796419  0.6379767438044865  1.0000
  C   C26       1.0  0.8895286072827986  0.9356195241791808  0.8620240612861138  1.0000
  C   C27       1.0  0.11047142160333578  0.5643821881063358  0.8620230470079946  1.0000
  C   C28       1.0  0.3895279361499036  0.0643824036850802  0.6379789179358895  1.0000
  C   C29       1.0  0.38952770257977676  0.5643811569122474  0.36202190142848417  1.0000
  C   C30       1.0  0.1104704668688257  0.06438193994853948  0.1379779749365824  1.0000
  C   C31       1.0  0.8895292260498593  0.4356184821533302  0.1379769546205623  1.0000
  C   C32       1.0  0.6104711380029925  0.9356198543066796  0.3620231182881284  1.0000
  O   O1        1.0  0.8102962873519175  0.32140933545485945  0.54370568379084  1.0000
  O   O2        1.0  0.6897048998049087  0.821410409561913  0.956294062326158  1.0000
  O   O3        1.0  0.3102947597885048  0.678590940388318  0.9562932837623419  1.0000
  O   O4        1.0  0.1897049631710601  0.17858897457723089  0.5437043145699647  1.0000
  O   O5        1.0  0.18969806631520916  0.6785905409258033  0.4562888922593515  1.0000
  O   O6        1.0  0.31029574784442104  0.17858867297123737  0.0437066174971648  1.0000
  O   O7        1.0  0.6897043143671624  0.3214097298691596  0.0437060396693738  1.0000
  O   O8        1.0  0.8103019784883044  0.8214101079414033  0.4562889050795106  1.0000
  O   O9        1.0  0.42819879263105787  0.3756485091353736  0.6119759774928893  1.0000
  O   O10       1.0  0.0718015604488116  0.8756483812104747  0.8880249906254889  1.0000
  O   O11       1.0  0.9281999400789545  0.6243526562335616  0.8880242608652011  1.0000
  O   O12       1.0  0.5717990434546109  0.12435170113811009  0.6119755064560194  1.0000
  O   O13       1.0  0.5718018550234659  0.6243521611227435  0.38802334593825083  1.0000
  O   O14       1.0  0.9281990872017332  0.12435228905230389  0.1119763673978937  1.0000
  O   O15       1.0  0.0718022810717756  0.3756480140283002  0.1119764189602037  1.0000
  O   O16       1.0  0.428198457200871  0.8756489691202843  0.3880244951736742  1.0000
