data_image0
_chemical_formula_structural       Na2H32C26S2N2O8
_chemical_formula_sum              "Na2 H32 C26 S2 N2 O8"
_cell_length_a       4.706303877004846
_cell_length_b       10.985238959788736
_cell_length_c       15.414966251165447
_cell_angle_alpha    110.42122057347598
_cell_angle_beta     90.00015893280565
_cell_angle_gamma    89.99991696441073

_space_group_name_H-M_alt    "P 1"
_space_group_IT_number       1

loop_
  _space_group_symop_operation_xyz
  'x, y, z'

loop_
  _atom_site_type_symbol
  _atom_site_label
  _atom_site_symmetry_multiplicity
  _atom_site_fract_x
  _atom_site_fract_y
  _atom_site_fract_z
  _atom_site_occupancy
  Na  Na1       1.0  0.38178095600141393  0.3733122326802842  0.9565564218634961  1.0000
  Na  Na2       1.0  0.8817845462354156  0.6266861481703145  0.043443959967582664  1.0000
  H   H1        1.0  0.9824551549234356  0.60226162464361  0.34253054398256916  1.0000
  H   H2        1.0  0.48245306226750967  0.3977396459510843  0.6574706361530502  1.0000
  H   H3        1.0  0.7685822770239951  0.4216110216214873  0.2396358876498681  1.0000
  H   H4        1.0  0.2685783801688472  0.5783873865722738  0.7603644034785474  1.0000
  H   H5        1.0  0.793881417153514  0.0187178803424715  0.34912994881702986  1.0000
  H   H6        1.0  0.2938752079528441  0.9812834254031912  0.6508691314898201  1.0000
  H   H7        1.0  0.15288281235714146  0.8124592400667794  0.44274982864268253  1.0000
  H   H8        1.0  0.6528669482043482  0.18754211360125342  0.5572517369977561  1.0000
  H   H9        1.0  0.45077832973248627  0.0079578359388393  0.46930486112147907  1.0000
  H   H10       1.0  0.9507638133976286  0.9920414926696138  0.5306945160443134  1.0000
  H   H11       1.0  0.3818991813913683  0.35346375013045866  0.30228881694078064  1.0000
  H   H12       1.0  0.8819021747288855  0.6465326983827068  0.6977130352902917  1.0000
  H   H13       1.0  0.33136074621865663  0.1847241145925693  0.2761873910347887  1.0000
  H   H14       1.0  0.8313697882042064  0.8152742888340323  0.7238148991333373  1.0000
  H   H15       1.0  0.910553643983924  0.1921735011178356  0.17332976220531288  1.0000
  H   H16       1.0  0.41055382898432674  0.8078258302727689  0.8266682835808155  1.0000
  H   H17       1.0  0.24458494253799049  0.2353808784997043  0.1378892711516926  1.0000
  H   H18       1.0  0.7445805137663013  0.764619474731468  0.8621108295991176  1.0000
  H   H19       1.0  0.352182315687429  0.4089375632710457  0.48463027901907907  1.0000
  H   H20       1.0  0.8522029875381774  0.5910685886227469  0.5153706936601594  1.0000
  H   H21       1.0  0.33902565083105424  0.23546359741521167  0.4553726648953144  1.0000
  H   H22       1.0  0.8390247613042658  0.764541575907522  0.5446261092857866  1.0000
  H   H23       1.0  0.08394667927803569  0.336258861537317  0.5330676187868661  1.0000
  H   H24       1.0  0.583956053769697  0.6637395877861251  0.46693187483096193  1.0000
  H   H25       1.0  0.18313475800727017  0.9563365880748048  0.2510140100939536  1.0000
  H   H26       1.0  0.6831317068328671  0.04366086247250679  0.7489846742006563  1.0000
  H   H27       1.0  0.8977159556220113  0.0188202095728016  0.20123112598542994  1.0000
  H   H28       1.0  0.39771531726604076  0.9811781570312661  0.7987673198780526  1.0000
  H   H29       1.0  0.15696724860423217  0.9116079178317096  0.12731919700464536  1.0000
  H   H30       1.0  0.656967278815358  0.0883895459678286  0.8726807654804672  1.0000
  H   H31       1.0  0.30192474289284377  0.502862667234183  0.1668895335134479  1.0000
  H   H32       1.0  0.8019209410596557  0.4971396148539211  0.8331110916089414  1.0000
  C   C1        1.0  0.14373730459416825  0.600550782089577  0.2909485089307039  1.0000
  C   C2        1.0  0.6437369679680812  0.39944959550006587  0.7090515110182735  1.0000
  C   C3        1.0  0.9455957488334261  0.39222708595305994  0.1901326308988871  1.0000
  C   C4        1.0  0.44559432157941364  0.6077741970106842  0.8098691692815619  1.0000
  C   C5        1.0  0.6668842249078891  0.931073497762391  0.33640944851147475  1.0000
  C   C6        1.0  0.16687265193938564  0.0689278421251274  0.663590179615511  1.0000
  C   C7        1.0  0.6937458751564093  0.8271233769944215  0.25449661965187426  1.0000
  C   C8        1.0  0.19374106387995474  0.1728760102310432  0.7455019019944158  1.0000
  C   C9        1.0  0.3292904548240188  0.7078973682350735  0.3074585775946517  1.0000
  C   C10       1.0  0.8292797022419832  0.2921019862513674  0.6925400526534202  1.0000
  C   C11       1.0  0.8269502260275557  0.3676499894436773  0.09137340748794999  1.0000
  C   C12       1.0  0.3269538490113674  0.6323503542898834  0.90862870799441  1.0000
  C   C13       1.0  0.5284825423394179  0.7095456389835277  0.23639786518082673  1.0000
  C   C14       1.0  0.028477503273123296  0.2904528237385833  0.763601583990976  1.0000
  C   C15       1.0  0.30633845292650347  0.8167281152632384  0.3908574955858056  1.0000
  C   C16       1.0  0.8063188167427595  0.1832712551662112  0.6091430650022857  1.0000
  C   C17       1.0  0.4714402984154873  0.9252767378228558  0.4052062118036304  1.0000
  C   C18       1.0  0.971427268026616  0.0747254894571157  0.5947919508266182  1.0000
  C   C19       1.0  0.22090664518226788  0.2759516304252188  0.28318630424739405  1.0000
  C   C20       1.0  0.720911677193925  0.724047764102657  0.716814837476839  1.0000
  C   C21       1.0  0.0800462472595385  0.265555373058639  0.19192783779182318  1.0000
  C   C22       1.0  0.5800456854311945  0.7344440485616203  0.8080718919109344  1.0000
  C   C23       1.0  0.21191308511775017  0.324423591385127  0.47119500221653243  1.0000
  C   C24       1.0  0.7119250978009929  0.6755796837961867  0.5288057900050731  1.0000
  C   C25       1.0  0.03683500962832649  0.9347729398493667  0.19196057395021873  1.0000
  C   C26       1.0  0.5368324144387484  0.06522746356197469  0.8080393603431232  1.0000
  S   S1        1.0  0.967681994793814  0.3099589044168241  0.37778934701080397  1.0000
  S   S2        1.0  0.4676934927530282  0.6900404201055393  0.6222100437093587  1.0000
  N   N1        1.0  0.14934238272753217  0.49787726668974824  0.21484994392684334  1.0000
  N   N2        1.0  0.6493445104770004  0.5021231095457352  0.7851500805141497  1.0000
  O   O1        1.0  0.9642359955637827  0.41525695454358663  0.04000654284120491  1.0000
  O   O2        1.0  0.4642402349772183  0.5847404281050146  0.9599923666867554  1.0000
  O   O3        1.0  0.8708335754330746  0.8217660436215867  0.1825812237408684  1.0000
  O   O4        1.0  0.3708336383064149  0.17823232600961347  0.817416551005671  1.0000
  O   O5        1.0  0.5585802896037818  0.6138873031853718  0.16022153108418277  1.0000
  O   O6        1.0  0.0585777388367106  0.38611211668802525  0.8397768822625267  1.0000
  O   O7        1.0  0.6045782849333249  0.2997428631973804  0.06959114990642949  1.0000
  O   O8        1.0  0.10458612715702027  0.7002575377139095  0.9304114369815365  1.0000
