data_image0
_chemical_formula_structural       Cu2H40C36N8O8
_chemical_formula_sum              "Cu2 H40 C36 N8 O8"
_cell_length_a       8.294583195217124
_cell_length_b       10.202767997892181
_cell_length_c       10.816451959657844
_cell_angle_alpha    85.29126719832622
_cell_angle_beta     89.94294725536211
_cell_angle_gamma    85.91274931670054

_space_group_name_H-M_alt    "P 1"
_space_group_IT_number       1

loop_
  _space_group_symop_operation_xyz
  'x, y, z'

loop_
  _atom_site_type_symbol
  _atom_site_label
  _atom_site_symmetry_multiplicity
  _atom_site_fract_x
  _atom_site_fract_y
  _atom_site_fract_z
  _atom_site_occupancy
  Cu  Cu1       1.0  0.03428323024212428  0.5090201912317343  0.9987490739926699  1.0000
  Cu  Cu2       1.0  0.5327736560600158  0.0069434597555187  0.4993832682008302  1.0000
  H   H1        1.0  0.8155688835561605  0.07400855657908778  0.07912064254438177  1.0000
  H   H2        1.0  0.8347869088290947  0.1259941914260096  0.9171580822312465  1.0000
  H   H3        1.0  0.6701259689624094  0.18922077002490315  0.00040592813516579713  1.0000
  H   H4        1.0  0.2892827733345697  0.8662342931924134  0.07894603069703976  1.0000
  H   H5        1.0  0.1863031127158407  0.9569329752043033  0.9490220301257535  1.0000
  H   H6        1.0  0.37057142823434214  0.8645320319186213  0.9268541655519511  1.0000
  H   H7        1.0  0.388356067900183  0.5609538657948151  0.8984818751902353  1.0000
  H   H8        1.0  0.4175599997081818  0.179833888056443  0.7698444226638799  1.0000
  H   H9        1.0  0.1233817019386834  0.22392377561493498  0.8906809963380835  1.0000
  H   H10       1.0  0.670421693728251  0.30710040500311214  0.7587626678432923  1.0000
  H   H11       1.0  0.6633796279195676  0.4694226047565309  0.8060840625292656  1.0000
  H   H12       1.0  0.5764851212862181  0.6607059927911366  0.6603418301684271  1.0000
  H   H13       1.0  0.5169595570902101  0.7489965843285589  0.44505378377636606  1.0000
  H   H14       1.0  0.4905088426448643  0.35329214999075736  0.3373250069814802  1.0000
  H   H15       1.0  0.5489683660775171  0.26505359679306645  0.5528013304195055  1.0000
  H   H16       1.0  0.4062564620694855  0.5442913687461087  0.19088156963311315  1.0000
  H   H17       1.0  0.3964526460183322  0.7064499924363618  0.23876772867158988  1.0000
  H   H18       1.0  0.6810108042508672  0.4555117465914974  0.09894396752617499  1.0000
  H   H19       1.0  0.9445122242689054  0.793017995531244  0.11026612029768756  1.0000
  H   H20       1.0  0.6496756333555495  0.8351217009127082  0.23050249362012207  1.0000
  H   H21       1.0  0.633211397170406  0.7741269239413385  0.8647482240944554  1.0000
  H   H22       1.0  0.680183243298593  0.9203677837695781  0.9346453096344263  1.0000
  H   H23       1.0  0.8283848097676482  0.8332192617228316  0.8481135223337188  1.0000
  H   H24       1.0  0.3657462419507808  0.0935827706202517  0.0662229371620242  1.0000
  H   H25       1.0  0.43641102889549177  0.2356450905143816  0.13060527935854077  1.0000
  H   H26       1.0  0.2363813709241356  0.1907044984778139  0.1591400144896511  1.0000
  H   H27       1.0  0.8229973906397204  0.7837485734005227  0.5404592118012416  1.0000
  H   H28       1.0  0.08121349905415087  0.003878192478090601  0.2678060494032408  1.0000
  H   H29       1.0  0.777019434388535  0.13102499448131513  0.298449915437473  1.0000
  H   H30       1.0  0.19475124001674252  0.7736550579657404  0.33524291574885007  1.0000
  H   H31       1.0  0.21232463746947156  0.8041411020781267  0.49292631641348084  1.0000
  H   H32       1.0  0.06174433654658169  0.5795330627483394  0.2752666353331676  1.0000
  H   H33       1.0  0.971360110416441  0.3579356205875328  0.33618674887973293  1.0000
  H   H34       1.0  0.004295551020852891  0.43483500928900304  0.7216729165380258  1.0000
  H   H35       1.0  0.09450284343037645  0.656496082730243  0.6607362110209678  1.0000
  H   H36       1.0  0.8703659080818581  0.24103896925355175  0.6613895991685794  1.0000
  H   H37       1.0  0.8533439909994982  0.21038009915782402  0.5037136934171969  1.0000
  H   H38       1.0  0.24471880177188854  0.23148372610683762  0.45894292139211496  1.0000
  H   H39       1.0  0.28584480129642736  0.8823721396334464  0.6986344870730645  1.0000
  H   H40       1.0  0.9812205859280924  0.009704786090289  0.7268230911445315  1.0000
  C   C1        1.0  0.8945312992072515  0.27080015225248383  0.042623895223719885  1.0000
  C   C2        1.0  0.7992735245359199  0.157242011583854  0.008653641296469096  1.0000
  C   C3        1.0  0.16687404513508136  0.7476982203772097  0.952645125016893  1.0000
  C   C4        1.0  0.25795963042276776  0.8658591036099851  0.9805714352182021  1.0000
  C   C5        1.0  0.3541496634603831  0.46375443401746713  0.88115288471419  1.0000
  C   C6        1.0  0.36450312866428897  0.26417385090876877  0.8140327125135869  1.0000
  C   C7        1.0  0.22125234964894244  0.28762108257674157  0.8746064910713469  1.0000
  C   C8        1.0  0.5984256457041893  0.40170694867642714  0.7540544807437255  1.0000
  C   C9        1.0  0.5667560330529041  0.4560927336794051  0.6216246681559453  1.0000
  C   C10       1.0  0.5577223038651693  0.5921460978894758  0.5903392103332763  1.0000
  C   C11       1.0  0.524644394657166  0.6426444301113817  0.4686510748319889  1.0000
  C   C12       1.0  0.5002501732539814  0.5579330718781605  0.3760945082725654  1.0000
  C   C13       1.0  0.5090737070004394  0.4218423340774463  0.4073686723068731  1.0000
  C   C14       1.0  0.5418093735571288  0.3713876749798644  0.5291541347495112  1.0000
  C   C15       1.0  0.46960723481594596  0.6124453783179504  0.2435382960469781  1.0000
  C   C16       1.0  0.7148588382655915  0.5525496016015553  0.11707430813152087  1.0000
  C   C17       1.0  0.8468779616436279  0.7288945034877727  0.1253990567545458  1.0000
  C   C18       1.0  0.7032904608504464  0.7513369801668334  0.18581419952263895  1.0000
  C   C19       1.0  0.648094033136253  0.94840610250084  0.7364023083419865  1.0000
  C   C20       1.0  0.6986340339873676  0.8640061003326097  0.8533232264855427  1.0000
  C   C21       1.0  0.41633033163331123  0.06543972662869631  0.26227259013843  1.0000
  C   C22       1.0  0.36212890249906576  0.1512862452117645  0.147164239196627  1.0000
  C   C23       1.0  0.8499895807782492  0.8617108621699856  0.47132763364141533  1.0000
  C   C24       1.0  0.9812615357245416  0.9783302100074995  0.3273718399096238  1.0000
  C   C25       1.0  0.8311729610040854  0.040240765098367604  0.344124920543365  1.0000
  C   C26       1.0  0.1315803535971867  0.7696406797553693  0.4241832186813069  1.0000
  C   C27       1.0  0.08344127034339266  0.6331630457040873  0.4630653828743974  1.0000
  C   C28       1.0  0.048634892156577784  0.5478774979941363  0.373261897909856  1.0000
  C   C29       1.0  0.9976212639588196  0.4229174252546529  0.40792345115178097  1.0000
  C   C30       1.0  0.9821210756371384  0.38142453652941555  0.5338017461831582  1.0000
  C   C31       1.0  0.01714383098516239  0.4665951755272459  0.6236349945885209  1.0000
  C   C32       1.0  0.06810850126090169  0.5915764608204981  0.5889958995122626  1.0000
  C   C33       1.0  0.9338377239744843  0.24499418834137296  0.5725835026321633  1.0000
  C   C34       1.0  0.21631083710762766  0.15311687722998357  0.5271938791492872  1.0000
  C   C35       1.0  0.2327564836572406  0.9736155205361356  0.6531470521982141  1.0000
  C   C36       1.0  0.0825747476045251  0.03567589234374681  0.668961308131763  1.0000
  N   N1        1.0  0.21598775878799606  0.4124046132696151  0.9165074962328317  1.0000
  N   N2        1.0  0.4470320987085257  0.37644433264631527  0.8195195824142587  1.0000
  N   N3        1.0  0.6213584751294263  0.6389652636352706  0.179172499065146  1.0000
  N   N4        1.0  0.8529110937404596  0.6045264902118533  0.08249073935527917  1.0000
  N   N5        1.0  0.7507988607250053  0.9665050786491916  0.43442398896852547  1.0000
  N   N6        1.0  0.9903527249266446  0.865600885125396  0.40790505816259776  1.0000
  N   N7        1.0  0.074949357242069  0.14900984910238438  0.5892549420872512  1.0000
  N   N8        1.0  0.31466605152163396  0.04779665845340021  0.5641817836519535  1.0000
  O   O1        1.0  0.8900532983919759  0.37035505835784494  0.9586734574081247  1.0000
  O   O2        1.0  0.9694283807685905  0.26647418121599026  0.14332543708299278  1.0000
  O   O3        1.0  0.17789961455704875  0.6492139272396288  0.03762462903701187  1.0000
  O   O4        1.0  0.08919715121005106  0.7479541866445417  0.853470077100212  1.0000
  O   O5        1.0  0.583045536429047  0.886666436384296  0.6510429015998155  1.0000
  O   O6        1.0  0.672350782359004  0.0688604299454099  0.7244748234974167  1.0000
  O   O7        1.0  0.48127144417522755  0.1269243399129891  0.34786312595679186  1.0000
  O   O8        1.0  0.39484314177908425  0.9444194909320487  0.27292991154393315  1.0000
