data_image0
_chemical_formula_structural       Cd2H32C44N4O8
_chemical_formula_sum              "Cd2 H32 C44 N4 O8"
_cell_length_a       8.60545289887927
_cell_length_b       10.347333059778357
_cell_length_c       11.931747295376795
_cell_angle_alpha    83.46556828303405
_cell_angle_beta     73.31624317528217
_cell_angle_gamma    68.90936783269751

_space_group_name_H-M_alt    "P 1"
_space_group_IT_number       1

loop_
  _space_group_symop_operation_xyz
  'x, y, z'

loop_
  _atom_site_type_symbol
  _atom_site_label
  _atom_site_symmetry_multiplicity
  _atom_site_fract_x
  _atom_site_fract_y
  _atom_site_fract_z
  _atom_site_occupancy
  Cd  Cd1       1.0  0.17857796668539555  0.3096202797842409  0.414440549613758  1.0000
  Cd  Cd2       1.0  0.8214254850028907  0.6903808921457967  0.5855613519111387  1.0000
  H   H1        1.0  0.271516565552588  0.0544165758672222  0.578387202461542  1.0000
  H   H2        1.0  0.7284881523878324  0.9455845251111586  0.4216085797236957  1.0000
  H   H3        1.0  0.3795948734871215  0.9736440854414997  0.7551099418456246  1.0000
  H   H4        1.0  0.620415185500768  0.026352796149389207  0.24488434174022436  1.0000
  H   H5        1.0  0.40145547133136  0.38178987640354484  0.7722523230042099  1.0000
  H   H6        1.0  0.5985418930936459  0.6182083290615239  0.2277511336334115  1.0000
  H   H7        1.0  0.284065311089897  0.4472587336011245  0.596451129694202  1.0000
  H   H8        1.0  0.7159328326700487  0.5527435674996043  0.4035517443999055  1.0000
  H   H9        1.0  0.4906187168037873  0.21427979503829425  0.9191550397970616  1.0000
  H   H10       1.0  0.5093795263134949  0.7857132354120254  0.08084625620650601  1.0000
  H   H11       1.0  0.43550241026914455  0.9356697617368893  0.9189707957454375  1.0000
  H   H12       1.0  0.5644851755624387  0.0643316803111915  0.08103014268567682  1.0000
  H   H13       1.0  0.5835466276940338  0.2361810447975331  0.4444662557473365  1.0000
  H   H14       1.0  0.4164682523049805  0.7638188742099744  0.555532592065461  1.0000
  H   H15       1.0  0.8474201823679123  0.2913194160583218  0.3384999291654367  1.0000
  H   H16       1.0  0.15258694601783412  0.7086877845991212  0.6614922146360912  1.0000
  H   H17       1.0  0.6432946065682542  0.3950345908083649  0.03517508222027025  1.0000
  H   H18       1.0  0.35669465800503974  0.6049626952324305  0.9648242643887103  1.0000
  H   H19       1.0  0.38559136507397795  0.3384952763321536  0.1559651968809561  1.0000
  H   H20       1.0  0.6144097900385291  0.6614874554345251  0.8440407549853503  1.0000
  H   H21       1.0  0.0247384801326902  0.3515309939821307  0.15887013621128426  1.0000
  H   H22       1.0  0.9752527513848362  0.6484765107649011  0.8411252379604905  1.0000
  H   H23       1.0  0.8167984020441923  0.5256011318751492  0.987018952555914  1.0000
  H   H24       1.0  0.18319283567564063  0.47440636607757386  0.012975582923054717  1.0000
  H   H25       1.0  0.10725816676437457  0.07905782393471131  0.11166464773069859  1.0000
  H   H26       1.0  0.892731384024337  0.9209477311233628  0.8883404918237262  1.0000
  H   H27       1.0  0.06736795327187634  0.8859763022399039  0.026099238710941098  1.0000
  H   H28       1.0  0.9326318237060603  0.11402494665895799  0.9739042469768223  1.0000
  H   H29       1.0  0.07845300767426976  0.6675782176440564  0.1415212445501979  1.0000
  H   H30       1.0  0.9215561685266278  0.33242078951062143  0.8584797057963698  1.0000
  H   H31       1.0  0.16268075266824394  0.8353638569210137  0.4230577067753032  1.0000
  H   H32       1.0  0.8373145474422968  0.1646395061844785  0.5769431268295548  1.0000
  C   C1        1.0  0.3013357810482518  0.12303476190245281  0.6253013839045066  1.0000
  C   C2        1.0  0.698666882995205  0.8769653774315036  0.37469827142286505  1.0000
  C   C3        1.0  0.3603756498345376  0.0798314829886451  0.7242882736375975  1.0000
  C   C4        1.0  0.6396327573284424  0.9201664711870238  0.27570791443302056  1.0000
  C   C5        1.0  0.395775369035796  0.1728065671128221  0.7823494054289526  1.0000
  C   C6        1.0  0.6042285509627872  0.8271904586128187  0.21764947537821666  1.0000
  C   C7        1.0  0.3718059023424728  0.30650216084756476  0.7330862743025293  1.0000
  C   C8        1.0  0.6281934973725997  0.6934970266448559  0.26691582527138275  1.0000
  C   C9        1.0  0.3091852135628272  0.34326644382136356  0.6347903463921867  1.0000
  C   C10       1.0  0.6908162090376988  0.6567337392870201  0.3652120735036277  1.0000
  C   C11       1.0  0.45446443336061987  0.1366310835332953  0.8878137957511711  1.0000
  C   C12       1.0  0.5455309537026592  0.8633630225103917  0.11218713714875851  1.0000
  C   C13       1.0  0.4695156009622963  0.015511315812581502  0.9486555112391173  1.0000
  C   C14       1.0  0.5304777114895031  0.9844849052148709  0.05134814344750536  1.0000
  C   C15       1.0  0.6012340432314147  0.2726082771041689  0.3537126939216507  1.0000
  C   C16       1.0  0.39877555575606755  0.7273896876515309  0.6462874391229717  1.0000
  C   C17       1.0  0.7487043906533372  0.30270949788684487  0.29426086615390556  1.0000
  C   C18       1.0  0.251298687866793  0.6972926620877118  0.7057351431304822  1.0000
  C   C19       1.0  0.7672141882812015  0.35210381898955484  0.17783239607486212  1.0000
  C   C20       1.0  0.23278401129947196  0.647898420962413  0.8221629297839855  1.0000
  C   C21       1.0  0.6344238776790548  0.362743019775472  0.12634550493407906  1.0000
  C   C22       1.0  0.3655719052539935  0.6372531272917358  0.8736542980012842  1.0000
  C   C23       1.0  0.4918561672336068  0.32981358757636775  0.19219303309142793  1.0000
  C   C24       1.0  0.5081482252904763  0.6701731794543379  0.8078101618657172  1.0000
  C   C25       1.0  0.916420945095787  0.39210691470226783  0.11918412102615149  1.0000
  C   C26       1.0  0.08357275070068937  0.6079005228788291  0.8808082400871625  1.0000
  C   C27       1.0  0.9259837692469332  0.47966050339537974  0.02562129974265303  1.0000
  C   C28       1.0  0.07400662289973772  0.5203490793552916  0.9743748703401921  1.0000
  C   C29       1.0  0.16373829033052087  0.08243873374474481  0.3225852004995104  1.0000
  C   C30       1.0  0.8362598472271185  0.9175635741502861  0.677418512287403  1.0000
  C   C31       1.0  0.13980054887462487  0.967652076799887  0.2713724754941325  1.0000
  C   C32       1.0  0.8601947388313108  0.03235129989421641  0.7286300354963373  1.0000
  C   C33       1.0  0.11065085076298677  0.9826242938297157  0.16007478941461534  1.0000
  C   C34       1.0  0.8893419912709175  0.017379129647395103  0.8399282185558902  1.0000
  C   C35       1.0  0.08983257527989238  0.8746963821860875  0.11265640208163323  1.0000
  C   C36       1.0  0.9101647560260063  0.125304913495782  0.887347580586166  1.0000
  C   C37       1.0  0.09775162897837925  0.7518335012737298  0.1761739397346815  1.0000
  C   C38       1.0  0.9022493646332633  0.24816773102793385  0.8238301361558699  1.0000
  C   C39       1.0  0.12458516091494685  0.7363636928979178  0.2882144441368908  1.0000
  C   C40       1.0  0.8754105371729607  0.26363865498582584  0.7117889269372598  1.0000
  C   C41       1.0  0.1447585755486925  0.8450309717457288  0.3354927278623165  1.0000
  C   C42       1.0  0.8552391640315805  0.15497235137105045  0.6645084474553116  1.0000
  C   C43       1.0  0.12545073420105973  0.6058610698541997  0.3576335337118621  1.0000
  C   C44       1.0  0.8745506946017727  0.3941391064598748  0.6423680474911393  1.0000
  N   N1        1.0  0.27420010256984995  0.25309159992782787  0.5813420031440728  1.0000
  N   N2        1.0  0.7258037843096187  0.7469085160146207  0.4186574036932812  1.0000
  N   N3        1.0  0.4731041647401214  0.2870023738391937  0.30483886079045414  1.0000
  N   N4        1.0  0.5269022299549064  0.7129884654356647  0.695163503133159  1.0000
  O   O1        1.0  0.16854817190905888  0.19060602486815986  0.2593343343736549  1.0000
  O   O2        1.0  0.8314483324305898  0.8093973352287449  0.7406687668196027  1.0000
  O   O3        1.0  0.17510277375884442  0.0708348124474369  0.42733406894105747  1.0000
  O   O4        1.0  0.8248986488416815  0.9291653706609396  0.57266835095475  1.0000
  O   O5        1.0  0.12749307420302364  0.5054635296078374  0.303250600338032  1.0000
  O   O6        1.0  0.8725206077691896  0.494536385613941  0.6967451411935528  1.0000
  O   O7        1.0  0.12304558419862131  0.6004924689548901  0.46563787832889864  1.0000
  O   O8        1.0  0.8769574840245011  0.39950664836300837  0.5343634757749527  1.0000
