data_image0
_chemical_formula_structural       Ag2H16C26S2N6
_chemical_formula_sum              "Ag2 H16 C26 S2 N6"
_cell_length_a       4.454565432099821
_cell_length_b       10.263205562040385
_cell_length_c       12.158622552878374
_cell_angle_alpha    99.66503803630239
_cell_angle_beta     89.99932865359025
_cell_angle_gamma    90.00049590674278

_space_group_name_H-M_alt    "P 1"
_space_group_IT_number       1

loop_
  _space_group_symop_operation_xyz
  'x, y, z'

loop_
  _atom_site_type_symbol
  _atom_site_label
  _atom_site_symmetry_multiplicity
  _atom_site_fract_x
  _atom_site_fract_y
  _atom_site_fract_z
  _atom_site_occupancy
  Ag  Ag1       1.0  0.0693759346996714  0.8353121431056677  0.5269209008549325  1.0000
  Ag  Ag2       1.0  0.5693739143077963  0.1646987841373218  0.47308476121860105  1.0000
  H   H1        1.0  0.4667925738669396  0.8884478907445942  0.998844273327876  1.0000
  H   H2        1.0  0.9668002410774649  0.11155430672064882  0.001156892620414905  1.0000
  H   H3        1.0  0.3330200521389343  0.05030839337047872  0.8704417942491885  1.0000
  H   H4        1.0  0.8330225341507785  0.9496913974291489  0.12955632404668896  1.0000
  H   H5        1.0  0.5798841487291497  0.027113359064600197  0.6854581224802699  1.0000
  H   H6        1.0  0.07986438157237791  0.9728837177589755  0.31454152385685313  1.0000
  H   H7        1.0  0.549647126210111  0.579399008852178  0.5136299898530083  1.0000
  H   H8        1.0  0.0496488181550632  0.42059493363119316  0.4863619610987726  1.0000
  H   H9        1.0  0.4912308290443407  0.4129504053615919  0.8155750192876852  1.0000
  H   H10       1.0  0.991228705576411  0.587051828476021  0.1844227583072282  1.0000
  H   H11       1.0  0.7126830451767959  0.40821395808009703  0.6266228699722447  1.0000
  H   H12       1.0  0.21268286538361988  0.591790437539359  0.37337801988270763  1.0000
  H   H13       1.0  0.1463810627947169  0.5227850691712349  0.9654528011396764  1.0000
  H   H14       1.0  0.6463838097982874  0.4772121680487091  0.03454329568228333  1.0000
  H   H15       1.0  0.7741403999392986  0.6997765621236667  0.03341809380756902  1.0000
  H   H16       1.0  0.2741353675170757  0.300221096243611  0.9665816321206151  1.0000
  C   C1        1.0  0.571410111296288  0.8836775980859745  0.9171444698403873  1.0000
  C   C2        1.0  0.0714119643053266  0.11632143938957279  0.0828562979000367  1.0000
  C   C3        1.0  0.9116780031229864  0.7776549883936283  0.7732528476412597  1.0000
  C   C4        1.0  0.41167061237585756  0.22234802601890646  0.2267478384009252  1.0000
  C   C5        1.0  0.5431561381890049  0.7997179768319285  0.29743051746095256  1.0000
  C   C6        1.0  0.0431912927275704  0.2002779945536162  0.7025683131139573  1.0000
  C   C7        1.0  0.21058133324982006  0.5836058809301008  0.8046989169466485  1.0000
  C   C8        1.0  0.7105754125354549  0.4163945194626422  0.1952981556150988  1.0000
  C   C9        1.0  0.1284137692736635  0.6749925809427496  0.7338404595725194  1.0000
  C   C10       1.0  0.6284059584677523  0.3250115127899137  0.2661558109318207  1.0000
  C   C11       1.0  0.7854530045652552  0.7838359138369029  0.8815293059438715  1.0000
  C   C12       1.0  0.2854512328243359  0.2161667552476771  0.1184743346486457  1.0000
  C   C13       1.0  0.4963745050677347  0.971679684636271  0.8473327953712724  1.0000
  C   C14       1.0  0.9963755955793873  0.028320623331431698  0.1526679919852043  1.0000
  C   C15       1.0  0.6347913706045959  0.9587201195842002  0.7421956801310542  1.0000
  C   C16       1.0  0.13478829975967702  0.0412781341948119  0.2578063595805204  1.0000
  C   C17       1.0  0.4528664142926998  0.5771950609909169  0.5958067970732372  1.0000
  C   C18       1.0  0.9528673419683499  0.4228001057114597  0.4041869041686111  1.0000
  C   C19       1.0  0.423793710429031  0.48535030191082745  0.7643542564093693  1.0000
  C   C20       1.0  0.9237952045919046  0.5146497208111358  0.23564021942761568  1.0000
  C   C21       1.0  0.5464156403569405  0.4824214972449994  0.6595682031041932  1.0000
  C   C22       1.0  0.046415026874683483  0.5175784014191079  0.3404278508791733  1.0000
  C   C23       1.0  0.07942660247682909  0.5941923127761798  0.9131537646054824  1.0000
  C   C24       1.0  0.5794239727547393  0.4058106660462287  0.0868442082624838  1.0000
  C   C25       1.0  0.8752464653899921  0.6907395881399838  0.9505346898886843  1.0000
  C   C26       1.0  0.3752420687008566  0.3092583504338222  0.049463001382996204  1.0000
  S   S1        1.0  0.5689842182431661  0.8576520498994712  0.4326556224737104  1.0000
  S   S2        1.0  0.06899563421946202  0.1423658302615323  0.5673542643713603  1.0000
  N   N1        1.0  0.8360070467306359  0.8655575300646421  0.7062810496521906  1.0000
  N   N2        1.0  0.3360046964387493  0.13444427295662115  0.2937197935801166  1.0000
  N   N3        1.0  0.5204951812070249  0.7620019495659776  0.2004449360355807  1.0000
  N   N4        1.0  0.0205032690111651  0.23798528270421568  0.7995733798435296  1.0000
  N   N5        1.0  0.24865157315480957  0.6693436152349436  0.6307653107337003  1.0000
  N   N6        1.0  0.7486495250458276  0.3306529083602001  0.36922779064328637  1.0000
