data_image0
_chemical_formula_structural       Gd2P8H40Ru4C8O40
_chemical_formula_sum              "Gd2 P8 H40 Ru4 C8 O40"
_cell_length_a       9.52330932401558
_cell_length_b       9.526207253281923
_cell_length_c       15.548
_cell_angle_alpha    92.95649720152963
_cell_angle_beta     92.95739765905601
_cell_angle_gamma    99.068436626817

_space_group_name_H-M_alt    "P 1"
_space_group_IT_number       1

loop_
  _space_group_symop_operation_xyz
  'x, y, z'

loop_
  _atom_site_type_symbol
  _atom_site_label
  _atom_site_symmetry_multiplicity
  _atom_site_fract_x
  _atom_site_fract_y
  _atom_site_fract_z
  _atom_site_occupancy
  Gd  Gd1       1.0  0.992623940684517  0.007381351859734799  0.7499532158759125  1.0000
  Gd  Gd2       1.0  0.007383414070346757  0.992615571529761  0.2500437034721373  1.0000
  P   P1        1.0  0.0589132688761538  0.3439394733603365  0.6403304390513542  1.0000
  P   P2        1.0  0.6560964016584664  0.9411367392983648  0.8596516935604371  1.0000
  P   P3        1.0  0.9410948192143495  0.6560489302174659  0.35966301838472964  1.0000
  P   P4        1.0  0.3439136436991816  0.058890003432075795  0.14035461435435084  1.0000
  P   P5        1.0  0.9967022264828529  0.6484950521708511  0.659177465326323  1.0000
  P   P6        1.0  0.3514820825140035  0.0033323113503272  0.8408113264909505  1.0000
  P   P7        1.0  0.00329498038476569  0.3514976113128014  0.3408222145616621  1.0000
  P   P8        1.0  0.6485284521604271  0.9967040161682731  0.15919079759381563  1.0000
  H   H1        1.0  0.82590549541802  0.4415200716653231  0.7217337842893417  1.0000
  H   H2        1.0  0.5584938657291119  0.1740629479166884  0.7782566545418562  1.0000
  H   H3        1.0  0.1740961855644585  0.5584480973596939  0.2782491836874144  1.0000
  H   H4        1.0  0.4415174265549453  0.825958469931443  0.22174373597759003  1.0000
  H   H5        1.0  0.3932282976475108  0.5131418687033928  0.5374791560030163  1.0000
  H   H6        1.0  0.4868929614018285  0.6069833346494846  0.9625350642720536  1.0000
  H   H7        1.0  0.6067586144099195  0.48683908003917503  0.4625236873675434  1.0000
  H   H8        1.0  0.5131090389795858  0.3930391481751059  0.0374644230947112  1.0000
  H   H9        1.0  0.41424047485855203  0.6781802060791193  0.5467384858098755  1.0000
  H   H10       1.0  0.3217920717730607  0.5859330098969906  0.9532796270663584  1.0000
  H   H11       1.0  0.5857715009341149  0.3217996776869825  0.45326511595727237  1.0000
  H   H12       1.0  0.6782085104850212  0.41409373283345013  0.046728954478524494  1.0000
  H   H13       1.0  0.825814654321519  0.1438559555419232  0.6202976561262119  1.0000
  H   H14       1.0  0.8562342800707158  0.17417264049229428  0.8796565562354887  1.0000
  H   H15       1.0  0.1741825525460996  0.8561367079417295  0.37970202376177303  1.0000
  H   H16       1.0  0.14378446949779536  0.8258232179207425  0.12034905075483951  1.0000
  H   H17       1.0  0.7105899920737359  0.07623740502538108  0.6834255063860726  1.0000
  H   H18       1.0  0.9238050792492345  0.28934452000044075  0.8164985158281014  1.0000
  H   H19       1.0  0.2894119099326886  0.9237648432464239  0.3165759111079894  1.0000
  H   H20       1.0  0.0762007590073139  0.7106364287421201  0.18349656443457726  1.0000
  H   H21       1.0  0.12457335913497761  0.9040521289305019  0.9166268875293329  1.0000
  H   H22       1.0  0.09601214080232978  0.8753605980614907  0.5833466864878645  1.0000
  H   H23       1.0  0.8754238477326338  0.0959405345531508  0.08337407869773021  1.0000
  H   H24       1.0  0.9039807133203226  0.1246246105869204  0.4166519770934229  1.0000
  H   H25       1.0  0.9578106351028808  0.8870380649698716  0.9277326961856007  1.0000
  H   H26       1.0  0.1129966961900237  0.04204420575248239  0.5721345379959146  1.0000
  H   H27       1.0  0.042176960463159205  0.1129013496906666  0.0722379841079857  1.0000
  H   H28       1.0  0.8869599191286143  0.9579314181077692  0.42783502120129674  1.0000
  H   H29       1.0  0.1701688445376561  0.43647314821080124  0.8204249727757259  1.0000
  H   H30       1.0  0.5635128086307901  0.8299042077240131  0.6795788215086065  1.0000
  H   H31       1.0  0.8298215642801381  0.5635099304846847  0.17957033037289705  1.0000
  H   H32       1.0  0.43647278367829767  0.17010123547718337  0.32043054274323884  1.0000
  H   H33       1.0  0.143401575889051  0.6203541141328159  0.82624155651758  1.0000
  H   H34       1.0  0.37956787038688583  0.8566553514788352  0.6737622792533744  1.0000
  H   H35       1.0  0.8565832332573606  0.37962683460975194  0.17375671821107375  1.0000
  H   H36       1.0  0.6204258895473984  0.1433681963222142  0.3262492015790599  1.0000
  H   H37       1.0  0.2582939586994613  0.5594576950458929  0.7506292833516357  1.0000
  H   H38       1.0  0.4404888805968953  0.7418285243444558  0.7493934804311737  1.0000
  H   H39       1.0  0.7417095569011921  0.44053496843775963  0.24937509808849975  1.0000
  H   H40       1.0  0.559498252484481  0.2581865036449003  0.2506200944222173  1.0000
  Ru  Ru1       1.0  0.12143000518893392  0.5419335073598504  0.4974991656969224  1.0000
  Ru  Ru2       1.0  0.4580395133317481  0.8786290108240848  0.002495415015353289  1.0000
  Ru  Ru3       1.0  0.8785687667249534  0.4580623510531865  0.5024974487657019  1.0000
  Ru  Ru4       1.0  0.5419692608255104  0.1214094466474407  0.9975086502527476  1.0000
  C   C1        1.0  0.03431532171895668  0.49271668513423345  0.7169527853259086  1.0000
  C   C2        1.0  0.5072733913297611  0.9657238508819289  0.7830378482755549  1.0000
  C   C3        1.0  0.9656857728508259  0.5072674585377185  0.2830390301460285  1.0000
  C   C4        1.0  0.4927265061406417  0.0342986319426615  0.21696864750101955  1.0000
  C   C5        1.0  0.15955617623927046  0.5297895807610118  0.7833060936612101  1.0000
  C   C6        1.0  0.4701696534610917  0.8405188281230878  0.7166930588205248  1.0000
  C   C7        1.0  0.8404354795049258  0.4701881730521649  0.21669358280469456  1.0000
  C   C8        1.0  0.5298269427198434  0.1594961998662683  0.2833143833855303  1.0000
  O   O1        1.0  0.17915000958537064  0.39878895609470527  0.5805785008616697  1.0000
  O   O2        1.0  0.6012375103086497  0.8209403008414  0.919412326069619  1.0000
  O   O3        1.0  0.8208526500306803  0.601198382506638  0.4194134650325979  1.0000
  O   O4        1.0  0.3987812648129108  0.1790949617007342  0.08060095865289442  1.0000
  O   O5        1.0  0.9128813986444441  0.3055651764967067  0.5851422395311234  1.0000
  O   O6        1.0  0.6945147146227484  0.08710442484600378  0.9148604803181473  1.0000
  O   O7        1.0  0.08711932925751138  0.6944232270810886  0.41485098531202885  1.0000
  O   O8        1.0  0.3054856721644441  0.9129276427667462  0.08514311796747621  1.0000
  O   O9        1.0  0.0895646314755396  0.2210848536536432  0.6911843657077057  1.0000
  O   O10       1.0  0.7789282646549579  0.9104718070448357  0.8087618877816427  1.0000
  O   O11       1.0  0.9104367812141022  0.7789078098300095  0.3088096585646767  1.0000
  O   O12       1.0  0.2210711192246748  0.0895474808503707  0.19124449080015896  1.0000
  O   O13       1.0  0.1212178970336737  0.689614858354112  0.5980823621065243  1.0000
  O   O14       1.0  0.31031422687264154  0.8788579807634633  0.9019087903588814  1.0000
  O   O15       1.0  0.8787802143665076  0.3103703502942992  0.4019183971212002  1.0000
  O   O16       1.0  0.6896907081304137  0.12117621680221188  0.09810080749269191  1.0000
  O   O17       1.0  0.8546660944079535  0.5934847579906872  0.6044407280561828  1.0000
  O   O18       1.0  0.4064988359858718  0.1453107133893283  0.8955657386152538  1.0000
  O   O19       1.0  0.1453318215213315  0.4065057755400403  0.3955589069295159  1.0000
  O   O20       1.0  0.5935055854264206  0.8547202892469627  0.10443923985477002  1.0000
  O   O21       1.0  0.984323659296571  0.7675008469430294  0.7242179992858128  1.0000
  O   O22       1.0  0.23249962564165833  0.0157222475119383  0.7757474488780077  1.0000
  O   O23       1.0  0.015674452103610292  0.23248436170538156  0.2757834031114541  1.0000
  O   O24       1.0  0.7675074850943489  0.9842927804774176  0.22425903926460225  1.0000
  O   O25       1.0  0.9076618617454812  0.444263451032036  0.7630560189850828  1.0000
  O   O26       1.0  0.5557149581623265  0.0923419790872657  0.7369273408507981  1.0000
  O   O27       1.0  0.0923361512797101  0.5557015230635969  0.23692994796191166  1.0000
  O   O28       1.0  0.4442840833234741  0.9076751788550156  0.2630770300925392  1.0000
  O   O29       1.0  0.3809001033721557  0.5971599917618491  0.5058528458414672  1.0000
  O   O30       1.0  0.4028472881899532  0.6193083072469037  0.9941552566414915  1.0000
  O   O31       1.0  0.6191148313161322  0.402825216886562  0.49414587234910823  1.0000
  O   O32       1.0  0.5971604345117997  0.3807301502246219  0.005846845890431505  1.0000
  O   O33       1.0  0.7984384526943487  0.0609539278158806  0.6552575155801321  1.0000
  O   O34       1.0  0.9391222598958606  0.20153082083059098  0.8446673838875824  1.0000
  O   O35       1.0  0.20156014802262226  0.93904086562069  0.3447429188348039  1.0000
  O   O36       1.0  0.060898078992906286  0.7984618426530616  0.15533817236310202  1.0000
  O   O37       1.0  0.03716936730614148  0.9437246321015919  0.9021509170098414  1.0000
  O   O38       1.0  0.05635304460472667  0.9627642812933813  0.5977973441540244  1.0000
  O   O39       1.0  0.9628233156195877  0.05625951157036009  0.09785028018468724  1.0000
  O   O40       1.0  0.9436478787681324  0.03721879740210449  0.4022066524742416  1.0000
