data_image0
_chemical_formula_structural       Cd2H32C36N16O16
_chemical_formula_sum              "Cd2 H32 C36 N16 O16"
_cell_length_a       7.5055865908721895
_cell_length_b       11.378818425903894
_cell_length_c       13.6721
_cell_angle_alpha    114.93441155202663
_cell_angle_beta     91.75712978715691
_cell_angle_gamma    89.97339281667598

_space_group_name_H-M_alt    "P 1"
_space_group_IT_number       1

loop_
  _space_group_symop_operation_xyz
  'x, y, z'

loop_
  _atom_site_type_symbol
  _atom_site_label
  _atom_site_symmetry_multiplicity
  _atom_site_fract_x
  _atom_site_fract_y
  _atom_site_fract_z
  _atom_site_occupancy
  Cd  Cd1       1.0  0.5000035074568956  0.9999985983647051  0.5000009935159042  1.0000
  Cd  Cd2       1.0  1.0167989685993188e-06  0.5000002684343343  0.5000004038671692  1.0000
  H   H1        1.0  0.4570941665849446  0.0886458482122521  0.7431410651976762  1.0000
  H   H2        1.0  0.04469125247918981  0.3455596568515348  0.25526988992809413  1.0000
  H   H3        1.0  0.5429055378502099  0.9113537194044384  0.25685958267624215  1.0000
  H   H4        1.0  0.9553111178913267  0.6544399107651557  0.7447308028216214  1.0000
  H   H5        1.0  0.34311079024634233  0.2798715111995378  0.9029309919117665  1.0000
  H   H6        1.0  0.15757005558952386  0.37701866858834177  0.09658614083897994  1.0000
  H   H7        1.0  0.6568889325188181  0.7201290256691381  0.0970685335161222  1.0000
  H   H8        1.0  0.8424309634832952  0.6229799297763563  0.9034127262527322  1.0000
  H   H9        1.0  0.5307012034236109  0.309996832202458  0.5724248104428682  1.0000
  H   H10       1.0  0.9695222909853242  0.7394656028065614  0.42854136074563354  1.0000
  H   H11       1.0  0.4693010936268536  0.689998858406284  0.4275745207587038  1.0000
  H   H12       1.0  0.030473414546769096  0.2605339648101292  0.5714570255649889  1.0000
  H   H13       1.0  0.4357475443628046  0.5120209315751083  0.726691855216835  1.0000
  H   H14       1.0  0.0632834367690336  0.7872128941821899  0.27530984765434857  1.0000
  H   H15       1.0  0.5642534747100143  0.48797766678959686  0.2733070118748842  1.0000
  H   H16       1.0  0.9367136017307445  0.21278667343450056  0.724688561094176  1.0000
  H   H17       1.0  0.22207773205782638  0.9752225790771406  0.17380564557814895  1.0000
  H   H18       1.0  0.2765473546420907  0.7996755362289536  0.8278698485658254  1.0000
  H   H19       1.0  0.7779233236750257  0.024777957791535205  0.8261946337041693  1.0000
  H   H20       1.0  0.7234483508900027  0.20032403138773702  0.17213000057786593  1.0000
  H   H21       1.0  0.23695223637400883  0.19030293509581503  0.16726931669960982  1.0000
  H   H22       1.0  0.2637816190944307  0.021249880559437908  0.8340843791514416  1.0000
  H   H23       1.0  0.7630488193588363  0.8096976017728609  0.8327309625827086  1.0000
  H   H24       1.0  0.7362194366384145  0.978750656309238  0.16591516871434928  1.0000
  H   H25       1.0  0.3281680338130711  0.15848723862784914  0.3958640447612752  1.0000
  H   H26       1.0  0.17123792148073136  0.7623370419399862  0.6046808525982926  1.0000
  H   H27       1.0  0.6718356695251374  0.8415123289888342  0.6041395960924733  1.0000
  H   H28       1.0  0.8287618562744683  0.23766640268465275  0.3953204254072348  1.0000
  H   H29       1.0  0.21238334865530817  0.0375827457896492  0.3743343217094761  1.0000
  H   H30       1.0  0.28730095803616956  0.6633172897126018  0.6260934103069858  1.0000
  H   H31       1.0  0.7876216876505778  0.9624168218270341  0.6256693415821674  1.0000
  H   H32       1.0  0.7127001343566945  0.3366851856600448  0.3739075497494042  1.0000
  C   C1        1.0  0.4454255404847558  0.18409099911217203  0.7431259494088565  1.0000
  C   C2        1.0  0.0558539211734796  0.4415805434316411  0.25633846409184  1.0000
  C   C3        1.0  0.5545741639503916  0.8159085685045186  0.25687396704853444  1.0000
  C   C4        1.0  0.9441457832616678  0.5584190241850493  0.7436614523655507  1.0000
  C   C5        1.0  0.38521173809740367  0.2902589847424792  0.831323035791229  1.0000
  C   C6        1.0  0.11550680434373818  0.4595495060156338  0.1685207468629956  1.0000
  C   C7        1.0  0.6147879663377438  0.7097405828742042  0.16867614924962043  1.0000
  C   C8        1.0  0.8844955660267786  0.5404500616010566  0.8314792144701856  1.0000
  C   C9        1.0  0.4888917360181466  0.3074098986495812  0.6469991696005409  1.0000
  C   C10       1.0  0.0116224238029901  0.6617936255892973  0.353770604316246  1.0000
  C   C11       1.0  0.5111105976923511  0.6925877304631314  0.3530008423751028  1.0000
  C   C12       1.0  0.9883746146967878  0.3382059420273933  0.6462278044322716  1.0000
  C   C13       1.0  0.4352607204163377  0.4197413576642006  0.7329092412967598  1.0000
  C   C14       1.0  0.064603947034513  0.6882987904213707  0.2683075763143351  1.0000
  C   C15       1.0  0.5647389656887964  0.5802572407005044  0.2670888719405228  1.0000
  C   C16       1.0  0.9353904255298956  0.3117007771953197  0.7316900561418577  1.0000
  C   C17       1.0  0.3790631236626893  0.41080679284952754  0.826161676755291  1.0000
  C   C18       1.0  0.1209872815375732  0.5857509609619029  0.1745074481428405  1.0000
  C   C19       1.0  0.620936562442445  0.5891918055151777  0.17383716789851897  1.0000
  C   C20       1.0  0.8790110899298895  0.4142486066547875  0.8254902516270449  1.0000
  C   C21       1.0  0.3116428943550176  0.525270606235182  0.9182965127931411  1.0000
  C   C22       1.0  0.1876542731071282  0.6079507084684437  0.0826756947039017  1.0000
  C   C23       1.0  0.6883581430478143  0.4747289613815013  0.08170342610214484  1.0000
  C   C24       1.0  0.8123467642957038  0.3920488591482468  0.9173227813583154  1.0000
  C   C25       1.0  0.2490355275585472  0.7397263315910225  0.0008130493470802626  1.0000
  C   C26       1.0  0.7509641952066133  0.26027420527765344  0.9991864760808085  1.0000
  C   C27       1.0  0.24905351808769177  0.8696642529465565  0.0008333669042885972  1.0000
  C   C28       1.0  0.7509461863474625  0.13033531467013404  0.9991658181365608  1.0000
  C   C29       1.0  0.23455826146184927  0.9816341809700759  0.09711291549133007  1.0000
  C   C30       1.0  0.2642214390976463  0.8839064416411518  0.9044942400200215  1.0000
  C   C31       1.0  0.7654401283356266  0.0183663558985998  0.9028873189151979  1.0000
  C   C32       1.0  0.7357782836675142  0.11609409522752402  0.09550601682440171  1.0000
  C   C33       1.0  0.2398542293284152  0.1017103957428418  0.092672266205895  1.0000
  C   C34       1.0  0.2601745742901969  0.0084198920096625  0.9087578587028844  1.0000
  C   C35       1.0  0.7601454934367451  0.8982901411258342  0.9073279906385282  1.0000
  C   C36       1.0  0.7398264997726616  0.9915816141109987  0.09124202954993894  1.0000
  N   N1        1.0  0.49299876755228667  0.19182369146316355  0.6517276309999502  1.0000
  N   N2        1.0  0.008195166319147499  0.5410432438170005  0.34832601521037543  1.0000
  N   N3        1.0  0.507003566158204  0.8081739376495493  0.3482723809756935  1.0000
  N   N4        1.0  0.9918018905106436  0.45895729305167526  0.6516727339251815  1.0000
  N   N5        1.0  0.2498014752139639  0.5037173498038641  0.0003237626294492705  1.0000
  N   N6        1.0  0.7501982108911706  0.49628124856084105  0.9996743506078334  1.0000
  N   N7        1.0  0.31410482434585413  0.640932415076577  0.9141981278489981  1.0000
  N   N8        1.0  0.1843389123412607  0.7280419988896867  0.08725476310681307  1.0000
  N   N9        1.0  0.6858975826846886  0.35906909104408413  0.08580178284172044  1.0000
  N   N10       1.0  0.8156621067315581  0.2719565994750184  0.9127441039848989  1.0000
  N   N11       1.0  0.2503172127350766  0.1169625450077305  0.0006991153807050149  1.0000
  N   N12       1.0  0.7496838429977756  0.8830379918609453  0.9993011639016133  1.0000
  N   N13       1.0  0.8597379071914872  0.023563485052022805  0.40268494032050484  1.0000
  N   N14       1.0  0.6393506776854565  0.6203018865367228  0.5975479128515175  1.0000
  N   N15       1.0  0.14026185223369939  0.9764389903206236  0.5973159972979901  1.0000
  N   N16       1.0  0.3606476937820061  0.37969768107996776  0.4024527125845055  1.0000
  O   O1        1.0  0.3384377525629958  0.0652645825337501  0.37914358623662275  1.0000
  O   O2        1.0  0.1610869668026496  0.6861218504589317  0.6215504518819516  1.0000
  O   O3        1.0  0.6615672837428903  0.9347349850829404  0.6208593456384861  1.0000
  O   O4        1.0  0.8389141072602087  0.31387965566172943  0.3784501677874062  1.0000
  O   O5        1.0  0.7407285595104652  0.11255050996363992  0.43474288467842115  1.0000
  O   O6        1.0  0.7588837366161627  0.6760823383792669  0.5651003322274664  1.0000
  O   O7        1.0  0.2592739025101167  0.8874539039129844  0.5652565843403325  1.0000
  O   O8        1.0  0.24111730078666938  0.3239172292374235  0.43490106950088153  1.0000
  O   O9        1.0  0.8498501867786599  0.9316275632131337  0.43000756836877946  1.0000
  O   O10       1.0  0.6484424699663548  0.5008105630953353  0.5707233590935773  1.0000
  O   O11       1.0  0.1501455920734784  0.0683758814115052  0.5699936423230625  1.0000
  O   O12       1.0  0.35155590150110777  0.4991890045213553  0.42927726634243873  1.0000
  O   O13       1.0  0.9803530291314644  0.030975354995376802  0.34322180871464525  1.0000
  O   O14       1.0  0.5191686239367428  0.6887940781866463  0.6568807155856717  1.0000
  O   O15       1.0  0.0196493412390524  0.9690242126213138  0.6567796154516047  1.0000
  O   O16       1.0  0.4808324134660893  0.31120548943004434  0.34311995472614143  1.0000
