data_image0
_chemical_formula_structural       La2H18C16N2O18
_chemical_formula_sum              "La2 H18 C16 N2 O18"
_cell_length_a       7.872970517906415
_cell_length_b       7.659936605603896
_cell_length_c       9.753831790335042
_cell_angle_alpha    95.49870295569328
_cell_angle_beta     102.39949597127259
_cell_angle_gamma    99.2358491590696

_space_group_name_H-M_alt    "P 1"
_space_group_IT_number       1

loop_
  _space_group_symop_operation_xyz
  'x, y, z'

loop_
  _atom_site_type_symbol
  _atom_site_label
  _atom_site_symmetry_multiplicity
  _atom_site_fract_x
  _atom_site_fract_y
  _atom_site_fract_z
  _atom_site_occupancy
  La  La1       1.0  0.28113983508047363  0.28506108612017295  0.36105015389367867  1.0000
  La  La2       1.0  0.7188606382872748  0.7149349495257339  0.6389491914666434  1.0000
  H   H1        1.0  0.6682888430835731  0.239674251875762  0.5036191167719364  1.0000
  H   H2        1.0  0.3317122457377479  0.7603243738754629  0.49638263729327275  1.0000
  H   H3        1.0  0.5938974091478213  0.05053828229749511  0.4072237241398468  1.0000
  H   H4        1.0  0.40610164882455996  0.949463265746367  0.5927738875252544  1.0000
  H   H5        1.0  0.2497793867567069  0.9821258093104815  0.11193995798569736  1.0000
  H   H6        1.0  0.7502181731533426  0.017874150130836614  0.8880654587984933  1.0000
  H   H7        1.0  0.44979730293437825  0.012318052557631602  0.19544960299301545  1.0000
  H   H8        1.0  0.5502017993099102  0.9876833422717155  0.8045521036800947  1.0000
  H   H9        1.0  0.095933363191989  0.8992236801299072  0.26244677377771086  1.0000
  H   H10       1.0  0.9040635480605557  0.10077380411697591  0.7375531630455893  1.0000
  H   H11       1.0  0.07180024210306614  0.8990524524463198  0.4196194871967761  1.0000
  H   H12       1.0  0.9282007434061793  0.10095155791282912  0.5803827849737074  1.0000
  H   H13       1.0  0.0899527284646169  0.4116456415660039  0.7965077265849202  1.0000
  H   H14       1.0  0.9100512959503533  0.5883489837825521  0.20349000356041802  1.0000
  H   H15       1.0  0.3243839122362929  0.6828378171775072  0.8030856002433564  1.0000
  H   H16       1.0  0.675613866856736  0.31716374374550327  0.19691283087725955  1.0000
  H   H17       1.0  0.5298695657851127  0.8141608185157947  0.035925059555268014  1.0000
  H   H18       1.0  0.470126842184463  0.18584610159065562  0.9640757328781357  1.0000
  C   C1        1.0  0.03251994577621531  0.2490153210557366  0.026834376385181696  1.0000
  C   C2        1.0  0.9674776621060275  0.7509794452957975  0.9731654035337269  1.0000
  C   C3        1.0  0.17661265962509987  0.4009094620184399  0.018661829408706917  1.0000
  C   C4        1.0  0.82338811040146  0.5990879069837477  0.9813376965520532  1.0000
  C   C5        1.0  0.1858121542107227  0.47238278894818114  0.8936735186928358  1.0000
  C   C6        1.0  0.8141911735745491  0.5276145542957237  0.10632436835689411  1.0000
  C   C7        1.0  0.3140065593161622  0.6228470578013087  0.8985555870588227  1.0000
  C   C8        1.0  0.6859921097533073  0.3771585031905644  0.10144338586311356  1.0000
  C   C9        1.0  0.4276254674079567  0.697349588341332  0.028214291901896622  1.0000
  C   C10       1.0  0.572373212729495  0.3026559343469089  0.9717857047720385  1.0000
  C   C11       1.0  0.4125333903854695  0.6147871048371274  0.1478041160371646  1.0000
  C   C12       1.0  0.5874646742983956  0.385215827745796  0.8521934719318904  1.0000
  C   C13       1.0  0.5307227666922927  0.685933200263392  0.2916456009158068  1.0000
  C   C14       1.0  0.4692730258237034  0.31407112973773366  0.7083527828127101  1.0000
  C   C15       1.0  0.9608656672005507  0.4130423514662169  0.5248805396019305  1.0000
  C   C16       1.0  0.039136803812205356  0.5869508767979286  0.4751198769024894  1.0000
  N   N1        1.0  0.2910493519971523  0.46848872790376817  0.14260434588669565  1.0000
  N   N2        1.0  0.7089523080058483  0.5315126411672891  0.8573957218753845  1.0000
  O   O1        1.0  0.02904914586942912  0.20857817587594957  0.14984239582292957  1.0000
  O   O2        1.0  0.9709574326039672  0.7914214635895789  0.8501634272846698  1.0000
  O   O3        1.0  0.9222857678657589  0.17831856302327506  0.9130985925227575  1.0000
  O   O4        1.0  0.07771574306240579  0.8216759348690488  0.08690487154161988  1.0000
  O   O5        1.0  0.5408924765473344  0.5747180948898887  0.38318779933572233  1.0000
  O   O6        1.0  0.45910548482446245  0.4252902223009655  0.6168103067385998  1.0000
  O   O7        1.0  0.6093793376004866  0.8461234332854061  0.3149512944936105  1.0000
  O   O8        1.0  0.3906231791750301  0.15388205076540373  0.6850462438137794  1.0000
  O   O9        1.0  0.026090048108223116  0.27630383266845376  0.49842064173078865  1.0000
  O   O10       1.0  0.9739200814124015  0.7236943964997239  0.5015835661618339  1.0000
  O   O11       1.0  0.8370411218559966  0.42107468103559154  0.5885574221973255  1.0000
  O   O12       1.0  0.1629584836712539  0.5789172779341881  0.4114434288656809  1.0000
  O   O13       1.0  0.5693136640700159  0.17175040285823676  0.427340887137241  1.0000
  O   O14       1.0  0.4306898238580672  0.8282537732607694  0.5726546273621906  1.0000
  O   O15       1.0  0.3560891169514732  0.07753024924426906  0.15887164779328336  1.0000
  O   O16       1.0  0.6439068231484981  0.9224685429344175  0.8411303128379753  1.0000
  O   O17       1.0  0.1360511247597174  0.9675937506826814  0.3590756387476829  1.0000
  O   O18       1.0  0.8639430811501326  0.03240929714493751  0.6409223600839123  1.0000
