data_image0
_chemical_formula_structural       H20Pb4C28N4O20
_chemical_formula_sum              "H20 Pb4 C28 N4 O20"
_cell_length_a       6.595420460125969
_cell_length_b       10.939829161103399
_cell_length_c       11.348192151406934
_cell_angle_alpha    89.97174329134431
_cell_angle_beta     90.00942594489912
_cell_angle_gamma    91.47923616682411

_space_group_name_H-M_alt    "P 1"
_space_group_IT_number       1

loop_
  _space_group_symop_operation_xyz
  'x, y, z'

loop_
  _atom_site_type_symbol
  _atom_site_label
  _atom_site_symmetry_multiplicity
  _atom_site_fract_x
  _atom_site_fract_y
  _atom_site_fract_z
  _atom_site_occupancy
  H   H1        1.0  0.8897399958775268  0.16648779263580593  0.1465133220155295  1.0000
  H   H2        1.0  0.6103614854275676  0.8336088548184648  0.6463408143112872  1.0000
  H   H3        1.0  0.11023349854544051  0.8334629631223861  0.8535702667009203  1.0000
  H   H4        1.0  0.38986020225758006  0.16637517069928262  0.35355777025826995  1.0000
  H   H5        1.0  0.8834810171075489  0.3917160091684053  0.10505516765456238  1.0000
  H   H6        1.0  0.6168717413986898  0.6084089266017686  0.6050148455747503  1.0000
  H   H7        1.0  0.11645402808155579  0.6082172799017301  0.8949737714067467  1.0000
  H   H8        1.0  0.3835984964899737  0.3915715244376514  0.3949260600613441  1.0000
  H   H9        1.0  0.8373048275103728  0.45126757294627146  0.47996844881578227  1.0000
  H   H10       1.0  0.6627414087478555  0.5486746389535356  0.9799887700711449  1.0000
  H   H11       1.0  0.1630051145132896  0.5487751808934149  0.5200588380858022  1.0000
  H   H12       1.0  0.3370753231093674  0.45135421397712616  0.019985584545843  1.0000
  H   H13       1.0  0.32910643334318485  0.2530386378372569  0.5965576957190919  1.0000
  H   H14       1.0  0.170607432281372  0.7471002225739625  0.0965305597904731  1.0000
  H   H15       1.0  0.6706581621105132  0.7470686241710992  0.40341406087977555  1.0000
  H   H16       1.0  0.8291664871487684  0.2529658369596461  0.9035240036107837  1.0000
  H   H17       1.0  0.34231364912497503  0.112037362595693  0.5562432948792305  1.0000
  H   H18       1.0  0.157505745750008  0.8881265027401142  0.0562620534001113  1.0000
  H   H19       1.0  0.6575426750947385  0.8880455501067389  0.44377075294554647  1.0000
  H   H20       1.0  0.8422219632729194  0.11191645113665771  0.9438374312697916  1.0000
  Pb  Pb1       1.0  0.781246270583246  0.18300305654759094  0.6301601803206935  1.0000
  Pb  Pb2       1.0  0.7182069966606336  0.816881848761284  0.12997574172471357  1.0000
  Pb  Pb3       1.0  0.21857844092131984  0.8169900865753734  0.36988641015291523  1.0000
  Pb  Pb4       1.0  0.28113214020772404  0.1829046989229823  0.869868869412123  1.0000
  C   C1        1.0  0.8584878349021636  0.1921400946992478  0.3340157774386086  1.0000
  C   C2        1.0  0.6415381330455149  0.8078544482707385  0.8338639142587638  1.0000
  C   C3        1.0  0.14170834432279378  0.807852738216802  0.6660705054272495  1.0000
  C   C4        1.0  0.3585101911692021  0.1921617496973411  0.1660426039738212  1.0000
  C   C5        1.0  0.8771412686826495  0.23241786905450823  0.21762882176513187  1.0000
  C   C6        1.0  0.6229777628822433  0.767642588227808  0.7174929845849576  1.0000
  C   C7        1.0  0.12293133768105953  0.7675506893178651  0.782443333273406  1.0000
  C   C8        1.0  0.3772184869588315  0.23235228609866715  0.2824179411685321  1.0000
  C   C9        1.0  0.8753971096024954  0.35712930320035957  0.1949915924823173  1.0000
  C   C10       1.0  0.6248074108168353  0.6429415069870146  0.6949388595068412  1.0000
  C   C11       1.0  0.1246191910697121  0.6428326564406959  0.8050488292655229  1.0000
  C   C12       1.0  0.37547513113355546  0.35704912468992944  0.3050011520123235  1.0000
  C   C13       1.0  0.8621924625632432  0.43908386033673713  0.28933790749649546  1.0000
  C   C14       1.0  0.637927424893043  0.5609415193010322  0.7893381172774027  1.0000
  C   C15       1.0  0.13785802922121354  0.5609047803062382  0.7106831488057423  1.0000
  C   C16       1.0  0.36220693251699737  0.43906217567000977  0.2106230360692649  1.0000
  C   C17       1.0  0.849656723841342  0.3916539896322462  0.4035381196873971  1.0000
  C   C18       1.0  0.6503979047473861  0.608316387233046  0.9035171264246173  1.0000
  C   C19       1.0  0.1505645214783229  0.6083646057437163  0.5965005978420095  1.0000
  C   C20       1.0  0.34954878574921366  0.39169841022909685  0.0964369650201888  1.0000
  C   C21       1.0  0.8465425549274813  0.05682150907272642  0.3610594847626416  1.0000
  C   C22       1.0  0.6533530678763101  0.9431454018685628  0.8608288148689308  1.0000
  C   C23       1.0  0.1536139951699838  0.9431647281244723  0.6390505820391325  1.0000
  C   C24       1.0  0.34666793233897414  0.056869774108008614  0.1390715314665343  1.0000
  C   C25       1.0  0.8527268217979227  0.5743079086120205  0.26655426540888527  1.0000
  C   C26       1.0  0.6472991219291231  0.42571094517137453  0.7666545602979441  1.0000
  C   C27       1.0  0.14712004200536202  0.4256662108832075  0.7334244627326143  1.0000
  C   C28       1.0  0.35281531810756667  0.5742862062167335  0.2333559338194107  1.0000
  N   N1        1.0  0.8445055665556964  0.270940033381585  0.42451617276192616  1.0000
  N   N2        1.0  0.6555123261916551  0.7290233000808188  0.9244162483988203  1.0000
  N   N3        1.0  0.15577496037325028  0.7290833469060158  0.5755525147916742  1.0000
  N   N4        1.0  0.3444132796044173  0.2709960224708752  0.0755025958652098  1.0000
  O   O1        1.0  0.7706982976632517  0.0242037351694862  0.46070094028480907  1.0000
  O   O2        1.0  0.7290678703151984  0.9757523067077615  0.9604826551492351  1.0000
  O   O3        1.0  0.22948502924465694  0.9758145838617552  0.5394338237241313  1.0000
  O   O4        1.0  0.2708466915471632  0.0242532458714706  0.0394441097918019  1.0000
  O   O5        1.0  0.9107435701594613  0.9847033623307697  0.283614972204326  1.0000
  O   O6        1.0  0.5890926242426958  0.0152536983561689  0.7833110814025516  1.0000
  O   O7        1.0  0.0892916095809611  0.015232057825187408  0.716512672869996  1.0000
  O   O8        1.0  0.4109763046998651  0.9847425146075395  0.21656105924416377  1.0000
  O   O9        1.0  0.8369433004098286  0.6042493034769906  0.1584481948870149  1.0000
  O   O10       1.0  0.6630751182612329  0.39579117260401375  0.6585789260815031  1.0000
  O   O11       1.0  0.16274253943517894  0.39566655300521336  0.8415190230135606  1.0000
  O   O12       1.0  0.33709542993104696  0.6042062132396995  0.3414333364262702  1.0000
  O   O13       1.0  0.8590627367006504  0.648410322236778  0.35314472501951133  1.0000
  O   O14       1.0  0.6408484949070115  0.3516000562886035  0.8533058927318604  1.0000
  O   O15       1.0  0.14075508559827202  0.35160485676063064  0.6468005412746507  1.0000
  O   O16       1.0  0.3591743549668537  0.6484259510813289  0.1467160661975626  1.0000
  O   O17       1.0  0.4218747875111005  0.19099184232186417  0.5648655405280038  1.0000
  O   O18       1.0  0.07786585427670191  0.8091965530578166  0.0648372801535686  1.0000
  O   O19       1.0  0.5779484577982148  0.8091000306861248  0.43518375761069444  1.0000
  O   O20       1.0  0.9218917606784273  0.19083289753802998  0.9351925841859554  1.0000
