data_image0
_chemical_formula_structural       Cd4P4H32C24Cl4O12
_chemical_formula_sum              "Cd4 P4 H32 C24 Cl4 O12"
_cell_length_a       5.841517468863778
_cell_length_b       12.788228133829676
_cell_length_c       13.4792145920653
_cell_angle_alpha    63.93872897683091
_cell_angle_beta     77.47266376759794
_cell_angle_gamma    76.81424908381202

_space_group_name_H-M_alt    "P 1"
_space_group_IT_number       1

loop_
  _space_group_symop_operation_xyz
  'x, y, z'

loop_
  _atom_site_type_symbol
  _atom_site_label
  _atom_site_symmetry_multiplicity
  _atom_site_fract_x
  _atom_site_fract_y
  _atom_site_fract_z
  _atom_site_occupancy
  Cd  Cd1       1.0  0.22851218026756445  0.7499260043033831  0.24998619434894204  1.0000
  Cd  Cd2       1.0  0.7714920757727344  0.2500745988089434  0.7500131148768502  1.0000
  Cd  Cd3       1.0  5.748015752000002e-07  8.854270134999997e-07  5.602707702e-07  1.0000
  Cd  Cd4       1.0  4.165261699877004e-06  0.5000001604939542  0.4999985598426875  1.0000
  P   P1        1.0  0.6539944935846906  0.8952278984403819  0.2666026363517061  1.0000
  P   P2        1.0  0.8160397269370561  0.6045513056682593  0.23346911182431992  1.0000
  P   P3        1.0  0.3460148491986107  0.10476918903884072  0.7333992893575852  1.0000
  P   P4        1.0  0.1839573767797303  0.395451935190124  0.7665285011376639  1.0000
  H   H1        1.0  0.6739998364557778  0.7897190931536643  0.364134583513369  1.0000
  H   H2        1.0  0.8284752911887808  0.7100438576151049  0.13586615533720442  1.0000
  H   H3        1.0  0.32600835672437284  0.2102762234715385  0.6358662216543818  1.0000
  H   H4        1.0  0.17152269476554244  0.2899620347221727  0.8641322330003618  1.0000
  H   H5        1.0  0.32978637025207996  0.009587936363743702  0.11525322970203424  1.0000
  H   H6        1.0  0.45492840973246024  0.4903934847317118  0.38491559591560065  1.0000
  H   H7        1.0  0.6702203722194681  0.9904100344781951  0.8847489258950388  1.0000
  H   H8        1.0  0.5450750041406422  0.5096071135784827  0.6150828078734705  1.0000
  H   H9        1.0  0.3784333956126745  0.11735215148674168  0.0006548775050276673  1.0000
  H   H10       1.0  0.49637015043223454  0.38265161837159667  0.49955079314837997  1.0000
  H   H11       1.0  0.6215688916248326  0.8826475823106462  0.9993469976223963  1.0000
  H   H12       1.0  0.5036359375627911  0.6173471988067761  0.5004444345549712  1.0000
  H   H13       1.0  0.895931796593466  0.08422961139017811  0.24600022582407619  1.0000
  H   H14       1.0  0.22539656397585642  0.4154217962461785  0.2542566060037288  1.0000
  H   H15       1.0  0.10406580764899324  0.9157683875473307  0.7540075213518237  1.0000
  H   H16       1.0  0.7745926649955025  0.584584992469459  0.7457446428195523  1.0000
  H   H17       1.0  0.7673429004012817  0.23630049869482408  0.3238511089625573  1.0000
  H   H18       1.0  0.3269135958588691  0.26344916355687087  0.17635164426024363  1.0000
  H   H19       1.0  0.23264005168785223  0.7636983630061354  0.6761531606420446  1.0000
  H   H20       1.0  0.6730896703938993  0.7365532302915339  0.8236526519247037  1.0000
  H   H21       1.0  0.3695607391547854  0.24833153425270646  0.4332111183588622  1.0000
  H   H22       1.0  0.050893849003884384  0.25142269685278523  0.06686648118126465  1.0000
  H   H23       1.0  0.6304201243862763  0.7516655432199784  0.5667894795855445  1.0000
  H   H24       1.0  0.9491138895856965  0.7485796743757189  0.9331333735323283  1.0000
  H   H25       1.0  0.09690244946337855  0.11011327753040231  0.4658525209066653  1.0000
  H   H26       1.0  0.6727563996338334  0.38956941393518457  0.034203230561587375  1.0000
  H   H27       1.0  0.9030853728457444  0.8898811450520088  0.534146481937661  1.0000
  H   H28       1.0  0.32724903974944647  0.6104294155852801  0.9657943830689317  1.0000
  H   H29       1.0  0.22323637727038914  0.9575759296747038  0.3888102962695612  1.0000
  H   H30       1.0  0.5695093212109513  0.5422479822539047  0.1111220103196543  1.0000
  H   H31       1.0  0.7767613912294565  0.042414988943157504  0.6111934643146737  1.0000
  H   H32       1.0  0.43048758895038464  0.457755241460248  0.8888723112784404  1.0000
  C   C1        1.0  0.5678096397003571  0.011721146199683098  0.31286656242017585  1.0000
  C   C2        1.0  0.8919487986134343  0.4880564190856163  0.18726001593125816  1.0000
  C   C3        1.0  0.4321923968085812  0.9882741834411559  0.6871368733455014  1.0000
  C   C4        1.0  0.10806836853841172  0.511945949763664  0.8127391842493309  1.0000
  C   C5        1.0  0.7217152320566598  0.08985685354316791  0.2945670559260661  1.0000
  C   C6        1.0  0.10546963344695108  0.40985848453107115  0.20564170393188863  1.0000
  C   C7        1.0  0.2782774159603605  0.9101411251536716  0.7054369043114833  1.0000
  C   C8        1.0  0.894524238449115  0.590147392367676  0.7943538029040338  1.0000
  C   C9        1.0  0.649330948620552  0.1747949030687579  0.3382438445038004  1.0000
  C   C10       1.0  0.16176070036391366  0.32491061360101275  0.1619402703624999  1.0000
  C   C11       1.0  0.3506589622366504  0.8252013037419205  0.6617588300007213  1.0000
  C   C12       1.0  0.8382485920425042  0.6750953031055289  0.8380625656793865  1.0000
  C   C13       1.0  0.4256814941574446  0.18114213826311248  0.4002104783973051  1.0000
  C   C14       1.0  0.006640511280899316  0.31858275173659223  0.099915811627433  1.0000
  C   C15       1.0  0.5742999441851923  0.8188558246365929  0.5997906798178646  1.0000
  C   C16       1.0  0.9933571843402405  0.6814231148843533  0.9000776396643031  1.0000
  C   C17       1.0  0.27171998731866864  0.10359716808569172  0.4180750098250669  1.0000
  C   C18       1.0  0.7931246686900195  0.3961010829863838  0.0820203861086738  1.0000
  C   C19       1.0  0.7282726944381751  0.8963972661652663  0.581926134275676  1.0000
  C   C20       1.0  0.20689266904972242  0.6039003966658996  0.9179775135559254  1.0000
  C   C21       1.0  0.3417797570908547  0.018960712365633008  0.3745772521061638  1.0000
  C   C22       1.0  0.7350684083068939  0.4808022167023581  0.12548652162168838  1.0000
  C   C23       1.0  0.6582149164363356  0.9810354975414841  0.6254259179728267  1.0000
  C   C24       1.0  0.26492968519742266  0.5191992334199328  0.8745061043811332  1.0000
  Cl  Cl1       1.0  0.3004690530260134  0.7995791583178972  0.03770994507224396  1.0000
  Cl  Cl2       1.0  0.13731887601647225  0.7004665430924463  0.46223978850247954  1.0000
  Cl  Cl3       1.0  0.699534400917429  0.20042408666906655  0.9622883286556954  1.0000
  Cl  Cl4       1.0  0.8626858179773437  0.2995322901980018  0.5377585653732665  1.0000
  O   O1        1.0  0.9010095631411442  0.9016313687360622  0.19672045776725605  1.0000
  O   O2        1.0  0.9998450761295246  0.5980572739309692  0.3032243536915615  1.0000
  O   O3        1.0  0.0990022494363528  0.0983683712542103  0.8032824085091121  1.0000
  O   O4        1.0  0.00015648282129636544  0.4019442039719578  0.6967735397400716  1.0000
  O   O5        1.0  0.45510914495813654  0.8929092127202836  0.21011317660989445  1.0000
  O   O6        1.0  0.5584090328041355  0.6071387017948383  0.29009373219821544  1.0000
  O   O7        1.0  0.544905779694794  0.10708697631628895  0.7898855582307006  1.0000
  O   O8        1.0  0.44159208819317525  0.3928645459299603  0.7099051165834636  1.0000
  O   O9        1.0  0.24949621472315897  0.0750612929067316  0.052137431698774564  1.0000
  O   O10       1.0  0.37684694291791476  0.4249134288533584  0.44802064488671073  1.0000
  O   O11       1.0  0.7505060725143552  0.9249384408906565  0.9478644434286421  1.0000
  O   O12       1.0  0.6231598166564112  0.5750862823241365  0.5519767887693516  1.0000
