data_image0
_chemical_formula_structural       Co2H40C52N8Cl4O8
_chemical_formula_sum              "Co2 H40 C52 N8 Cl4 O8"
_cell_length_a       9.788582724078136
_cell_length_b       10.026148811167229
_cell_length_c       13.208791750425101
_cell_angle_alpha    81.74046924812635
_cell_angle_beta     69.75896879337392
_cell_angle_gamma    87.25214886616205

_space_group_name_H-M_alt    "P 1"
_space_group_IT_number       1

loop_
  _space_group_symop_operation_xyz
  'x, y, z'

loop_
  _atom_site_type_symbol
  _atom_site_label
  _atom_site_symmetry_multiplicity
  _atom_site_fract_x
  _atom_site_fract_y
  _atom_site_fract_z
  _atom_site_occupancy
  Co  Co1       1.0  0.33230224364730526  0.6757112876559361  0.7134360195255596  1.0000
  Co  Co2       1.0  0.6676949734035277  0.32428734006234816  0.2865598132994834  1.0000
  H   H1        1.0  0.811767980874727  0.6624081966321427  0.4727066690786472  1.0000
  H   H2        1.0  0.18822047849247528  0.33758333594047224  0.5272974258606524  1.0000
  H   H3        1.0  0.6370324505846695  0.5103692303472656  0.6630296868141556  1.0000
  H   H4        1.0  0.3629691067896204  0.4896313786319198  0.33696862332146793  1.0000
  H   H5        1.0  0.49595083581819926  0.6512123417064827  0.46014918871440363  1.0000
  H   H6        1.0  0.5040485506159841  0.3487892826660329  0.5398488094471146  1.0000
  H   H7        1.0  0.7307631038833549  0.17184257027621191  0.5319875744750746  1.0000
  H   H8        1.0  0.2692329904319807  0.8281570080606712  0.4680152580155195  1.0000
  H   H9        1.0  0.8523112504686738  0.05611121779976711  0.5704609383912781  1.0000
  H   H10       1.0  0.14768594611744854  0.9438903884583993  0.42953988872030635  1.0000
  H   H11       1.0  0.14371009731792136  0.5362513696334402  0.9476536016171548  1.0000
  H   H12       1.0  0.8562925365469667  0.4637522301528848  0.05234790893368305  1.0000
  H   H13       1.0  0.49941508248566185  0.9254672994438308  0.7472427184910089  1.0000
  H   H14       1.0  0.5005821142523744  0.0745312961736246  0.25275690829694497  1.0000
  H   H15       1.0  0.8957257930086799  0.21335195519854017  0.6928612543584051  1.0000
  H   H16       1.0  0.10427247224674828  0.7866466077450057  0.3071418901062941  1.0000
  H   H17       1.0  0.7948487529995064  0.32463005154808405  0.6311752087557565  1.0000
  H   H18       1.0  0.20514951366075  0.675367509988618  0.3688272826702033  1.0000
  H   H19       1.0  0.5367933329917279  0.2543252169855847  0.040518616323943525  1.0000
  H   H20       1.0  0.4632093104031085  0.7456773942342211  0.9594807236029935  1.0000
  H   H21       1.0  0.6913886264720547  0.05106238733598191  0.768852045617301  1.0000
  H   H22       1.0  0.30860964284593717  0.9489361820277366  0.23115034005481042  1.0000
  H   H23       1.0  0.5727941820390471  0.1673678128927278  0.7270556293699499  1.0000
  H   H24       1.0  0.4272019041511613  0.8326317526038236  0.2729487207058057  1.0000
  H   H25       1.0  0.8578541537987053  0.8844205338229187  0.22603997931440023  1.0000
  H   H26       1.0  0.14214848974804545  0.115579066756176  0.7739581602889061  1.0000
  H   H27       1.0  0.8585610837036484  0.03164819973849121  0.3625299777909559  1.0000
  H   H28       1.0  0.14143828663221572  0.9683503883126507  0.6374698552172546  1.0000
  H   H29       1.0  0.08369095202579761  0.16324102106175786  0.08996404275652028  1.0000
  H   H30       1.0  0.9163127534699742  0.8367545219555481  0.9100372787463157  1.0000
  H   H31       1.0  0.6816295783424949  0.6988172982568203  0.2723644485099256  1.0000
  H   H32       1.0  0.31836980949651666  0.30118332470885184  0.7276328966128602  1.0000
  H   H33       1.0  0.7205722709618599  0.250999185513912  0.8786526327404828  1.0000
  H   H34       1.0  0.2794270964124337  0.7490044159916354  0.12134970666884465  1.0000
  H   H35       1.0  0.818020551567301  0.39572318599959294  0.7985868056435024  1.0000
  H   H36       1.0  0.18198317534226052  0.6042774089931129  0.20141246950495878  1.0000
  H   H37       1.0  0.29292727062299667  0.27670322834349304  0.1794621792561912  1.0000
  H   H38       1.0  0.7070764481614377  0.7232973538088815  0.8205386134774385  1.0000
  H   H39       1.0  0.09776529213557693  0.41210163790281473  0.13494735771919858  1.0000
  H   H40       1.0  0.9022384374317199  0.5878999649169003  0.8650518116754211  1.0000
  C   C1        1.0  0.893484454650107  0.5907221134484857  0.48505361674742176  1.0000
  C   C2        1.0  0.10650726729704021  0.4092664003440305  0.5149492078023385  1.0000
  C   C3        1.0  0.5606132373534508  0.48032942257439964  0.7444118141286111  1.0000
  C   C4        1.0  0.43938723103872235  0.5196741976185707  0.2555879726168087  1.0000
  C   C5        1.0  0.0742859880232984  0.5217827856758107  0.5704935230540115  1.0000
  C   C6        1.0  0.9257068415101062  0.4782097716920219  0.4295070846090566  1.0000
  C   C7        1.0  0.36593600294477113  0.46381942933162196  0.8898064507953689  1.0000
  C   C8        1.0  0.6340688153008074  0.5361851835557374  0.11019364263673034  1.0000
  C   C9        1.0  0.1543696517064248  0.5456610749273453  0.645025506023991  1.0000
  C   C10       1.0  0.8456242772881098  0.4543355131754652  0.3549744023375395  1.0000
  C   C11       1.0  0.6799843689667284  0.9185916244929191  0.4893426704060316  1.0000
  C   C12       1.0  0.32001390300899163  0.0814079526978162  0.5106596095122383  1.0000
  C   C13       1.0  0.5775284640411585  0.8124983962117158  0.516860746960944  1.0000
  C   C14       1.0  0.42247308535992545  0.18749918928642734  0.48313788043621025  1.0000
  C   C15       1.0  0.9673301850630482  0.6116773777813621  0.5545325353526919  1.0000
  C   C16       1.0  0.0326626268152879  0.38831615531265123  0.4454717605194389  1.0000
  C   C17       1.0  0.5748935718323481  0.7326045003660087  0.4387363487489821  1.0000
  C   C18       1.0  0.4251068981165674  0.2673951077794001  0.5612615846340674  1.0000
  C   C19       1.0  0.4742325659929137  0.381145353733352  0.9150585982864639  1.0000
  C   C20       1.0  0.5257689843572423  0.6188602622800803  0.08494297704285704  1.0000
  C   C21       1.0  0.20131565650134323  0.8224661784351569  0.862715169735736  1.0000
  C   C22       1.0  0.7986913504913106  0.1775334326919733  0.13728034713776074  1.0000
  C   C23       1.0  0.7373416117814102  0.0874801353315107  0.5934927430202777  1.0000
  C   C24       1.0  0.26265557808441303  0.9125204566794805  0.4065089486377359  1.0000
  C   C25       1.0  0.1012248074901763  0.9137292234091849  0.9350509517936557  1.0000
  C   C26       1.0  0.8987778360565744  0.0862703771699174  0.06494718780965054  1.0000
  C   C27       1.0  0.22795631906194563  0.4750751169683057  0.968062508736402  1.0000
  C   C28       1.0  0.7720474156689008  0.5249315121461534  0.031937649474173345  1.0000
  C   C29       1.0  0.5433500357448297  0.9046372579151764  0.6636879578903815  1.0000
  C   C30       1.0  0.45664826732654973  0.0953633720437352  0.33630890472598196  1.0000
  C   C31       1.0  0.7845479589609853  0.2502605969948988  0.7033427159658031  1.0000
  C   C32       1.0  0.21544922699419544  0.7497369779552159  0.29665853416115334  1.0000
  C   C33       1.0  0.4517765278440109  0.3129601757067064  0.019258206745441018  1.0000
  C   C34       1.0  0.5482272084435779  0.687042441360191  0.9807400981027569  1.0000
  C   C35       1.0  0.6869335716217363  0.13411248014619298  0.7056425737184071  1.0000
  C   C36       1.0  0.31306469097595624  0.8658850749703433  0.29436067650013337  1.0000
  C   C37       1.0  0.7792357776884344  0.8664579723677903  0.308350305225538  1.0000
  C   C38       1.0  0.2207646760102406  0.13354161009695528  0.6916506633278346  1.0000
  C   C39       1.0  0.7822342094390893  0.9479079622945648  0.3847711191203657  1.0000
  C   C40       1.0  0.21776844082795327  0.05209265253171219  0.6152261559365115  1.0000
  C   C41       1.0  0.0472305367650705  0.09071206610592239  0.05077620902872581  1.0000
  C   C42       1.0  0.952773177956807  0.9092885096262862  0.9492253424974778  1.0000
  C   C43       1.0  0.6773107661010729  0.7611613469816235  0.3344990471561644  1.0000
  C   C44       1.0  0.32268969978528617  0.23883825474361947  0.6654996450194588  1.0000
  C   C45       1.0  0.1474187142461219  0.006298715197928597  0.9873838230660822  1.0000
  C   C46       1.0  0.8525839144552165  0.9936998582936528  0.012616698668807776  1.0000
  C   C47       1.0  0.7348703524620533  0.32223580938646995  0.80442009952327  1.0000
  C   C48       1.0  0.26513010514726426  0.6777667901391524  0.19558131056115263  1.0000
  C   C49       1.0  0.31495595102875035  0.3273070791309324  0.09668276812717376  1.0000
  C   C50       1.0  0.6850455954107632  0.6726955198216162  0.9033183656710974  1.0000
  C   C51       1.0  0.20391750467425854  0.4052351068363649  0.07174388121165981  1.0000
  C   C52       1.0  0.7960862261459383  0.5947685052172177  0.9282558354678655  1.0000
  N   N1        1.0  0.424512422583348  0.5255882096435514  0.7825332037458991  1.0000
  N   N2        1.0  0.5754891360438492  0.47441440856949424  0.2174656536746156  1.0000
  N   N3        1.0  0.6541314258777293  0.9750879054563201  0.584473035998755  1.0000
  N   N4        1.0  0.34586794039557134  0.024910676174656008  0.4155275558020364  1.0000
  N   N5        1.0  0.5952593890001411  0.39155990726037976  0.8199480032636044  1.0000
  N   N6        1.0  0.4047421694751421  0.6084457215933838  0.18005205448055514  1.0000
  N   N7        1.0  0.4937481104951616  0.806595875689041  0.6269454524866943  1.0000
  N   N8        1.0  0.5062523446083347  0.19340270536886087  0.3730548630279387  1.0000
  Cl  Cl1       1.0  0.9277458101469022  0.7540345187730112  0.6205821142687284  1.0000
  Cl  Cl2       1.0  0.07224593852950531  0.24596106264893794  0.3794184524189745  1.0000
  Cl  Cl3       1.0  0.32803258743444275  0.025715057211947105  0.9736355622476438  1.0000
  Cl  Cl4       1.0  0.6719722122069884  0.9742825008863036  0.026365271461351335  1.0000
  O   O1        1.0  0.26967154243012464  0.6206303394398276  0.5980667245267312  1.0000
  O   O2        1.0  0.7303202132704103  0.3793602349478817  0.4019305769672741  1.0000
  O   O3        1.0  0.10803088055440212  0.4966564981547351  0.7427001375981133  1.0000
  O   O4        1.0  0.8919685094865956  0.5033541645600863  0.25730070274173034  1.0000
  O   O5        1.0  0.32484555252625574  0.7915027804932039  0.8682586638219264  1.0000
  O   O6        1.0  0.6751570911724089  0.20849380944518006  0.13173827545774222  1.0000
  O   O7        1.0  0.15626215588417122  0.7765168873712441  0.793268816986476  1.0000
  O   O8        1.0  0.8437427162756705  0.2234928288528479  0.20672315975059524  1.0000
