data_image0
_chemical_formula_structural       Cu4H32C16S4Cl4O4
_chemical_formula_sum              "Cu4 H32 C16 S4 Cl4 O4"
_cell_length_a       6.300702120003964
_cell_length_b       9.453117525067567
_cell_length_c       11.322901994925404
_cell_angle_alpha    104.4799579856459
_cell_angle_beta     90.00001916636668
_cell_angle_gamma    90.00011698361912

_space_group_name_H-M_alt    "P 1"
_space_group_IT_number       1

loop_
  _space_group_symop_operation_xyz
  'x, y, z'

loop_
  _atom_site_type_symbol
  _atom_site_label
  _atom_site_symmetry_multiplicity
  _atom_site_fract_x
  _atom_site_fract_y
  _atom_site_fract_z
  _atom_site_occupancy
  Cu  Cu1       1.0  0.4391019126322177  0.010807843654674801  0.1406249742034404  1.0000
  Cu  Cu2       1.0  0.9391048814842476  0.9891908878940401  0.35937513904472246  1.0000
  Cu  Cu3       1.0  0.5608979654753767  0.9891914877509649  0.8593742888330312  1.0000
  Cu  Cu4       1.0  0.06089817087300989  0.0108084431161117  0.6406250070752648  1.0000
  H   H1        1.0  0.7427358483003843  0.7627798694529985  0.012020183196185027  1.0000
  H   H2        1.0  0.24273693731291957  0.23722184076687108  0.4879796306132037  1.0000
  H   H3        1.0  0.2572624426859633  0.23722164706522617  0.9879795366284297  1.0000
  H   H4        1.0  0.7572629407946748  0.7627774906387685  0.512019632423268  1.0000
  H   H5        1.0  0.9524317351475631  0.8905678018029022  0.06511388132580016  1.0000
  H   H6        1.0  0.45243399266281864  0.10943532069450872  0.43488626930927404  1.0000
  H   H7        1.0  0.0475681429622554  0.1094326213638226  0.9348873762703466  1.0000
  H   H8        1.0  0.54756905969937  0.8905672883842399  0.5651136789108477  1.0000
  H   H9        1.0  0.08850380784006968  0.6340761611041543  0.028780653965149842  1.0000
  H   H10       1.0  0.5885049426579484  0.3659264073134807  0.4712175423216891  1.0000
  H   H11       1.0  0.9114928960178686  0.36592317069696634  0.9712177259878061  1.0000
  H   H12       1.0  0.4114917612051698  0.634076202158333  0.5287815228141  1.0000
  H   H13       1.0  0.1037340443816319  0.7283734412534811  0.18721548946388822  1.0000
  H   H14       1.0  0.6037332163501362  0.2716291499860261  0.312783597780502  1.0000
  H   H15       1.0  0.8962674208506696  0.27162589015336636  0.8127837735729955  1.0000
  H   H16       1.0  0.3962666617646135  0.7283745512492885  0.6872174619157719  1.0000
  H   H17       1.0  0.8637238700697836  0.6517006653982803  0.3237331629969447  1.0000
  H   H18       1.0  0.36372353534670765  0.34829904417509283  0.17626625658490983  1.0000
  H   H19       1.0  0.13627759516449336  0.3482997581675632  0.6762672115169083  1.0000
  H   H20       1.0  0.6362763427611425  0.6517002868326357  0.8237338895342603  1.0000
  H   H21       1.0  0.6789585122988625  0.5090084404921313  0.2594728495429949  1.0000
  H   H22       1.0  0.17895864780977885  0.49098989521399966  0.24052536302215802  1.0000
  H   H23       1.0  0.3210413658109558  0.49099198267460054  0.7405284080531445  1.0000
  H   H24       1.0  0.8210396431691718  0.5090072518724399  0.7594716770599561  1.0000
  H   H25       1.0  0.4910211128477541  0.7500221401545772  0.3264715815167777  1.0000
  H   H26       1.0  0.9910201409132992  0.24997776310834752  0.1735287869714099  1.0000
  H   H27       1.0  0.508980352388498  0.24997937557025549  0.6735299044740516  1.0000
  H   H28       1.0  0.008978150068116999  0.750020475341273  0.8264711307530704  1.0000
  H   H29       1.0  0.4753385812515418  0.6796205478343538  0.1649219235541821  1.0000
  H   H30       1.0  0.9753395011915984  0.3203782393601387  0.33507732534827994  1.0000
  H   H31       1.0  0.5246597097335695  0.32037987533116313  0.835079334041545  1.0000
  H   H32       1.0  0.024660376914518195  0.679619999090697  0.6649225923766124  1.0000
  C   C1        1.0  0.8560201315198271  0.8036741718625108  0.08646197688684507  1.0000
  C   C2        1.0  0.356021054378644  0.19632771107985283  0.41353789550038306  1.0000
  C   C3        1.0  0.14397974658974277  0.19632625170211782  0.9135383976266029  1.0000
  C   C4        1.0  0.6439804108571111  0.8036738054407877  0.5864618243250561  1.0000
  C   C5        1.0  0.9948140099534155  0.6828491411441248  0.11050677745843272  1.0000
  C   C6        1.0  0.4948152870266895  0.31715076869929243  0.3894918268262019  1.0000
  C   C7        1.0  0.0051842810294787  0.31715019026029967  0.8894924855776268  1.0000
  C   C8        1.0  0.5051845910826316  0.6828496552632402  0.6105076646045475  1.0000
  C   C9        1.0  0.7549533652068375  0.6084846178559501  0.24652568471854153  1.0000
  C   C10       1.0  0.2549532052541323  0.39151601843391154  0.2534739070137775  1.0000
  C   C11       1.0  0.24504651290445875  0.3915168982655787  0.7534749181891841  1.0000
  C   C12       1.0  0.7450434986075078  0.6084854980830983  0.7465258128104324  1.0000
  C   C13       1.0  0.5839916347954953  0.7201913717944562  0.2418943690279249  1.0000
  C   C14       1.0  0.0839927246195771  0.27980791087910006  0.2581057889909673  1.0000
  C   C15       1.0  0.41600824331432307  0.2798090513722684  0.7581068885682144  1.0000
  C   C16       1.0  0.9160071534880174  0.7201914205265325  0.7418934740455042  1.0000
  S   S1        1.0  0.6983569181589999  0.8893877015027128  0.21994402384147793  1.0000
  S   S2        1.0  0.1983575053925861  0.1106128480981639  0.2800564217084158  1.0000
  S   S3        1.0  0.3016429599488433  0.11061162950501569  0.7800561222776919  1.0000
  S   S4        1.0  0.801643959841698  0.8893875754676729  0.7199439528054441  1.0000
  Cl  Cl1       1.0  0.34511071081019645  0.8447634245891888  0.9566513049702864  1.0000
  Cl  Cl2       1.0  0.8451125518746068  0.15523366154489082  0.5433483358011344  1.0000
  Cl  Cl3       1.0  0.6548875801694933  0.15523372130353863  0.04334838435991631  1.0000
  Cl  Cl4       1.0  0.1548889133530125  0.8447623913954557  0.45665200821830615  1.0000
  O   O1        1.0  0.8735337038842415  0.5654150591560665  0.13559248571946375  1.0000
  O   O2        1.0  0.37353373714972077  0.43458575832926977  0.3644062842466056  1.0000
  O   O3        1.0  0.12646458709889427  0.4345842718504543  0.8644076603992944  1.0000
  O   O4        1.0  0.6264645538366267  0.5654157581889478  0.6355934355780093  1.0000
