data_image0
_chemical_formula_structural       Al4H11C32O20F
_chemical_formula_sum              "Al4 H11 C32 O20 F1"
_cell_length_a       6.6936048163535435
_cell_length_b       16.363755615516126
_cell_length_c       18.855786507362442
_cell_angle_alpha    73.8513001857355
_cell_angle_beta     90.05341423197902
_cell_angle_gamma    89.67936162141655

_space_group_name_H-M_alt    "P 1"
_space_group_IT_number       1

loop_
  _space_group_symop_operation_xyz
  'x, y, z'

loop_
  _atom_site_type_symbol
  _atom_site_label
  _atom_site_symmetry_multiplicity
  _atom_site_fract_x
  _atom_site_fract_y
  _atom_site_fract_z
  _atom_site_occupancy
  Al  Al1       1.0  0.11591367109633671  0.49980648283404616  0.4984393326881004  1.0000
  Al  Al2       1.0  0.6158846307673969  0.5015821356088993  0.4969740620065295  1.0000
  Al  Al3       1.0  0.6183458565539794  0.9998783142703331  0.9997914882067178  1.0000
  Al  Al4       1.0  0.11795470988545283  0.9994688794377993  0.9995373032999595  1.0000
  H   H1        1.0  0.5478812310620143  0.6971450086159052  0.31120858458457695  1.0000
  H   H2        1.0  0.5497909490106282  0.8147708401746174  0.19170889095912705  1.0000
  H   H3        1.0  0.190175800406621  0.8032653340499183  0.18745593187273354  1.0000
  H   H4        1.0  0.18825592414728476  0.6851666197419278  0.30669083634558797  1.0000
  H   H5        1.0  0.05648998376643281  0.2976668714908115  0.6803332754191587  1.0000
  H   H6        1.0  0.04890310065867  0.18092109169734272  0.7989687094173519  1.0000
  H   H7        1.0  0.6854395261442292  0.20296764293284045  0.8194582861308248  1.0000
  H   H8        1.0  0.36284275181383663  0.6010669015846447  0.5120844581893138  1.0000
  H   H9        1.0  0.8630795161497744  0.39292993594171594  0.5420846509958466  1.0000
  H   H10       1.0  0.3700910587830393  0.8942338668005334  0.995522018455226  1.0000
  H   H11       1.0  0.8679069931726389  0.10267713053158191  0.008860993816845998  1.0000
  C   C1        1.0  0.36904418538120604  0.4161825148136415  0.4117481680411075  1.0000
  C   C2        1.0  0.3683705648165016  0.3839271853189459  0.6105948762836277  1.0000
  C   C3        1.0  0.8632006491562907  0.5877219051730548  0.5840158354253546  1.0000
  C   C4        1.0  0.8673894240937442  0.6152899580101873  0.3858249040909811  1.0000
  C   C5        1.0  0.6871832775596546  0.7209976053695399  0.2834144909948009  1.0000
  C   C6        1.0  0.6882289460299873  0.7857751627629526  0.21758048105456854  1.0000
  C   C7        1.0  0.8700162904818284  0.8150691180794922  0.18304529608761294  1.0000
  C   C8        1.0  0.050874784743875495  0.7792955621255048  0.21516473651984563  1.0000
  C   C9        1.0  0.049902334091392206  0.7143526536043086  0.2808851372397711  1.0000
  C   C10       1.0  0.8680207457831061  0.6848593728387513  0.3152422129281476  1.0000
  C   C11       1.0  0.8681099101281404  0.863965897073669  0.8616197727970416  1.0000
  C   C12       1.0  0.8678880616341613  0.820073568293445  0.8184116460994488  1.0000
  C   C13       1.0  0.8673944250679925  0.7721367194131973  0.7711633481151665  1.0000
  C   C14       1.0  0.8661557933981213  0.7279069745967918  0.7277898397350242  1.0000
  C   C15       1.0  0.8648340764397348  0.6801386826041808  0.680417766580419  1.0000
  C   C16       1.0  0.8638820870023312  0.636804161368083  0.6367673971540952  1.0000
  C   C17       1.0  0.36828695408115664  0.3656954108429744  0.36007367986320554  1.0000
  C   C18       1.0  0.3680644950933925  0.3214790871262565  0.3171421978841451  1.0000
  C   C19       1.0  0.3673487999714878  0.2730086541831298  0.270311618569579  1.0000
  C   C20       1.0  0.36661876917822417  0.22816851700645208  0.22741856100159197  1.0000
  C   C21       1.0  0.3665135735440472  0.17979237255629948  0.18050356723644972  1.0000
  C   C22       1.0  0.3661338064269374  0.13580382977955452  0.1373646603032554  1.0000
  C   C23       1.0  0.19313450245995512  0.2759339468514027  0.7111640130345477  1.0000
  C   C24       1.0  0.1885888395614614  0.2114350678817232  0.7769884972964576  1.0000
  C   C25       1.0  0.36630941063014427  0.1845345909819542  0.8161272265965848  1.0000
  C   C26       1.0  0.5471561493493908  0.22312785760223622  0.7889636873852552  1.0000
  C   C27       1.0  0.5477335861651015  0.2877416359446912  0.7233199305595193  1.0000
  C   C28       1.0  0.372691234759543  0.3157021191255467  0.6822662630797041  1.0000
  C   C29       1.0  0.36511630099298026  0.1155339500393779  0.887374360446792  1.0000
  C   C30       1.0  0.3677463904930107  0.08573268705242751  0.0855550149791497  1.0000
  C   C31       1.0  0.8706485258650786  0.8837026518853578  0.11180060280463516  1.0000
  C   C32       1.0  0.8677509269718513  0.914183190731329  0.9133390538892955  1.0000
  O   O1        1.0  0.5345080344146426  0.4086929816225933  0.57943817920507  1.0000
  O   O2        1.0  0.19977092433774862  0.43162017276921466  0.435839528719967  1.0000
  O   O3        1.0  0.03598419570132451  0.585653011286432  0.412538091395909  1.0000
  O   O4        1.0  0.1962161144422865  0.4112255084779548  0.5853193737396296  1.0000
  O   O5        1.0  0.03374164168945979  0.5705079255032571  0.5616916341350943  1.0000
  O   O6        1.0  0.5390682259566759  0.43945529262953903  0.42872228663195944  1.0000
  O   O7        1.0  0.364520390823813  0.5517410970464879  0.4930791997905146  1.0000
  O   O8        1.0  0.6921680638230469  0.5676046693718033  0.5646603205111234  1.0000
  O   O9        1.0  0.6982925506342569  0.5911461222912635  0.41490556463888584  1.0000
  O   O10       1.0  0.8659458422444288  0.44932319895483636  0.5076362995351218  1.0000
  O   O11       1.0  0.1983298504770801  0.06758387374569  0.06329830062902178  1.0000
  O   O12       1.0  0.534506160611727  0.0908299285063592  0.9165955242191616  1.0000
  O   O13       1.0  0.6974124215241916  0.935190411576514  0.9328458776876116  1.0000
  O   O14       1.0  0.5386274922066789  0.06500536376152162  0.0662213558735303  1.0000
  O   O15       1.0  0.7011413908788596  0.9094000435473861  0.08298742817217425  1.0000
  O   O16       1.0  0.1953090894559182  0.0880716069339584  0.9134642282354761  1.0000
  O   O17       1.0  0.3690185370306409  0.9489805105368776  0.005926313986876241  1.0000
  O   O18       1.0  0.04028677824214811  0.9104878831349339  0.08461337651674232  1.0000
  O   O19       1.0  0.037710232383958  0.932176242149616  0.9351584887455856  1.0000
  O   O20       1.0  0.8676756099514835  0.0509906964347664  0.993281982582964  1.0000
  F   F1        1.0  0.7268936517172333  0.3245589239675795  0.700507327814762  1.0000
