data_image0
_chemical_formula_structural       Zn2H44C70N12O24
_chemical_formula_sum              "Zn2 H44 C70 N12 O24"
_cell_length_a       18.233458992036372
_cell_length_b       19.66379536738525
_cell_length_c       23.716088749621058
_cell_angle_alpha    90.54221389652449
_cell_angle_beta     90.06897527595129
_cell_angle_gamma    90.00941410694382

_space_group_name_H-M_alt    "P 1"
_space_group_IT_number       1

loop_
  _space_group_symop_operation_xyz
  'x, y, z'

loop_
  _atom_site_type_symbol
  _atom_site_label
  _atom_site_symmetry_multiplicity
  _atom_site_fract_x
  _atom_site_fract_y
  _atom_site_fract_z
  _atom_site_occupancy
  Zn  Zn1       1.0  0.42032125258003117  0.4999589625769261  0.5005449458449931  1.0000
  Zn  Zn2       1.0  0.5746545333525787  0.5013806840281134  0.49969058432451874  1.0000
  H   H1        1.0  0.30556614860385867  0.574863925807655  0.5622848882177749  1.0000
  H   H2        1.0  0.44244878529062964  0.6577000525400862  0.9443651462479679  1.0000
  H   H3        1.0  0.6132550016170415  0.5423153895643438  0.22029960377643223  1.0000
  H   H4        1.0  0.6155731124187653  0.5361742038383142  0.7820970638835689  1.0000
  H   H5        1.0  0.6066948310968526  0.5356378988520659  0.3261062824770491  1.0000
  H   H6        1.0  0.6084225195364468  0.5377697353084869  0.6760745081026869  1.0000
  H   H7        1.0  0.387013423087879  0.7191134439227581  0.47049305744953074  1.0000
  H   H8        1.0  0.39059112804247326  0.2828634710702999  0.5318598310738665  1.0000
  H   H9        1.0  0.6104367711170795  0.28378598020112383  0.4681725973053403  1.0000
  H   H10       1.0  0.6082809151568895  0.7164264121179399  0.5316683981846994  1.0000
  H   H11       1.0  0.5022778447423875  0.9390034464880725  0.5920161979441545  1.0000
  H   H12       1.0  0.6883365283309361  0.42222849231963266  0.44047063673858133  1.0000
  H   H13       1.0  0.5016182718236238  0.06210906294036528  0.4099049070804526  1.0000
  H   H14       1.0  0.5020061398728403  0.06542576506878818  0.5913892593121447  1.0000
  H   H15       1.0  0.49972692128549323  0.935687787605964  0.4105348165584886  1.0000
  H   H16       1.0  0.6500351950554306  0.26700252220755516  0.9099841784926782  1.0000
  H   H17       1.0  0.4463805200591723  0.7609999454562483  0.0903335978123465  1.0000
  H   H18       1.0  0.10565672124275241  0.5951033855998914  0.568032665662443  1.0000
  H   H19       1.0  0.18868541835881564  0.6237703428618814  0.5926004833933547  1.0000
  H   H20       1.0  0.8048449894333204  0.37070030565443796  0.4127878403665904  1.0000
  H   H21       1.0  0.8878509831225899  0.40089701203430644  0.4353398762524137  1.0000
  H   H22       1.0  0.106147662128329  0.401813733858674  0.4344467331562782  1.0000
  H   H23       1.0  0.30566896286268985  0.42064898099940246  0.4420004552350321  1.0000
  H   H24       1.0  0.18896243425794523  0.37125134675532206  0.4123260707622336  1.0000
  H   H25       1.0  0.8052837096368393  0.6321431600734256  0.5841106375912304  1.0000
  H   H26       1.0  0.8881885846648531  0.601454666393991  0.5622411165848433  1.0000
  H   H27       1.0  0.3230390305329394  0.4738337955965831  0.2991649450660105  1.0000
  H   H28       1.0  0.36983538894482854  0.46495071473993477  0.36120557414755433  1.0000
  H   H29       1.0  0.3733430945541302  0.45977653200818475  0.6361203165284763  1.0000
  H   H30       1.0  0.35459750049495403  0.4067469623754718  0.6903812665063711  1.0000
  H   H31       1.0  0.36357393904161484  0.4882635235179223  0.1699296946769451  1.0000
  H   H32       1.0  0.3389845956295617  0.43486876193563967  0.22211338856711652  1.0000
  H   H33       1.0  0.39488171493638896  0.4152613484082792  0.826765296066732  1.0000
  H   H34       1.0  0.6887581574368441  0.580561600494157  0.5569054611110147  1.0000
  H   H35       1.0  0.33799910683163864  0.436635820672464  0.7732891604124817  1.0000
  H   H36       1.0  0.3008636624746543  0.9214268255049165  0.4836331147947491  1.0000
  H   H37       1.0  0.30227571702564393  0.08121915775806339  0.5213727352476027  1.0000
  H   H38       1.0  0.7010875494631393  0.08191755799892061  0.4792438913881513  1.0000
  H   H39       1.0  0.700728544016748  0.9173320454019983  0.5210430296866164  1.0000
  H   H40       1.0  0.0640625942657209  0.4072161382372244  0.5483499311792954  1.0000
  H   H41       1.0  0.9300858193768279  0.5926927764946655  0.45113658619566627  1.0000
  H   H42       1.0  0.0666049537450562  0.5917848684517819  0.4521239788988822  1.0000
  H   H43       1.0  0.927541358381845  0.4083399217108692  0.5475500052840871  1.0000
  H   H44       1.0  0.5739233414626954  0.3419217221449955  0.0555497859707543  1.0000
  C   C1        1.0  0.4987653430576131  0.36785598659700713  0.499160051548742  1.0000
  C   C2        1.0  0.43783541478705257  0.4743300661886352  0.7041486271291008  1.0000
  C   C3        1.0  0.4388863016958241  0.4805311849409364  0.23448549304150387  1.0000
  C   C4        1.0  0.4429543691301349  0.47102595988948076  0.7639068192921314  1.0000
  C   C5        1.0  0.5035893060923796  0.5035962651147158  0.20973057992489433  1.0000
  C   C6        1.0  0.5070999561239375  0.49421183712284017  0.7900900595066886  1.0000
  C   C7        1.0  0.43604567810270833  0.746188503638855  0.4843458135177414  1.0000
  C   C8        1.0  0.43909597355968083  0.2552910013492138  0.517765380296936  1.0000
  C   C9        1.0  0.5622721009862701  0.25590354805503057  0.4820785697310015  1.0000
  C   C10       1.0  0.5600205314323929  0.7447834912889844  0.5186021361951063  1.0000
  C   C11       1.0  0.43659197452794984  0.817390361844829  0.48522991977030466  1.0000
  C   C12       1.0  0.49691505721913404  0.6331777885292028  0.5017359137772885  1.0000
  C   C13       1.0  0.43892172392585843  0.1841511715034514  0.5172347310023895  1.0000
  C   C14       1.0  0.5642422028782548  0.18476064046066648  0.48331209329647623  1.0000
  C   C15       1.0  0.5626279320940172  0.8158682756440713  0.5177032308650951  1.0000
  C   C16       1.0  0.5001887975616628  0.8537863755817409  0.5015608241820716  1.0000
  C   C17       1.0  0.5018974234785959  0.1472929108571819  0.5002953952454732  1.0000
  C   C18       1.0  0.4973238064010063  0.7095646595527683  0.5016831901966441  1.0000
  C   C19       1.0  0.5001606071874393  0.2915079495296879  0.499534474966282  1.0000
  C   C20       1.0  0.4959006057619034  0.4990637589874962  0.3897511276747423  1.0000
  C   C21       1.0  0.4978929250901132  0.5002837326930135  0.6105187256341225  1.0000
  C   C22       1.0  0.5021089346502309  0.9661031839720805  0.5520818748221288  1.0000
  C   C23       1.0  0.5641274969195251  0.5243270358889517  0.241595861079162  1.0000
  C   C24       1.0  0.501769079829657  0.034997085029118594  0.4498315677839528  1.0000
  C   C25       1.0  0.5016819002735603  0.03686230020694839  0.5517247203364093  1.0000
  C   C26       1.0  0.500363771327649  0.9642497853458065  0.4501961556323408  1.0000
  C   C27       1.0  0.5020229255383128  0.0718795512663988  0.5006025678287003  1.0000
  C   C28       1.0  0.501036268958849  0.9292185266879331  0.5013184015714957  1.0000
  C   C29       1.0  0.27233895080350123  0.5415995359212642  0.5355079980723829  1.0000
  C   C30       1.0  0.7217531719999215  0.4567632012647636  0.46596043951776533  1.0000
  C   C31       1.0  0.27241878118923074  0.4549616600539109  0.4677900078810353  1.0000
  C   C32       1.0  0.7220129218577682  0.5459698842055617  0.5314079683032915  1.0000
  C   C33       1.0  0.19523625727231322  0.5433662357012564  0.5368440218426116  1.0000
  C   C34       1.0  0.5668975321997964  0.5184947615975942  0.759646119325005  1.0000
  C   C35       1.0  0.7987735612307391  0.4547804702618378  0.4645292422340432  1.0000
  C   C36       1.0  0.19543217445713174  0.4537197451850048  0.4655912580448742  1.0000
  C   C37       1.0  0.7990084487004481  0.5476603858495326  0.5329849474372921  1.0000
  C   C38       1.0  0.15605175636822113  0.4988535070737966  0.5008060420803346  1.0000
  C   C39       1.0  0.8381532545069987  0.5010805833588349  0.49886700822965224  1.0000
  C   C40       1.0  0.034650452347946704  0.44760249384233924  0.5266053922418551  1.0000
  C   C41       1.0  0.9595347050211559  0.5523272789930117  0.4728808305841667  1.0000
  C   C42       1.0  0.0360605098621889  0.551791808762701  0.47340195236981236  1.0000
  C   C43       1.0  0.9581312481959758  0.4481961073201077  0.5261254700944491  1.0000
  C   C44       1.0  0.9195259345986388  0.5005520089325016  0.49925419537221677  1.0000
  C   C45       1.0  0.5604957084532527  0.5205095275094109  0.2997655941959323  1.0000
  C   C46       1.0  0.07463290439810072  0.499400194345732  0.5002468840673374  1.0000
  C   C47       1.0  0.4883174294991762  0.5577147418375719  0.8773775311486389  1.0000
  C   C48       1.0  0.5366704867264004  0.4449380577844692  0.12255776685792341  1.0000
  C   C49       1.0  0.5273480116170292  0.43577850643936955  0.8788954537660345  1.0000
  C   C50       1.0  0.477297647738787  0.5596626410211912  0.12098473271086622  1.0000
  C   C51       1.0  0.5317653515734619  0.4392005588158767  0.9412080421935017  1.0000
  C   C52       1.0  0.4826340746309087  0.5597351569850983  0.058689195905891695  1.0000
  C   C53       1.0  0.5096668018324095  0.49922373016475047  0.9699781834027589  1.0000
  C   C54       1.0  0.5092258972625744  0.501291178297869  0.029946112615682804  1.0000
  C   C55       1.0  0.4863716669538504  0.5572535277871111  0.9399458684197769  1.0000
  C   C56       1.0  0.5625446675282435  0.5201863133892033  0.701379177288331  1.0000
  C   C57       1.0  0.5341668544844254  0.4438297759091371  0.059968349456170196  1.0000
  C   C58       1.0  0.5540789529674941  0.3825614297474899  0.9717414510555074  1.0000
  C   C59       1.0  0.45801269507665404  0.6155651509526336  0.0281558274165192  1.0000
  C   C60       1.0  0.555991002790691  0.38562698956990005  0.031150786146952204  1.0000
  C   C61       1.0  0.4609794440464797  0.6142018138625716  0.9687415083541778  1.0000
  C   C62       1.0  0.5723583137229936  0.3154546964078832  0.9441074661280737  1.0000
  C   C63       1.0  0.4233595036508079  0.6768607857704366  0.05575801862931231  1.0000
  C   C64       1.0  0.3660099700234412  0.8499606469947236  0.4680812133291923  1.0000
  C   C65       1.0  0.36826595662670064  0.15252897591197717  0.5352346304162197  1.0000
  C   C66       1.0  0.6362038143748167  0.15418909827332067  0.4667265248607962  1.0000
  C   C67       1.0  0.49630624829855924  0.4982640667969773  0.3268444996145803  1.0000
  C   C68       1.0  0.635322056981167  0.8455683075238196  0.533569420507213  1.0000
  C   C69       1.0  0.49844883664796674  0.4989748743669081  0.6733540684158257  1.0000
  C   C70       1.0  0.43423850724398255  0.4790260971879475  0.2943542676461774  1.0000
  N   N1        1.0  0.5095202362652104  0.49605099905567573  0.8509383209735263  1.0000
  N   N2        1.0  0.3721084287575565  0.4537995982452116  0.6788680669004634  1.0000
  N   N3        1.0  0.38084065278762586  0.4570322669778902  0.20107530296808562  1.0000
  N   N4        1.0  0.3835172221351755  0.4488944171123704  0.7957626312674648  1.0000
  N   N5        1.0  0.5077205886678442  0.5037920863352526  0.1489491425002711  1.0000
  N   N6        1.0  0.30836521545307966  0.49833809050955585  0.5016964613023589  1.0000
  N   N7        1.0  0.6859888728548214  0.5013915045239727  0.49871142900698834  1.0000
  N   N8        1.0  0.15956989115062467  0.5855984473029281  0.5744416621526085  1.0000
  N   N9        1.0  0.8341254456889047  0.41056812754428046  0.42813321312677033  1.0000
  N   N10       1.0  0.16000371012771103  0.4113373682548129  0.42757435430516477  1.0000
  N   N11       1.0  0.8344572355887864  0.5918698599115971  0.5694488961422765  1.0000
  N   N12       1.0  0.36920874121438624  0.45653700875215  0.3184461184590432  1.0000
  O   O1        1.0  0.4375522519368928  0.3959807016018715  0.5100521077778026  1.0000
  O   O2        1.0  0.5616777562122053  0.3980199328763802  0.1502672107609655  1.0000
  O   O3        1.0  0.5377589354590596  0.38245701783036157  0.8524033702252042  1.0000
  O   O4        1.0  0.4467035482458216  0.6057651066498552  0.1474765747413684  1.0000
  O   O5        1.0  0.5294790873127796  0.2680000319921659  0.9423588610521705  1.0000
  O   O6        1.0  0.643286434795229  0.31208981421190884  0.927279885343694  1.0000
  O   O7        1.0  0.35725254363055836  0.6855527797178667  0.0571646428244748  1.0000
  O   O8        1.0  0.4737248539153783  0.7232658961209136  0.0730048979406277  1.0000
  O   O9        1.0  0.3258621778352052  0.8273773008562982  0.43104838555891695  1.0000
  O   O10       1.0  0.3475593522051028  0.9058570709277943  0.4994704073880386  1.0000
  O   O11       1.0  0.3286973845672136  0.17644742808546  0.5720282639745378  1.0000
  O   O12       1.0  0.5578975506369589  0.6045352807180889  0.511778478948294  1.0000
  O   O13       1.0  0.34894115797204256  0.09597773832852849  0.5050299995902989  1.0000
  O   O14       1.0  0.6785919028889822  0.1802546566203063  0.4332667146637164  1.0000
  O   O15       1.0  0.6531799651916756  0.0956928307412355  0.49418534782734724  1.0000
  O   O16       1.0  0.6784235656202782  0.8184613672921368  0.5660028017898995  1.0000
  O   O17       1.0  0.6521796297046905  0.9044698010218111  0.5066917610495666  1.0000
  O   O18       1.0  0.43602517777410554  0.60378877947187  0.4917071172459941  1.0000
  O   O19       1.0  0.5587729566102624  0.3977691517036988  0.488129648157667  1.0000
  O   O20       1.0  0.4356222240607508  0.4849478975559122  0.41541968006121266  1.0000
  O   O21       1.0  0.5587076191831882  0.4920452673091801  0.5852906685445234  1.0000
  O   O22       1.0  0.43582256634962147  0.5094107043983414  0.5860009327765425  1.0000
  O   O23       1.0  0.55532639821665  0.5141865228891191  0.41496011979453584  1.0000
  O   O24       1.0  0.4723180794602372  0.6079046236410119  0.8497118277341116  1.0000
