data_image0
_chemical_formula_structural       Hg2H44C74Br4N4Cl4O8
_chemical_formula_sum              "Hg2 H44 C74 Br4 N4 Cl4 O8"
_cell_length_a       8.927605003505038
_cell_length_b       15.918204630919952
_cell_length_c       17.091098614864325
_cell_angle_alpha    114.9564892700999
_cell_angle_beta     91.29673047180351
_cell_angle_gamma    91.80857982912819

_space_group_name_H-M_alt    "P 1"
_space_group_IT_number       1

loop_
  _space_group_symop_operation_xyz
  'x, y, z'

loop_
  _atom_site_type_symbol
  _atom_site_label
  _atom_site_symmetry_multiplicity
  _atom_site_fract_x
  _atom_site_fract_y
  _atom_site_fract_z
  _atom_site_occupancy
  Hg  Hg1       1.0  0.0033992427059530003  0.23373377639485682  0.4785678481960857  1.0000
  Hg  Hg2       1.0  0.9966044794627251  0.7662652242175273  0.5214331332702926  1.0000
  H   H1        1.0  0.12183160661411559  0.442269096129003  0.505741283087012  1.0000
  H   H2        1.0  0.8781814730915513  0.5577347182931762  0.4942593424677995  1.0000
  H   H3        1.0  0.2700030144783839  0.5852279196771449  0.6062777089710066  1.0000
  H   H4        1.0  0.7300164447774548  0.4147717569292909  0.3937237665604414  1.0000
  H   H5        1.0  0.4246079051448675  0.5774899431631229  0.7293124863153366  1.0000
  H   H6        1.0  0.5754118414123112  0.42251393390181136  0.2706935291209475  1.0000
  H   H7        1.0  0.26313864371141443  0.2924535251855929  0.6389769264442718  1.0000
  H   H8        1.0  0.7368569430792957  0.7075550864050086  0.36101942501392864  1.0000
  H   H9        1.0  0.3896208749992595  0.39056992845455335  0.91641766189975  1.0000
  H   H10       1.0  0.6103817695859206  0.6094290188302696  0.08357918700722428  1.0000
  H   H11       1.0  0.5350216769205645  0.3551236057067726  0.02356693377289788  1.0000
  H   H12       1.0  0.4649752194921177  0.6448732515277558  0.9764278579713306  1.0000
  H   H13       1.0  0.8511841354991674  0.21133172959034144  0.8304342576024907  1.0000
  H   H14       1.0  0.14880717580142291  0.7886658742885901  0.1695642477907811  1.0000
  H   H15       1.0  0.7112176269799662  0.2529319825880449  0.7249748577624543  1.0000
  H   H16       1.0  0.2887740021296139  0.747069782761109  0.2750252473121789  1.0000
  H   H17       1.0  0.7416057753529088  0.46203686856451043  0.10107680365427293  1.0000
  H   H18       1.0  0.2583968143184876  0.5379621488992044  0.8989253376549512  1.0000
  H   H19       1.0  0.20957231809505572  0.5528002748198234  0.13116758450603067  1.0000
  H   H20       1.0  0.7904247718856824  0.4471993801211411  0.8688300378265197  1.0000
  H   H21       1.0  0.28347646350874106  0.3906648713669584  0.05392559542455895  1.0000
  H   H22       1.0  0.7165173083000766  0.6093347327584979  0.9460678618555178  1.0000
  H   H23       1.0  0.2996115526298979  0.20838037347802194  0.9684804053872825  1.0000
  H   H24       1.0  0.7003876498071263  0.7916194427016309  0.031529598376927495  1.0000
  H   H25       1.0  0.25735917422453264  0.0369486976996996  0.8930289743345412  1.0000
  H   H26       1.0  0.7426509846183935  0.9630476146349098  0.1069780946931544  1.0000
  H   H27       1.0  0.7777671629218331  0.0654040246300767  0.913605983447674  1.0000
  H   H28       1.0  0.22222557206859508  0.934596235341502  0.08638478397595864  1.0000
  H   H29       1.0  0.8510689421377647  0.31866480026841515  0.17779939851550347  1.0000
  H   H30       1.0  0.14893339073995554  0.6813299777485399  0.8221952626654172  1.0000
  H   H31       1.0  0.7117286160892248  0.26269012983510726  0.2724491699598275  1.0000
  H   H32       1.0  0.288264129158648  0.7373108782984232  0.7275459803902251  1.0000
  H   H33       1.0  0.400328875435875  0.1046359300413613  0.0610867405371138  1.0000
  H   H34       1.0  0.5996651531666258  0.8953679135308621  0.9389141968712735  1.0000
  H   H35       1.0  0.5438949363851506  0.15557310247604053  0.9653268315779328  1.0000
  H   H36       1.0  0.45609763165363393  0.8444258483153391  0.03466928306551863  1.0000
  H   H37       1.0  0.4291851569749454  0.9178673046376035  0.2470053494442013  1.0000
  H   H38       1.0  0.5708238080907081  0.0821268190507638  0.7529926708705474  1.0000
  H   H39       1.0  0.2597628866211679  0.1918759928561116  0.3302263747620273  1.0000
  H   H40       1.0  0.7402295979417985  0.8081223033451722  0.6697724134913372  1.0000
  H   H41       1.0  0.11970021375370979  0.0294990543628657  0.4533942862485034  1.0000
  H   H42       1.0  0.8803104054437298  0.9705027598127887  0.546611387419503  1.0000
  H   H43       1.0  0.2742195888848756  0.8988692000775275  0.3616328489008466  1.0000
  H   H44       1.0  0.7257875288300185  0.10113051373812  0.6383702120527843  1.0000
  C   C1        1.0  0.19067411755454342  0.4428592771725663  0.5596721257748456  1.0000
  C   C2        1.0  0.8093366114704496  0.5571423966453184  0.4403229630886544  1.0000
  C   C3        1.0  0.27461705387480617  0.5216493342535031  0.6153643014598984  1.0000
  C   C4        1.0  0.7253967570433275  0.4783496472570192  0.3846362381806117  1.0000
  C   C5        1.0  0.3591321815042292  0.5174038300298208  0.6829323702768377  1.0000
  C   C6        1.0  0.6408792360225135  0.48259306545998026  0.31706674898522635  1.0000
  C   C7        1.0  0.35838590487640687  0.43389504786444644  0.6917230177461207  1.0000
  C   C8        1.0  0.641613358575924  0.5661046903386693  0.3082811055711404  1.0000
  C   C9        1.0  0.2703348236001943  0.3580512948270426  0.6331378467980214  1.0000
  C   C10       1.0  0.7296647207872553  0.6419503681581066  0.3668553154660331  1.0000
  C   C11       1.0  0.44698009014250306  0.4294386861511796  0.7642519535383555  1.0000
  C   C12       1.0  0.5530308407623892  0.5705672972923566  0.23575590785570447  1.0000
  C   C13       1.0  0.542976874237027  0.322770103667338  0.8149194596407197  1.0000
  C   C14       1.0  0.4570234706900251  0.6772281603488182  0.1850776782043225  1.0000
  C   C15       1.0  0.4914596316328428  0.35206356453576143  0.8983328807940225  1.0000
  C   C16       1.0  0.5085351342836546  0.647935438327153  0.10166738265536422  1.0000
  C   C17       1.0  0.5726955048420521  0.330753011228289  0.957615832763416  1.0000
  C   C18       1.0  0.42730246915412107  0.6692438993337859  0.04238309154020932  1.0000
  C   C19       1.0  0.7027957424056552  0.2797719469963554  0.93419359190721  1.0000
  C   C20       1.0  0.29720259626614626  0.7202298264119663  0.06580778673603056  1.0000
  C   C21       1.0  0.7501232555973302  0.25040882104831047  0.8496903090533507  1.0000
  C   C22       1.0  0.24987471839884276  0.7495880895137648  0.15030861525027459  1.0000
  C   C23       1.0  0.6712887393275437  0.272421484436805  0.7898837375125396  1.0000
  C   C24       1.0  0.32870128057126646  0.7275740555583429  0.2101151278829008  1.0000
  C   C25       1.0  0.7991603077532543  0.26683553327212195  0.003272802607760598  1.0000
  C   C26       1.0  0.20083353338271337  0.7331655047959985  0.9967247161676056  1.0000
  C   C27       1.0  0.9014215474046239  0.3548076094262883  0.04640393130127048  1.0000
  C   C28       1.0  0.0985732429179933  0.6451913622460098  0.9535939799693408  1.0000
  C   C29       1.0  0.8589843336251449  0.44561840372028894  0.09047475864392142  1.0000
  C   C30       1.0  0.14101501940454142  0.5543819812752774  0.9095261030187415  1.0000
  C   C31       1.0  0.9725702398216068  0.5154803767786333  0.12044834684916586  1.0000
  C   C32       1.0  0.027428194529072396  0.48452203562448665  0.8795491820947703  1.0000
  C   C33       1.0  0.12410780388562163  0.4966862364201036  0.10722176667420767  1.0000
  C   C34       1.0  0.8758914085441561  0.5033120444473839  0.8927765310136877  1.0000
  C   C35       1.0  0.16505449276298384  0.4050434300028983  0.06297130473266319  1.0000
  C   C36       1.0  0.8349425217890812  0.5949547987930546  0.9370228441492968  1.0000
  C   C37       1.0  0.05344819279898161  0.3338848959087954  0.0321125569600156  1.0000
  C   C38       1.0  0.946543460716718  0.6661168382497422  0.9678851959358354  1.0000
  C   C39       1.0  0.062402125586942206  0.23352615196240126  0.9836211026900086  1.0000
  C   C40       1.0  0.9375929010144618  0.766475562832767  0.016375522856065926  1.0000
  C   C41       1.0  0.1857282242233325  0.1777906584871261  0.9563328284459232  1.0000
  C   C42       1.0  0.8142624701129505  0.8222146773794068  0.0436762380310043  1.0000
  C   C43       1.0  0.1624537350878015  0.08153442527063254  0.9139469301507575  1.0000
  C   C44       1.0  0.8375593834373589  0.9184708620824794  0.08606069712281789  1.0000
  C   C45       1.0  0.015934762912820595  0.04280869712003009  0.8995882230985756  1.0000
  C   C46       1.0  0.9840694664770029  0.9571965067094228  0.10041221766636706  1.0000
  C   C47       1.0  0.8906748271009874  0.09721099772500712  0.9248152116845105  1.0000
  C   C48       1.0  0.10932238712068448  0.9027900209797366  0.07518117974107233  1.0000
  C   C49       1.0  0.9158126220536856  0.19281271254871513  0.9663221298520738  1.0000
  C   C50       1.0  0.08418001725785731  0.8071869084280723  0.03367248727085582  1.0000
  C   C51       1.0  0.7057450904988088  0.24246579786721167  0.06520211498802554  1.0000
  C   C52       1.0  0.2942539996356643  0.75753035547924  0.934791854591019  1.0000
  C   C53       1.0  0.7519571866690528  0.2722795275976893  0.1518903798918316  1.0000
  C   C54       1.0  0.24804621353471384  0.7277145555848676  0.8481040309220658  1.0000
  C   C55       1.0  0.6736460415569854  0.24201179114895416  0.2056067541604563  1.0000
  C   C56       1.0  0.3263502173764934  0.7579913017492786  0.7943898328145806  1.0000
  C   C57       1.0  0.547780894161491  0.1826538395604658  0.17220984094695516  1.0000
  C   C58       1.0  0.45220974499633126  0.8173492830108418  0.8277884289294802  1.0000
  C   C59       1.0  0.49909541758679404  0.1512869220912592  0.08623403381466938  1.0000
  C   C60       1.0  0.5009008699087332  0.8487168955759544  0.9137651719527041  1.0000
  C   C61       1.0  0.5796232367506776  0.1812548097407785  0.033128651823218995  1.0000
  C   C62       1.0  0.4203769961385219  0.8187420749162938  0.9668685408393924  1.0000
  C   C63       1.0  0.44952491498570174  0.06819849778371181  0.2150152323187626  1.0000
  C   C64       1.0  0.5504702258638688  0.9318061160873938  0.7849918683966661  1.0000
  C   C65       1.0  0.3589680263182657  0.0569709758943944  0.2818895596102777  1.0000
  C   C66       1.0  0.6410299762399488  0.9430266594366686  0.7181119834856843  1.0000
  C   C67       1.0  0.3613889535710372  0.97314831233944  0.28992836295827834  1.0000
  C   C68       1.0  0.6386191907048016  0.026849997468133307  0.710073004925384  1.0000
  C   C69       1.0  0.268151101630643  0.1264336248734423  0.3358486378159142  1.0000
  C   C70       1.0  0.7318481088535268  0.8735654197513016  0.6641552188877851  1.0000
  C   C71       1.0  0.1891351213376566  0.03509614720495341  0.4038755233868585  1.0000
  C   C72       1.0  0.8108660363320723  0.9648987022469058  0.5961244139497806  1.0000
  C   C73       1.0  0.2760692330722847  0.9624788300467628  0.3524568887888647  1.0000
  C   C74       1.0  0.7239456044067936  0.037518747455685314  0.6475419577816764  1.0000
  Br  Br1       1.0  0.9175326840495827  0.6408034900755981  0.18204756042613468  1.0000
  Br  Br2       1.0  0.08245614843817609  0.35919213694977264  0.8179577572144083  1.0000
  Br  Br3       1.0  0.9867867434489809  0.9111067978312661  0.8452855209776329  1.0000
  Br  Br4       1.0  0.013210507646562104  0.08889645756167402  0.154723431182525  1.0000
  N   N1        1.0  0.18821566986773772  0.36301797533010227  0.5688814187131328  1.0000
  N   N2        1.0  0.8117795625047961  0.6369865215761978  0.43111686133187993  1.0000
  N   N3        1.0  0.18499549092791773  0.1151214330701009  0.39518943267958656  1.0000
  N   N4        1.0  0.815006886870819  0.8848748100801276  0.6048116421754058  1.0000
  Cl  Cl1       1.0  0.9537937705498296  0.17270748991948892  0.581280364837248  1.0000
  Cl  Cl2       1.0  0.04621371794221572  0.8272970789447528  0.4187245624113061  1.0000
  Cl  Cl3       1.0  0.9583705115507257  0.2980817284606587  0.37741917021386934  1.0000
  Cl  Cl4       1.0  0.0416263585102143  0.7019159237217423  0.6225835327249456  1.0000
  O   O1        1.0  0.49927003147939075  0.496930102077016  0.8267522257181523  1.0000
  O   O2        1.0  0.5007256794678412  0.5030660784304645  0.17324345925536727  1.0000
  O   O3        1.0  0.4639027930245092  0.33952461570810755  0.7512742502385521  1.0000
  O   O4        1.0  0.5360889705834424  0.6604792615667776  0.248729006855541  1.0000
  O   O5        1.0  0.466620195989357  0.1593214265337934  0.2304106769317684  1.0000
  O   O6        1.0  0.5333726063825922  0.840681031137706  0.7695897110029577  1.0000
  O   O7        1.0  0.502921543205268  0.0041817388196534  0.1548074184814823  1.0000
  O   O8        1.0  0.4970853362852239  0.9958159956303877  0.8452024872124966  1.0000
