data_image0
_chemical_formula_structural       Zn2H40C54N2O8F2
_chemical_formula_sum              "Zn2 H40 C54 N2 O8 F2"
_cell_length_a       10.367410891236032
_cell_length_b       11.012277514230094
_cell_length_c       11.836327176865744
_cell_angle_alpha    71.09945417637685
_cell_angle_beta     66.42282787643016
_cell_angle_gamma    65.27357451308193

_space_group_name_H-M_alt    "P 1"
_space_group_IT_number       1

loop_
  _space_group_symop_operation_xyz
  'x, y, z'

loop_
  _atom_site_type_symbol
  _atom_site_label
  _atom_site_symmetry_multiplicity
  _atom_site_fract_x
  _atom_site_fract_y
  _atom_site_fract_z
  _atom_site_occupancy
  Zn  Zn1       1.0  0.097695712963386  0.054765120443640604  0.3891487211700522  1.0000
  Zn  Zn2       1.0  0.9023075694899279  0.9452342865831088  0.6108457217499251  1.0000
  H   H1        1.0  0.212270900140048  0.11580261448996512  0.10342412733944427  1.0000
  H   H2        1.0  0.7877327573853987  0.8841957475854798  0.896575564443886  1.0000
  H   H3        1.0  0.369378445594208  0.2520225756637942  0.9405725026496088  1.0000
  H   H4        1.0  0.6306237879719774  0.7479768101457226  0.0594265377048585  1.0000
  H   H5        1.0  0.3717660607793931  0.3886746928563626  0.2431942795410151  1.0000
  H   H6        1.0  0.6282354330653775  0.611326724251967  0.7568052601223627  1.0000
  H   H7        1.0  0.2201320474168256  0.24516883465144454  0.3912590316405371  1.0000
  H   H8        1.0  0.7798722927429511  0.7548305440047117  0.6087401190289299  1.0000
  H   H9        1.0  0.5201108498406268  0.38907072497436707  0.8920411928547055  1.0000
  H   H10       1.0  0.4798909587821782  0.6109327130941296  0.10796017016381404  1.0000
  H   H11       1.0  0.4095052860375575  0.623380860725284  0.8765389545130448  1.0000
  H   H12       1.0  0.590491258105658  0.3766225839566387  0.12346424753251023  1.0000
  H   H13       1.0  0.2635530438802005  0.6834241782124907  0.1969735447734919  1.0000
  H   H14       1.0  0.7364470316176223  0.31657823107402555  0.8030312649417368  1.0000
  H   H15       1.0  0.9979416846000859  0.7424690677866297  0.3207056420823662  1.0000
  H   H16       1.0  0.0020576503745672677  0.25753537730668813  0.6792988210159623  1.0000
  H   H17       1.0  0.8158019722312064  0.718055719204081  0.24781796570024275  1.0000
  H   H18       1.0  0.18419810246485466  0.2819466945904168  0.7521859980891749  1.0000
  H   H19       1.0  0.9071256301305649  0.6301341568691045  0.049189054620221336  1.0000
  H   H20       1.0  0.09287797351483104  0.3698672350539313  0.9508139790614224  1.0000
  H   H21       1.0  0.09106055390550678  0.9131073715389634  0.8951187482112388  1.0000
  H   H22       1.0  0.9089387682410219  0.08689714568209442  0.10487218007403237  1.0000
  H   H23       1.0  0.22267623638779105  0.9310892975378736  0.021669483267458982  1.0000
  H   H24       1.0  0.7773179378585694  0.06890911701358961  0.9783259054322003  1.0000
  H   H25       1.0  0.44052689090325  0.014221425928347702  0.9142462777203164  1.0000
  H   H26       1.0  0.5594705658261176  0.9857708348001851  0.08575824228280735  1.0000
  H   H27       1.0  0.5296749218081799  0.0741887195436419  0.6808842706645066  1.0000
  H   H28       1.0  0.4703315868428107  0.9258075770317262  0.31912010767980087  1.0000
  H   H29       1.0  0.3942528456677509  0.05584729892887452  0.5563728879358936  1.0000
  H   H30       1.0  0.6057578094622612  0.9441520853151246  0.4436215181236775  1.0000
  H   H31       1.0  0.4833409524052286  0.6751722629325771  0.303588096431092  1.0000
  H   H32       1.0  0.5166564408229917  0.32482308173936053  0.6964096143605546  1.0000
  H   H33       1.0  0.6526548793905035  0.4342746234416596  0.2967260541680403  1.0000
  H   H34       1.0  0.34734462363834234  0.5657206960449843  0.7032751506418721  1.0000
  H   H35       1.0  0.5530423211746438  0.24423013440564031  0.4199882133976728  1.0000
  H   H36       1.0  0.4469553940474213  0.7557671906546092  0.5800189340814584  1.0000
  H   H37       1.0  0.2858809715941674  0.2949835150962771  0.5487390982460809  1.0000
  H   H38       1.0  0.7141142611604181  0.7050148665766116  0.4512618441288865  1.0000
  H   H39       1.0  0.1196891424575668  0.5357496637421519  0.5586266176825845  1.0000
  H   H40       1.0  0.8803043467491913  0.46424774775254474  0.44136677435349014  1.0000
  C   C1        1.0  0.2522472079625615  0.17692211609019642  0.12937589922178458  1.0000
  C   C2        1.0  0.7477560801030589  0.8230772593806606  0.8706244651789066  1.0000
  C   C3        1.0  0.3390535291960646  0.2533484035426099  0.039748543614912445  1.0000
  C   C4        1.0  0.6609483341085322  0.7466520001703075  0.9602503234311047  1.0000
  C   C5        1.0  0.38757606450728577  0.3305714328572193  0.07755191867379813  1.0000
  C   C6        1.0  0.6124240069817474  0.6694309989692119  0.9224486614123535  1.0000
  C   C7        1.0  0.34133969061037556  0.32935253345869603  0.20643950011567103  1.0000
  C   C8        1.0  0.6586614329728204  0.6706499015530343  0.7935598662392567  1.0000
  C   C9        1.0  0.25571018601183226  0.2502282997206322  0.29040271369439813  1.0000
  C   C10       1.0  0.7442941549497062  0.7497710744275423  0.7095972829008872  1.0000
  C   C11       1.0  0.4790362063265973  0.41570788634226835  0.9847083970130441  1.0000
  C   C12       1.0  0.5209631262427834  0.5842965722750009  0.015293528307836288  1.0000
  C   C13       1.0  0.40000882622066314  0.5757142797261422  0.9753513198964685  1.0000
  C   C14       1.0  0.5999891434853241  0.4242881322057456  0.024654225429579013  1.0000
  C   C15       1.0  0.23931909291952272  0.6230948468705223  0.052359454371625716  1.0000
  C   C16       1.0  0.7606799296823752  0.37690756373867623  0.9476457231490091  1.0000
  C   C17       1.0  0.18614943542132073  0.6718067590228429  0.16377093788525338  1.0000
  C   C18       1.0  0.8138520632339946  0.328194631037583  0.8362336773330202  1.0000
  C   C19       1.0  0.03532714355750236  0.7051299703236681  0.2342849115668457  1.0000
  C   C20       1.0  0.9646736145746501  0.2948734555435593  0.7657193570345271  1.0000
  C   C21       1.0  0.9337725004529102  0.6909263456333364  0.19417513527687896  1.0000
  C   C22       1.0  0.06622652214899458  0.3090760649758623  0.8058300422437626  1.0000
  C   C23       1.0  0.9826779407082353  0.6435904104341005  0.0830581355972201  1.0000
  C   C24       1.0  0.01732213478958758  0.35641199885241553  0.9169466741180161  1.0000
  C   C25       1.0  0.13290370957626865  0.6115745046564527  0.01580964785180323  1.0000
  C   C26       1.0  0.8670995254110636  0.38842789615402046  0.9841949043730198  1.0000
  C   C27       1.0  0.15066590859275641  0.981860698394897  0.641443382732831  1.0000
  C   C28       1.0  0.849340902008137  0.0181376912683788  0.3585492841535613  1.0000
  C   C29       1.0  0.2349703062468506  0.9839919251088606  0.7181748057914277  1.0000
  C   C30       1.0  0.7650364472669648  0.016009512433946303  0.281817819290012  1.0000
  C   C31       1.0  0.18720415382414743  0.94789126808179  0.8493515602646087  1.0000
  C   C32       1.0  0.8127983848989686  0.052110192783693804  0.1506391523352022  1.0000
  C   C33       1.0  0.26098526950085704  0.9590240744609562  0.9195888540111811  1.0000
  C   C34       1.0  0.7390127484728666  0.04097533917921942  0.08040742793583885  1.0000
  C   C35       1.0  0.3829502477146463  0.005716251154076699  0.8591883420845933  1.0000
  C   C36       1.0  0.6170524132001985  0.9942790688725011  0.14081091338327667  1.0000
  C   C37       1.0  0.43321336826631557  0.0395832830423544  0.728233698829108  1.0000
  C   C38       1.0  0.5667928232013818  0.9604110060967986  0.27176631838261767  1.0000
  C   C39       1.0  0.3588496247651633  0.028610751450131006  0.6583797434849787  1.0000
  C   C40       1.0  0.6411550261638508  0.9713906707061073  0.34161700091054575  1.0000
  C   C41       1.0  0.19166739962323473  0.7641313643248965  0.43934316697577463  1.0000
  C   C42       1.0  0.8083218884226967  0.2358659938567556  0.5606626933175392  1.0000
  C   C43       1.0  0.29130439327135343  0.619763049940801  0.4302614679899578  1.0000
  C   C44       1.0  0.7086951153697995  0.38023223798995803  0.5697456583006612  1.0000
  C   C45       1.0  0.4412738296517559  0.590728331966382  0.35573024252165203  1.0000
  C   C46       1.0  0.5587203510086667  0.4092700465212076  0.6442719135845396  1.0000
  C   C47       1.0  0.5354046205249715  0.45620505075560663  0.35222618375605214  1.0000
  C   C48       1.0  0.46458992719001185  0.5437923278605156  0.6477727619553235  1.0000
  C   C49       1.0  0.47951265052014946  0.34949062375514484  0.42190467437129797  1.0000
  C   C50       1.0  0.5204879046028594  0.6505046989168053  0.5780953167073831  1.0000
  C   C51       1.0  0.3294846341941877  0.3781446298672151  0.4947117746379989  1.0000
  C   C52       1.0  0.6705119654325813  0.6218557759511399  0.5052897773608721  1.0000
  C   C53       1.0  0.23589469474548252  0.5123942459729419  0.4998831643552607  1.0000
  C   C54       1.0  0.7641026454044563  0.4876041240386116  0.5001187342605178  1.0000
  N   N1        1.0  0.2127623795225517  0.1739818042559094  0.25289987619400023  1.0000
  N   N2        1.0  0.7872419598354695  0.8260175789082357  0.7470984285496486  1.0000
  O   O1        1.0  0.1992602559264256  0.019540213589273502  0.5229409046009152  1.0000
  O   O2        1.0  0.8007497109569497  0.9804581856298997  0.4770481210917978  1.0000
  O   O3        1.0  0.03586467291792431  0.9449649096376403  0.7000341131454634  1.0000
  O   O4        1.0  0.9641402831680141  0.05503858757457182  0.2999543034954043  1.0000
  O   O5        1.0  0.06896903176814817  0.7808868681389712  0.5284140626415875  1.0000
  O   O6        1.0  0.9310202482602107  0.21911053512251755  0.47158333839356464  1.0000
  O   O7        1.0  0.23637162273215737  0.8592787944457642  0.3584333052281822  1.0000
  O   O8        1.0  0.7636172878363752  0.1407196222111438  0.6415647684243382  1.0000
  F   F1        1.0  0.18143921428081455  0.5634493134124485  0.9069765522513578  1.0000
  F   F2        1.0  0.8185640207065177  0.43655308739802484  0.09302799997346503  1.0000
