data_image0
_chemical_formula_structural       Co2H28C44Br8N8O8
_chemical_formula_sum              "Co2 H28 C44 Br8 N8 O8"
_cell_length_a       7.324636907300679
_cell_length_b       9.394323910330337
_cell_length_c       19.532573828480317
_cell_angle_alpha    91.50660012076236
_cell_angle_beta     90.01335435631951
_cell_angle_gamma    112.92267400581225

_space_group_name_H-M_alt    "P 1"
_space_group_IT_number       1

loop_
  _space_group_symop_operation_xyz
  'x, y, z'

loop_
  _atom_site_type_symbol
  _atom_site_label
  _atom_site_symmetry_multiplicity
  _atom_site_fract_x
  _atom_site_fract_y
  _atom_site_fract_z
  _atom_site_occupancy
  Co  Co1       1.0  0.3553873421084006  0.00013060559968641367  0.7500085527577764  1.0000
  Co  Co2       1.0  0.6446067191193235  0.9998729091417147  0.2499902970611529  1.0000
  H   H1        1.0  0.0824252711461284  0.6610977610102041  0.7270341352131736  1.0000
  H   H2        1.0  0.4213586803000026  0.33913284362123625  0.7729075895370057  1.0000
  H   H3        1.0  0.9175761936039705  0.3389069087374352  0.2729647368960144  1.0000
  H   H4        1.0  0.5786409595863234  0.6608763684084809  0.2270939289048357  1.0000
  H   H5        1.0  0.7025104163098562  0.8647841057897169  0.6982008656649084  1.0000
  H   H6        1.0  0.8381458469214208  0.135540220075967  0.8017112707508716  1.0000
  H   H7        1.0  0.2974905909354745  0.1352169133927248  0.3018035692386718  1.0000
  H   H8        1.0  0.1618445136513458  0.8644586208476213  0.1982890261246055  1.0000
  H   H9        1.0  0.21003390112009154  0.4396969086700154  0.6710615624903937  1.0000
  H   H10       1.0  0.7702052146662695  0.5605121027369009  0.8288979859270214  1.0000
  H   H11       1.0  0.7899729674001676  0.5603076443496136  0.3289408917721488  1.0000
  H   H12       1.0  0.229799759617201  0.4394913937103838  0.1711013760617277  1.0000
  H   H13       1.0  0.4079637855333544  0.2842386311107674  0.5815753656131548  1.0000
  H   H14       1.0  0.12285588360594349  0.7157834548904844  0.9184214922256615  1.0000
  H   H15       1.0  0.5920317935920991  0.7157624551469369  0.4184270222455808  1.0000
  H   H16       1.0  0.8771506653912483  0.2842177289295266  0.0815778258830306  1.0000
  H   H17       1.0  0.7007484697964229  0.768654674584191  0.5403911892365797  1.0000
  H   H18       1.0  0.932528747458164  0.23141416274184934  0.9595628303842645  1.0000
  H   H19       1.0  0.299244731025297  0.23134984751259688  0.45961228784790353  1.0000
  H   H20       1.0  0.06747780153903447  0.7685870210781617  0.04043648772442761  1.0000
  H   H21       1.0  0.6049340632261175  0.45892684541175305  0.669417014265214  1.0000
  H   H22       1.0  0.14602582671899  0.541263804455518  0.8306223130109841  1.0000
  H   H23       1.0  0.39506913710546593  0.5410730999937315  0.3305848402425227  1.0000
  H   H24       1.0  0.8539741223458321  0.4587351011464379  0.16937593746174429  1.0000
  H   H25       1.0  0.7727483182024882  0.6496538958479974  0.6492965063615657  1.0000
  H   H26       1.0  0.12308103611626107  0.3504701588368135  0.850733852722847  1.0000
  H   H27       1.0  0.22725215183601213  0.35034604999329133  0.35070534802942877  1.0000
  H   H28       1.0  0.876914817508947  0.6495287474188418  0.1492643975747683  1.0000
  C   C1        1.0  0.11562416850560461  0.9767883151608036  0.641588050325339  1.0000
  C   C2        1.0  0.13937608575690055  0.02346127742139712  0.8584829356820051  1.0000
  C   C3        1.0  0.8843833833197506  0.023217609116478903  0.3584077737987101  1.0000
  C   C4        1.0  0.8606193752961031  0.9765341106763828  0.1415167837873099  1.0000
  C   C5        1.0  0.22984734324888478  0.6691569125231425  0.7141826571864129  1.0000
  C   C6        1.0  0.5607680567760623  0.3310808480156595  0.7857441773785894  1.0000
  C   C7        1.0  0.7701515601924597  0.3308453624963407  0.28581872938179487  1.0000
  C   C8        1.0  0.4392290705009429  0.6689260685913965  0.21425678530524547  1.0000
  C   C9        1.0  0.5499599215182869  0.7822601484371107  0.6998071663411523  1.0000
  C   C10       1.0  0.7679435057723083  0.21801402549247945  0.8000984246243731  1.0000
  C   C11       1.0  0.45004575083977016  0.21774200963646007  0.30019780243878097  1.0000
  C   C12       1.0  0.2320493755263441  0.7819871274046833  0.199901916306267  1.0000
  C   C13       1.0  0.9409538967278123  0.07426506419358253  0.5530358949153609  1.0000
  C   C14       1.0  0.8670207674417229  0.9257369613808354  0.9468772371474755  1.0000
  C   C15       1.0  0.059057390431242106  0.9257374074758007  0.4469593517441481  1.0000
  C   C16       1.0  0.1329711678447723  0.07425956691547239  0.0531230158479516  1.0000
  C   C17       1.0  0.2910572583642761  0.5596956769648004  0.6865262458331713  1.0000
  C   C18       1.0  0.7313831046537301  0.4405540046162386  0.8134001667991625  1.0000
  C   C19       1.0  0.708944560587625  0.44030423555675224  0.3134766320218673  1.0000
  C   C20       1.0  0.2686183357466517  0.5594506154786529  0.18660024041853518  1.0000
  C   C21       1.0  0.5609480200336706  0.5302208135791632  0.5688082813013011  1.0000
  C   C22       1.0  0.03055189921194309  0.4698452018799558  0.9311788776814822  1.0000
  C   C23       1.0  0.4390459762614824  0.46978256875490854  0.4311946621403279  1.0000
  C   C24       1.0  0.9694478321691233  0.5301559995804652  0.06881992843251078  1.0000
  C   C25       1.0  0.4477028717078965  0.3789088589882398  0.545864975379942  1.0000
  C   C26       1.0  0.06834855732517296  0.6211208686356642  0.9541467119452206  1.0000
  C   C27       1.0  0.5522897594407185  0.6210945235637341  0.45413796800330897  1.0000
  C   C28       1.0  0.9316525392024316  0.3788803326068619  0.0458520942271505  1.0000
  C   C29       1.0  0.6126850069342283  0.6506607531617165  0.5225665070215298  1.0000
  C   C30       1.0  0.9623037523191371  0.3493829977757842  0.977410991561939  1.0000
  C   C31       1.0  0.38730820200406396  0.34934378548599204  0.47743645836011683  1.0000
  C   C32       1.0  0.03769734420846767  0.6506182034667349  0.022587814610425003  1.0000
  C   C33       1.0  0.6198376355171504  0.5647420332519673  0.6432529198717133  1.0000
  C   C34       1.0  0.05506446604001517  0.43543344097753334  0.8567334823888048  1.0000
  C   C35       1.0  0.38016454354067264  0.4352613312237851  0.35675053562298586  1.0000
  C   C36       1.0  0.9449346794348087  0.5645665878362324  0.143265813429629  1.0000
  C   C37       1.0  0.11895521660907352  0.9182987577694989  0.5145417264456995  1.0000
  C   C38       1.0  0.2005967414812844  0.08180814409792701  0.9855832655459907  1.0000
  C   C39       1.0  0.8810580134861964  0.0817048697777238  0.4854535422705837  1.0000
  C   C40       1.0  0.7993958306233393  0.9181814635211512  0.014416343931330303  1.0000
  C   C41       1.0  0.06017200854500977  0.9930193608431427  0.5681910777284215  1.0000
  C   C42       1.0  0.06743959184954919  0.007113988338694807  0.931840632482654  1.0000
  C   C43       1.0  0.9398393029637545  0.006983160478988309  0.43180263382257766  1.0000
  C   C44       1.0  0.9325547217406795  0.9928791041185225  0.0681585312870254  1.0000
  Br  Br1       1.0  0.27483582896662284  0.8042407608592728  0.5344312039778671  1.0000
  Br  Br2       1.0  0.470511928345985  0.19603802784718743  0.965843533526218  1.0000
  Br  Br3       1.0  0.7251773767789371  0.19576281703519527  0.4655655998469257  1.0000
  Br  Br4       1.0  0.529484916299168  0.8039492005051514  0.0341580789991554  1.0000
  Br  Br5       1.0  0.857734910234683  0.17107828741028192  0.626353311783653  1.0000
  Br  Br6       1.0  0.6874641131908062  0.828864769395537  0.8734493829743569  1.0000
  Br  Br7       1.0  0.1422760005853121  0.8289206992030602  0.3736423806418756  1.0000
  Br  Br8       1.0  0.31252890610507933  0.17115851657306544  0.12654625843048  1.0000
  N   N1        1.0  0.39251396665502364  0.8078556067489019  0.7222437754501597  1.0000
  N   N2        1.0  0.5848962179185974  0.19238050064772955  0.7776787810932503  1.0000
  N   N3        1.0  0.6074888064256143  0.1921489469244264  0.2777586786372622  1.0000
  N   N4        1.0  0.4150985981997052  0.8076217915763595  0.22232209359700053  1.0000
  N   N5        1.0  0.49354691421304864  0.6327380886069919  0.6780468881666764  1.0000
  N   N6        1.0  0.8609026459444921  0.3675161790885683  0.8218661422349739  1.0000
  N   N7        1.0  0.5064587581450084  0.36726406946657875  0.32195808061325687  1.0000
  N   N8        1.0  0.13909239597413858  0.6324838338279762  0.1781336651111829  1.0000
  O   O1        1.0  0.9983261220456328  0.8691993876761546  0.6755995540780616  1.0000
  O   O2        1.0  0.1297455339987295  0.13113511846467676  0.8244782088411992  1.0000
  O   O3        1.0  0.00167324701705239  0.1308065544594399  0.3243957579929173  1.0000
  O   O4        1.0  0.8702568789759937  0.868865983254452  0.1755236676065621  1.0000
  O   O5        1.0  0.2845043333902949  0.07471025312252523  0.6637273843700625  1.0000
  O   O6        1.0  0.2103400741303501  0.925509646348793  0.8363386598938334  1.0000
  O   O7        1.0  0.7155012673822726  0.9252944987259967  0.3362689294000488  1.0000
  O   O8        1.0  0.789650746159644  0.07448465251061262  0.1636589905906121  1.0000
