data_image0
_chemical_formula_structural       Zn2H22C20O14
_chemical_formula_sum              "Zn2 H22 C20 O14"
_cell_length_a       6.532418714586166
_cell_length_b       9.516569718127254
_cell_length_c       9.893446124176553
_cell_angle_alpha    63.225592766663496
_cell_angle_beta     88.3624574992872
_cell_angle_gamma    100.45059427899301

_space_group_name_H-M_alt    "P 1"
_space_group_IT_number       1

loop_
  _space_group_symop_operation_xyz
  'x, y, z'

loop_
  _atom_site_type_symbol
  _atom_site_label
  _atom_site_symmetry_multiplicity
  _atom_site_fract_x
  _atom_site_fract_y
  _atom_site_fract_z
  _atom_site_occupancy
  Zn  Zn1       1.0  0.49786209612552323  0.33560481682150833  0.4019605653514374  1.0000
  Zn  Zn2       1.0  0.5021431427793246  0.6643992309638734  0.5980361117975193  1.0000
  H   H1        1.0  0.3851415651163351  0.3612942725435391  0.9551821596045826  1.0000
  H   H2        1.0  0.6148562587029717  0.6387088563395056  0.044818497081941175  1.0000
  H   H3        1.0  0.25643288934823977  0.982983240484906  0.8258384463839546  1.0000
  H   H4        1.0  0.7435858247531685  0.01700921484535202  0.17415937773989038  1.0000
  H   H5        1.0  0.21346822047611624  0.8648145032453415  0.302438100073786  1.0000
  H   H6        1.0  0.786516397005329  0.1351969790486295  0.6975442752672832  1.0000
  H   H7        1.0  0.2878204104187958  0.7189648952226622  0.9334351396074182  1.0000
  H   H8        1.0  0.712170368962049  0.2810474383902317  0.06655761599001407  1.0000
  H   H9        1.0  0.036739033039324936  0.77019745437962  0.9190058771007016  1.0000
  H   H10       1.0  0.9632477452361458  0.22979701919463486  0.08100595635163899  1.0000
  H   H11       1.0  0.8835493630528646  0.4969349040507966  0.1390511386416405  1.0000
  H   H12       1.0  0.11644218341142927  0.5030555603969873  0.8609434840601223  1.0000
  H   H13       1.0  0.13015759768531862  0.44405132571222355  0.13424123157103193  1.0000
  H   H14       1.0  0.8698462019439576  0.5559470944237007  0.865752542667245  1.0000
  H   H15       1.0  0.2028085148826548  0.46690681476470547  0.48483563777548966  1.0000
  H   H16       1.0  0.7971858865957487  0.5331029217362728  0.5151648997110313  1.0000
  H   H17       1.0  0.1678543034444147  0.5536282808312623  0.3104598740641293  1.0000
  H   H18       1.0  0.8321506757056627  0.44637204055411683  0.6895402254895941  1.0000
  H   H19       1.0  0.9087125946383808  0.3070002180047595  0.4178085044119939  1.0000
  H   H20       1.0  0.09128740743960861  0.6929892702327438  0.582192919302649  1.0000
  H   H21       1.0  0.7574581324745964  0.12643169470539561  0.489661920967542  1.0000
  H   H22       1.0  0.2425335575456558  0.8735679819886217  0.5103323584495173  1.0000
  C   C1        1.0  0.3393769226202608  0.1694832528107711  0.2627502817275911  1.0000
  C   C2        1.0  0.660638331935971  0.830525376451725  0.7372571321751591  1.0000
  C   C3        1.0  0.3564027954184681  0.29613266955078643  0.7090468626028538  1.0000
  C   C4        1.0  0.6435932876029187  0.7038652557129413  0.2909599106063608  1.0000
  C   C5        1.0  0.302315330499944  0.11815655672722161  0.1413821873961041  1.0000
  C   C6        1.0  0.697676216707535  0.8818166087579871  0.8586137024572051  1.0000
  C   C7        1.0  0.3375262504944844  0.23367176693130187  0.986749649463718  1.0000
  C   C8        1.0  0.6624765511401096  0.766324896137043  0.013250950213432562  1.0000
  C   C9        1.0  0.3168096487983405  0.18178555572217908  0.8756287040782239  1.0000
  C   C10       1.0  0.6831955901065145  0.8182184920632027  0.12436797307073275  1.0000
  C   C11       1.0  0.2629696984282006  0.017087069213445733  0.9168088316544568  1.0000
  C   C12       1.0  0.7370339432346996  0.9829209871988527  0.08319361873249419  1.0000
  C   C13       1.0  0.22123716680133754  0.9033364757392733  0.07048215564002899  1.0000
  C   C14       1.0  0.7787607967765099  0.09667094775579706  0.929537248829419  1.0000
  C   C15       1.0  0.24043985297407747  0.9540651659858812  0.18281286233182928  1.0000
  C   C16       1.0  0.7595446832244761  0.04592051749317963  0.8172064443875015  1.0000
  C   C17       1.0  0.1342551257493128  0.6954140930425442  0.9969993024044398  1.0000
  C   C18       1.0  0.8657441183491417  0.3045902989158763  0.0029865422400660586  1.0000
  C   C19       1.0  0.027029016998113803  0.5202663080837269  0.06462572095695414  1.0000
  C   C20       1.0  0.9729718752364889  0.4797407565859687  0.9353569773215183  1.0000
  O   O1        1.0  0.29724638888874483  0.07089218267761054  0.4028134054128572  1.0000
  O   O2        1.0  0.7027613487935582  0.929102165006171  0.5971927342835455  1.0000
  O   O3        1.0  0.4225826812636981  0.3206958765679462  0.21628426783089338  1.0000
  O   O4        1.0  0.5774302886821588  0.6793076147795463  0.7837130133495407  1.0000
  O   O5        1.0  0.16276213686254695  0.74077061172288  0.11803831535255684  1.0000
  O   O6        1.0  0.8372374846985552  0.25921522007668335  0.8819654979366119  1.0000
  O   O7        1.0  0.41080950551447876  0.2387819161051255  0.6229634267378543  1.0000
  O   O8        1.0  0.5891950513511476  0.761218899272457  0.37704465941900617  1.0000
  O   O9        1.0  0.3264538550336269  0.43958941335836965  0.6609902859744777  1.0000
  O   O10       1.0  0.6735453670368657  0.5604061946417006  0.33902013780289053  1.0000
  O   O11       1.0  0.16590484065608996  0.4476793486606142  0.39747307573922797  1.0000
  O   O12       1.0  0.8340996417783021  0.5523228021330555  0.60253249250907  1.0000
  O   O13       1.0  0.7693417312433654  0.24440244011800877  0.41971174207886003  1.0000
  O   O14       1.0  0.23066058734276854  0.7555945027985942  0.5802847262773553  1.0000
