data_image0
_chemical_formula_structural       Al4H100C104O28
_chemical_formula_sum              "Al4 H100 C104 O28"
_cell_length_a       6.668371499142328
_cell_length_b       25.040479776543837
_cell_length_c       29.32496399613449
_cell_angle_alpha    89.99989407358687
_cell_angle_beta     90.00015460926161
_cell_angle_gamma    90.00074739834251

_space_group_name_H-M_alt    "P 1"
_space_group_IT_number       1

loop_
  _space_group_symop_operation_xyz
  'x, y, z'

loop_
  _atom_site_type_symbol
  _atom_site_label
  _atom_site_symmetry_multiplicity
  _atom_site_fract_x
  _atom_site_fract_y
  _atom_site_fract_z
  _atom_site_occupancy
  Al  Al1       1.0  0.24411709900026318  0.7490836667501595  0.2500013607564497  1.0000
  Al  Al2       1.0  0.755864437165343  0.2509218794444763  0.7499914635105043  1.0000
  Al  Al3       1.0  0.7441237800600361  0.7509219611154236  0.2500180447653335  1.0000
  Al  Al4       1.0  0.2558712530022049  0.24907999088845395  0.7500088801426728  1.0000
  H   H1        1.0  0.7119696953274399  0.3802816329664936  0.6614684843034055  1.0000
  H   H2        1.0  0.28957443373631253  0.6195717626055454  0.3382283464760079  1.0000
  H   H3        1.0  0.28799758008551635  0.6197196963170342  0.1614595019442149  1.0000
  H   H4        1.0  0.7103613705580328  0.38042202684981413  0.8382369877338078  1.0000
  H   H5        1.0  0.21200093817073912  0.11970810414585027  0.8385257254112162  1.0000
  H   H6        1.0  0.789565700329895  0.8804571858600169  0.1617624101746102  1.0000
  H   H7        1.0  0.7880083547965953  0.8802725061706911  0.3385486462122529  1.0000
  H   H8        1.0  0.2103760902044698  0.11958248070688877  0.6617650652685612  1.0000
  H   H9        1.0  0.717577516088049  0.44485714688903494  0.5969363803582795  1.0000
  H   H10       1.0  0.28569267656554587  0.5552610230853005  0.40264382592900455  1.0000
  H   H11       1.0  0.282337122354093  0.5551427131725432  0.0969329649168884  1.0000
  H   H12       1.0  0.71421928115236  0.44472385249304125  0.9026571310891357  1.0000
  H   H13       1.0  0.21761474765639827  0.055131012329603386  0.903052713729231  1.0000
  H   H14       1.0  0.7856689455636002  0.9447343661914617  0.0973254477171608  1.0000
  H   H15       1.0  0.7823587049638049  0.9448558593002262  0.4030755247773996  1.0000
  H   H16       1.0  0.21421571117223692  0.0552818665113222  0.5973435575212703  1.0000
  H   H17       1.0  0.3054825508984678  0.3891091334551645  0.559084056632159  1.0000
  H   H18       1.0  0.6957061532062311  0.610243872005732  0.4403307623099479  1.0000
  H   H19       1.0  0.6944476155024119  0.6108832141519258  0.0590978981951906  1.0000
  H   H20       1.0  0.304226263364157  0.38975171123254887  0.9403397671995606  1.0000
  H   H21       1.0  0.8054632687235072  0.11089051328601583  0.9409166233199926  1.0000
  H   H22       1.0  0.19574797437103092  0.8896944962268734  0.0596405659630861  1.0000
  H   H23       1.0  0.19443317215100112  0.8891194454643526  0.4409075307837255  1.0000
  H   H24       1.0  0.8042241944880572  0.11025112599406842  0.5596629589066282  1.0000
  H   H25       1.0  0.3038473095623146  0.32738580622995533  0.6256120683321669  1.0000
  H   H26       1.0  0.69659158598661  0.6719192754547477  0.3738709519637027  1.0000
  H   H27       1.0  0.6960710612565253  0.672603613629761  0.125622735276913  1.0000
  H   H28       1.0  0.3033631252151636  0.32808203089328464  0.8738769932007386  1.0000
  H   H29       1.0  0.8038518403583056  0.17261423421584962  0.8743913398248466  1.0000
  H   H30       1.0  0.19666958030432372  0.8280450538751934  0.126114698469614  1.0000
  H   H31       1.0  0.19606989249505347  0.8273906652345672  0.3743833755671773  1.0000
  H   H32       1.0  0.803376270194697  0.17192280012867664  0.6261216409083303  1.0000
  H   H33       1.0  0.30498164230963454  0.5512894099727036  0.4804976324301932  1.0000
  H   H34       1.0  0.6951333613739479  0.4487213279295544  0.5196142030548003  1.0000
  H   H35       1.0  0.6949652976417015  0.4486977070192069  0.9805064995523836  1.0000
  H   H36       1.0  0.30477330187686397  0.5512922638464275  0.0196121560959384  1.0000
  H   H37       1.0  0.8049666121338177  0.9486960625637265  0.0194808465652301  1.0000
  H   H38       1.0  0.19511389570210722  0.05125876606324909  0.9803728471347312  1.0000
  H   H39       1.0  0.1949685401413817  0.0512955650714773  0.5194989649856296  1.0000
  H   H40       1.0  0.8047850529133456  0.9487059872944028  0.4803918983860598  1.0000
  H   H41       1.0  0.47322225487436503  0.48909787394782006  0.6101189790618095  1.0000
  H   H42       1.0  0.23108578830056814  0.5174519478023569  0.6038113712176099  1.0000
  H   H43       1.0  0.6170621294945278  0.5621335148096662  0.5609314667008647  1.0000
  H   H44       1.0  0.3774331043612307  0.5922363583358247  0.5577413376277534  1.0000
  H   H45       1.0  0.3744937262211678  0.6031685660333039  0.643970590311369  1.0000
  H   H46       1.0  0.5831523555811202  0.6361631297984757  0.6190436674092226  1.0000
  H   H47       1.0  0.6165506410730472  0.5737466246980105  0.6466860377981264  1.0000
  H   H48       1.0  0.40691852871312045  0.4752819116011294  0.4268512498162949  1.0000
  H   H49       1.0  0.620793016728001  0.4353928599040344  0.439132618726333  1.0000
  H   H50       1.0  0.6071776919490831  0.5226755821422914  0.3654526589861788  1.0000
  H   H51       1.0  0.8095125098593601  0.4789902594282012  0.37552908439187155  1.0000
  H   H52       1.0  0.5877934960527754  0.39987160301202357  0.3538704828562445  1.0000
  H   H53       1.0  0.6044848054276173  0.4470157415459611  0.3088453225899386  1.0000
  H   H54       1.0  0.38649493623343295  0.44467391923556926  0.3434622572337318  1.0000
  H   H55       1.0  0.5265952457449501  0.5109139403479616  0.11010674980316541  1.0000
  H   H56       1.0  0.7687600443391672  0.48256946353551194  0.1038267889011522  1.0000
  H   H57       1.0  0.38284109073932626  0.4378516407274661  0.060935062137630794  1.0000
  H   H58       1.0  0.6225165230318268  0.40776437838704993  0.05776337605284  1.0000
  H   H59       1.0  0.6253936230068292  0.3968547623039599  0.14398991905957098  1.0000
  H   H60       1.0  0.4167748457201768  0.3638486669087584  0.119068869429988  1.0000
  H   H61       1.0  0.38333527773754383  0.4262711072988025  0.14669783714501963  1.0000
  H   H62       1.0  0.5929895487027962  0.5246981236296263  0.9268409004636736  1.0000
  H   H63       1.0  0.3792143504240784  0.5646123103151268  0.9391539351249704  1.0000
  H   H64       1.0  0.3925158707995351  0.47732534112745373  0.865464915996256  1.0000
  H   H65       1.0  0.190287784518631  0.521046585773064  0.8755672024564163  1.0000
  H   H66       1.0  0.41214570786246435  0.6001345352976343  0.853889007411567  1.0000
  H   H67       1.0  0.3952388022203124  0.552998073614269  0.8088615421997218  1.0000
  H   H68       1.0  0.6132880401628142  0.5552947003043229  0.8434532177123089  1.0000
  H   H69       1.0  0.9733497365496149  0.0108931713306006  0.8898789569150622  1.0000
  H   H70       1.0  0.731145029872806  0.9825718098567221  0.8961533382353863  1.0000
  H   H71       1.0  0.1169135578009985  0.9378187609801002  0.9390615571780714  1.0000
  H   H72       1.0  0.8772364288135466  0.9077447777257106  0.9422148328204756  1.0000
  H   H73       1.0  0.8744997595419476  0.8968592845065544  0.8559808062769889  1.0000
  H   H74       1.0  0.0830091740074437  0.8638249698913041  0.8809220791472326  1.0000
  H   H75       1.0  0.11660325741004131  0.9262479811199354  0.8533069860836662  1.0000
  H   H76       1.0  0.9069366137126593  0.02473825101817079  0.0730874935904708  1.0000
  H   H77       1.0  0.1211953660948382  0.06455402513689988  0.0609350523024332  1.0000
  H   H78       1.0  0.10634093548711832  0.9771586447893056  0.1345091296432273  1.0000
  H   H79       1.0  0.309076061636901  0.0207284510262085  0.1245607343703483  1.0000
  H   H80       1.0  0.0879628215804118  0.09996254916941177  0.1462271999746818  1.0000
  H   H81       1.0  0.10385817588679201  0.0527206257835857  0.19119711574307977  1.0000
  H   H82       1.0  0.8861957311913146  0.0552635056310109  0.1564955845553087  1.0000
  H   H83       1.0  0.026537901175856905  0.9890949243945357  0.3899065382546425  1.0000
  H   H84       1.0  0.26873077165714687  0.0174314488077201  0.39617573583476684  1.0000
  H   H85       1.0  0.8828913588229526  0.0621592529849053  0.4390971193111781  1.0000
  H   H86       1.0  0.12258356470371722  0.0922384215926897  0.44224836973312887  1.0000
  H   H87       1.0  0.1253300263229349  0.10313686556464317  0.356018075398751  1.0000
  H   H88       1.0  0.916794256386666  0.1361667376639986  0.3809595577246442  1.0000
  H   H89       1.0  0.8832234605766375  0.07374058655452842  0.3533370723149716  1.0000
  H   H90       1.0  0.09301040860209038  0.9753067833635922  0.573162696845607  1.0000
  H   H91       1.0  0.8792087243101676  0.9353947901809645  0.5608646392916085  1.0000
  H   H92       1.0  0.8925789150752481  0.022691780654547192  0.6345391657383175  1.0000
  H   H93       1.0  0.6903384025734383  0.9789742344488062  0.6244490028370322  1.0000
  H   H94       1.0  0.9121945104452182  0.8998842610824623  0.6461247897766498  1.0000
  H   H95       1.0  0.895294061503293  0.9470246575124717  0.6911474825005044  1.0000
  H   H96       1.0  0.113342527405436  0.9447266508255581  0.6565595848267094  1.0000
  H   H97       1.0  0.4982359750106795  0.6796485334992965  0.2546527350920158  1.0000
  H   H98       1.0  0.5017486807219314  0.3203350388677961  0.7547944912531079  1.0000
  H   H99       1.0  0.9982534274005844  0.820316445773578  0.24506349166149732  1.0000
  H   H100      1.0  0.0017294838486208  0.1796627527331367  0.7452389541490376  1.0000
  C   C1        1.0  0.49224901868606713  0.8134206628654186  0.3124794611166735  1.0000
  C   C2        1.0  0.5072346383909191  0.1860812974034403  0.687975768263712  1.0000
  C   C3        1.0  0.5077371138105491  0.186570382416221  0.8124639002031628  1.0000
  C   C4        1.0  0.49280379728515566  0.8139331579541887  0.1879817800929899  1.0000
  C   C5        1.0  0.9922659503086493  0.6865682564875826  0.1875368518047225  1.0000
  C   C6        1.0  0.007195225260424799  0.313920906161357  0.8120259630208865  1.0000
  C   C7        1.0  0.0077409816742531  0.3134290275009377  0.687534761976579  1.0000
  C   C8        1.0  0.992766902338559  0.6860837179767924  0.3120283946394693  1.0000
  C   C9        1.0  0.8418452584867565  0.3828537168665136  0.6389968370992846  1.0000
  C   C10       1.0  0.15943943162277918  0.6168351447646431  0.3606004199681436  1.0000
  C   C11       1.0  0.15811094510159046  0.6171464590027113  0.1389960556172625  1.0000
  C   C12       1.0  0.8405164398342535  0.3831621944290049  0.8606107492258914  1.0000
  C   C13       1.0  0.3418634536072744  0.11714006611867941  0.8609956552506901  1.0000
  C   C14       1.0  0.6594467550856321  0.8831673931527176  0.1393814828927376  1.0000
  C   C15       1.0  0.6581269189184767  0.8828444930339501  0.36101346889650904  1.0000
  C   C16       1.0  0.3405259544981903  0.1168407690337006  0.63939504249187  1.0000
  C   C17       1.0  0.8449843618037248  0.4184501211515723  0.6026407516886039  1.0000
  C   C18       1.0  0.15704713937952866  0.581302638279638  0.3969946980040717  1.0000
  C   C19       1.0  0.1549589153097131  0.5815517243824502  0.1026413953194449  1.0000
  C   C20       1.0  0.8428871683005354  0.41868943692992394  0.8970066713911606  1.0000
  C   C21       1.0  0.34499874566305516  0.0815404779203561  0.8973493533215446  1.0000
  C   C22       1.0  0.6570267774958437  0.9186847158470853  0.1029810669832472  1.0000
  C   C23       1.0  0.6549685625844575  0.9184472037510998  0.3973647194231944  1.0000
  C   C24       1.0  0.3428940141486478  0.08131153800747631  0.6029984380905873  1.0000
  C   C25       1.0  0.011842129090489099  0.4219662058495075  0.5734008546361907  1.0000
  C   C26       1.0  0.9897514809093622  0.5776931041996107  0.4261660528734268  1.0000
  C   C27       1.0  0.988083904394493  0.5780269120077859  0.07340244820375122  1.0000
  C   C28       1.0  0.010192570353467502  0.4222989130354051  0.9261774171368771  1.0000
  C   C29       1.0  0.5118358692300831  0.07802602997222859  0.9265923510582681  1.0000
  C   C30       1.0  0.4897382720490667  0.9222738420234363  0.0738055884686659  1.0000
  C   C31       1.0  0.48810669342371676  0.9219723760704568  0.4265998838420941  1.0000
  C   C32       1.0  0.5101967692903742  0.07770170347823319  0.5738256778917332  1.0000
  C   C33       1.0  0.1763673318441974  0.3879962878729232  0.5817776977116437  1.0000
  C   C34       1.0  0.8249248498016328  0.6114893030279871  0.4176964562235526  1.0000
  C   C35       1.0  0.8235739120087046  0.6119952159403185  0.081783340963419  1.0000
  C   C36       1.0  0.17501298650320507  0.38850752327774524  0.9177041114807309  1.0000
  C   C37       1.0  0.6763550218643458  0.1120001143371283  0.9182236765134278  1.0000
  C   C38       1.0  0.32495219318580143  0.888468683563005  0.0822820209000028  1.0000
  C   C39       1.0  0.32357083114425933  0.8880078928032445  0.4182220757558213  1.0000
  C   C40       1.0  0.6750175556855853  0.11149366649162566  0.5822972628680247  1.0000
  C   C41       1.0  0.1756021497504321  0.3532113731093461  0.6187936296741654  1.0000
  C   C42       1.0  0.825117175792613  0.646182365547233  0.3806532438557468  1.0000
  C   C43       1.0  0.8243220452114457  0.6467804564386626  0.11880125948786709  1.0000
  C   C44       1.0  0.17483320993642337  0.35381812860519807  0.8806575483110207  1.0000
  C   C45       1.0  0.6756100902044294  0.1467878219478322  0.8812080856265823  1.0000
  C   C46       1.0  0.3251542670565258  0.8537971867967328  0.11934023751166481  1.0000
  C   C47       1.0  0.324328312827511  0.8532162652641802  0.3812092722611524  1.0000
  C   C48       1.0  0.6748599186146863  0.14618425863378093  0.6193475771229799  1.0000
  C   C49       1.0  0.0086816382861414  0.3504427364626467  0.647770657635597  1.0000
  C   C50       1.0  0.9921066729605386  0.649067214105763  0.3517154315262374  1.0000
  C   C51       1.0  0.9912462969512391  0.6495582206217636  0.1477700827130874  1.0000
  C   C52       1.0  0.0078384739556654  0.3509333375687476  0.8517163466978133  1.0000
  C   C53       1.0  0.5087009701360472  0.14955467999829608  0.852229368480998  1.0000
  C   C54       1.0  0.4921293672904952  0.8509288931421607  0.1482814440382469  1.0000
  C   C55       1.0  0.4912681836439958  0.850432292666831  0.3522452072827491  1.0000
  C   C56       1.0  0.5078690629714869  0.1490704656338124  0.6482829974800666  1.0000
  C   C57       1.0  0.17945081629358134  0.4911353498414853  0.5230767701630441  1.0000
  C   C58       1.0  0.8208366255117383  0.5085127761926316  0.4763383895762274  1.0000
  C   C59       1.0  0.820451436201914  0.5088578680169745  0.023079179780850702  1.0000
  C   C60       1.0  0.1790967117378202  0.4914859302986726  0.9763404124825215  1.0000
  C   C61       1.0  0.6794439583921132  0.0088454883366893  0.9769089174885508  1.0000
  C   C62       1.0  0.32081352170324356  0.9914603715169648  0.0236428159759896  1.0000
  C   C63       1.0  0.3204534023442775  0.9911336486291873  0.476924532212557  1.0000
  C   C64       1.0  0.6791082400352552  0.008515673041593202  0.5236589154395404  1.0000
  C   C65       1.0  0.1690199666579559  0.5289932669916765  0.4884049140072761  1.0000
  C   C66       1.0  0.8314579264086178  0.47058656982016345  0.5111381231761243  1.0000
  C   C67       1.0  0.8309031817305907  0.4709990258338904  0.9884130481292602  1.0000
  C   C68       1.0  0.1684485198567884  0.5294182530349119  0.0111327164436119  1.0000
  C   C69       1.0  0.6690103237538167  0.9709833462517066  0.0115739189095336  1.0000
  C   C70       1.0  0.33145410390778096  0.029403582812321395  0.9888608492854659  1.0000
  C   C71       1.0  0.33090813025381743  0.028995917119445394  0.5115913804826633  1.0000
  C   C72       1.0  0.668472055187088  0.9705799233355777  0.48887135098004114  1.0000
  C   C73       1.0  0.9911246632754356  0.5388343885683825  0.4640399602808571  1.0000
  C   C74       1.0  0.009203266962067897  0.46076501642662737  0.5353734944661639  1.0000
  C   C75       1.0  0.008797862235219603  0.46116394299599506  0.9640458022067621  1.0000
  C   C76       1.0  0.9907187949834294  0.5392281770193392  0.0353772000807027  1.0000
  C   C77       1.0  0.49112588398611484  0.9611397508062468  0.0359419111156356  1.0000
  C   C78       1.0  0.5091900826069634  0.03922161926016799  0.9646173244392244  1.0000
  C   C79       1.0  0.5087991914415112  0.0388358699553777  0.5359569519486911  1.0000
  C   C80       1.0  0.4907339570921678  0.9607675260289098  0.464625813731196  1.0000
  C   C81       1.0  0.37948903694443453  0.5136883165963154  0.5874781845033397  1.0000
  C   C82       1.0  0.47571316038118994  0.5680277060783255  0.5797164871783808  1.0000
  C   C83       1.0  0.5144180451697622  0.5968842044277664  0.6247995510053741  1.0000
  C   C84       1.0  0.5717578254044327  0.47413845190374104  0.4251445060047416  1.0000
  C   C85       1.0  0.6446897377829972  0.481781851407611  0.3763376159738741  1.0000
  C   C86       1.0  0.5509832898636802  0.4410724368069125  0.34389328457327656  1.0000
  C   C87       1.0  0.6203863699851058  0.4863239421500864  0.08747894658014128  1.0000
  C   C88       1.0  0.5241905407069822  0.43197658107208536  0.07972519434131442  1.0000
  C   C89       1.0  0.48548231030790834  0.40313596721917816  0.12481649526264958  1.0000
  C   C90       1.0  0.428160706378229  0.5258607556826574  0.9251515616574154  1.0000
  C   C91       1.0  0.3550955802111346  0.5182290342111812  0.8763556038042353  1.0000
  C   C92       1.0  0.4488131950238738  0.5589233379087943  0.843904373870238  1.0000
  C   C93       1.0  0.8794978929403853  0.9863107978488515  0.9125042432163468  1.0000
  C   C94       1.0  0.9756145826829083  0.9319561680802194  0.9202563832454516  1.0000
  C   C95       1.0  0.0143681150238777  0.9031140395458053  0.8751709761527664  1.0000
  C   C96       1.0  0.0717777334084033  0.025809060698868798  0.07485599143875989  1.0000
  C   C97       1.0  0.1442426368359193  0.018049702195455097  0.1236802659926326  1.0000
  C   C98       1.0  0.050702468622255005  0.05876558016959171  0.1561321084164504  1.0000
  C   C99       1.0  0.12036183066193469  0.0136804476761156  0.4125317763918872  1.0000
  C   C100      1.0  0.024216846507833595  0.0680330652071532  0.42029440392231265  1.0000
  C   C101      1.0  0.9854396669917379  0.09687168915190367  0.3752061282701575  1.0000
  C   C102      1.0  0.9281798284145707  0.974149709928696  0.5748595059678294  1.0000
  C   C103      1.0  0.8551463158180398  0.9817887650447973  0.6236558117561657  1.0000
  C   C104      1.0  0.948861269882329  0.9410963847107895  0.6561066917850624  1.0000
  O   O1        1.0  0.6633205871290074  0.8011313672821601  0.20428325221969598  1.0000
  O   O2        1.0  0.33690540056282703  0.19918647317614094  0.7962098281376626  1.0000
  O   O3        1.0  0.3366912721991753  0.19887706531557814  0.704283372837601  1.0000
  O   O4        1.0  0.6630638208958858  0.8008229746517088  0.2962175512165217  1.0000
  O   O5        1.0  0.16327362873907697  0.6988751775581006  0.295713995559261  1.0000
  O   O6        1.0  0.8369118416266658  0.30082366608014866  0.7037983509616339  1.0000
  O   O7        1.0  0.8366685865157991  0.3011170990142134  0.7957210552268065  1.0000
  O   O8        1.0  0.16309100739660204  0.6991839687737523  0.2037837886595852  1.0000
  O   O9        1.0  0.32269430400899785  0.7977501559117927  0.29757477541441807  1.0000
  O   O10       1.0  0.6767608618387442  0.20178415187664464  0.702934673955113  1.0000
  O   O11       1.0  0.6772899473390409  0.2022253442191229  0.797555420585681  1.0000
  O   O12       1.0  0.323270458874795  0.7982462478467269  0.2029594840332365  1.0000
  O   O13       1.0  0.822688389174033  0.7022170079400996  0.20245485287257736  1.0000
  O   O14       1.0  0.1767247969559165  0.2982250309710394  0.7970643131781046  1.0000
  O   O15       1.0  0.17729043114693607  0.29777066187412515  0.702440497449345  1.0000
  O   O16       1.0  0.8232264512875388  0.7017963957247699  0.2970752592322158  1.0000
  O   O17       1.0  0.49545206068575004  0.7178502774756054  0.24988475131151944  1.0000
  O   O18       1.0  0.5045264734488271  0.2821572657019971  0.7498853957836289  1.0000
  O   O19       1.0  0.9954617724464965  0.7821642116317302  0.250120649079939  1.0000
  O   O20       1.0  0.0045302642929599  0.21784692528565586  0.7501163357543206  1.0000
  O   O21       1.0  0.3597723107127351  0.48374920110943986  0.5455848944366721  1.0000
  O   O22       1.0  0.6404371791458559  0.5167783003980021  0.4543465482242439  1.0000
  O   O23       1.0  0.6401095228107893  0.5162531571017438  0.0455808294315645  1.0000
  O   O24       1.0  0.359498595113017  0.4832208491638426  0.9543550472404762  1.0000
  O   O25       1.0  0.8597712373670205  0.0162410500184933  0.9544021401131175  1.0000
  O   O26       1.0  0.14043822688814336  0.9831854341427757  0.045633310435754  1.0000
  O   O27       1.0  0.14012554811959888  0.9837437226291286  0.45442528672226257  1.0000
  O   O28       1.0  0.8595095904050538  0.016782979032086597  0.5456476736169051  1.0000
