data_image0
_chemical_formula_structural       Zn2H52C60S2N8O16
_chemical_formula_sum              "Zn2 H52 C60 S2 N8 O16"
_cell_length_a       10.139573808919112
_cell_length_b       11.381315056853332
_cell_length_c       13.6568
_cell_angle_alpha    74.22559411812867
_cell_angle_beta     72.08120542823502
_cell_angle_gamma    71.7538964021238

_space_group_name_H-M_alt    "P 1"
_space_group_IT_number       1

loop_
  _space_group_symop_operation_xyz
  'x, y, z'

loop_
  _atom_site_type_symbol
  _atom_site_label
  _atom_site_symmetry_multiplicity
  _atom_site_fract_x
  _atom_site_fract_y
  _atom_site_fract_z
  _atom_site_occupancy
  Zn  Zn1       1.0  0.3542352288355842  0.2535231685122525  0.46926898445047277  1.0000
  Zn  Zn2       1.0  0.6457662944651047  0.7464813222022855  0.5307402676091115  1.0000
  H   H1        1.0  0.5602807653832613  0.1566874207393028  0.9111693871044935  1.0000
  H   H2        1.0  0.43974440281324695  0.8433104682023469  0.08883888834694888  1.0000
  H   H3        1.0  0.9877763805073697  0.21688521522686702  0.36885412841131443  1.0000
  H   H4        1.0  0.012224984615485789  0.7831089012731384  0.6311465265707453  1.0000
  H   H5        1.0  0.39992995917607743  0.066069599912673  0.6664369521616893  1.0000
  H   H6        1.0  0.6000744787744878  0.9339282890289766  0.333569468587129  1.0000
  H   H7        1.0  0.4763385731761289  0.0580503320794392  0.8240093798513399  1.0000
  H   H8        1.0  0.5236691211480391  0.9419324670956258  0.176002644646772  1.0000
  H   H9        1.0  0.49720433712632683  0.44740026212795675  0.7032103649275643  1.0000
  H   H10       1.0  0.5028157953454054  0.5525825370471011  0.2968017472617888  1.0000
  H   H11       1.0  0.413781195502331  0.4407928305814863  0.5521568844358455  1.0000
  H   H12       1.0  0.5862412896404906  0.5592144894642885  0.4478440093564373  1.0000
  H   H13       1.0  0.6112675439754939  0.3766773554424745  0.018747879729396275  1.0000
  H   H14       1.0  0.38875239360923086  0.6232988419597021  0.981265772642118  1.0000
  H   H15       1.0  0.6167232359876493  0.21460948980271163  0.035617912741194906  1.0000
  H   H16       1.0  0.3832638495592278  0.7853874560285306  0.9643853631330473  1.0000
  H   H17       1.0  0.4332984251628105  0.3572068409867271  0.1723460773968881  1.0000
  H   H18       1.0  0.5666940378325691  0.6427967066173963  0.8276530099680387  1.0000
  H   H19       1.0  0.33120365564625587  0.41117067565097193  0.0786537769984221  1.0000
  H   H20       1.0  0.668798404265168  0.5888319288427439  0.9213345449727512  1.0000
  H   H21       1.0  0.43008708590112826  0.1375102136216881  0.1890646974848806  1.0000
  H   H22       1.0  0.569912900985706  0.8624923908720207  0.8109394749834564  1.0000
  H   H23       1.0  0.3450847163084276  0.1792456786839338  0.08426458232744241  1.0000
  H   H24       1.0  0.6549137341645448  0.8207550395889527  0.915735975021562  1.0000
  H   H25       1.0  0.21072196054787903  0.270843391228631  0.2938361794200546  1.0000
  H   H26       1.0  0.7892744536096784  0.7291535546026111  0.7061642332787982  1.0000
  H   H27       1.0  0.1299581690814549  0.3107926051705476  0.18844909603286908  1.0000
  H   H28       1.0  0.8700376717561866  0.6892099993231611  0.8115530945758423  1.0000
  H   H29       1.0  0.7758243920893833  0.1725731725190371  0.4886225885518344  1.0000
  H   H30       1.0  0.22417797283659277  0.8274247164226196  0.5113747866716523  1.0000
  H   H31       1.0  0.6221413776916265  0.0206371420353904  0.5634275574729983  1.0000
  H   H32       1.0  0.37786048733278227  0.9793588606854442  0.43656962703988716  1.0000
  H   H33       1.0  0.9127411071257114  0.757071509018637  0.3935779139330648  1.0000
  H   H34       1.0  0.08725998969176632  0.2429235505917759  0.6064240531437548  1.0000
  H   H35       1.0  0.07883368080335634  0.8966216704614851  0.3106970290714203  1.0000
  H   H36       1.0  0.9211720986740558  0.1033715029281055  0.6893035634395588  1.0000
  H   H37       1.0  0.9486897955456614  0.45889017627735745  0.3683546485536197  1.0000
  H   H38       1.0  0.051311301271823595  0.5411048833330626  0.6316370672198205  1.0000
  H   H39       1.0  0.8358890172064903  0.5665792386716006  0.21676314232569652  1.0000
  H   H40       1.0  0.16409917827104445  0.4334101622763455  0.7832320702693778  1.0000
  H   H41       1.0  0.12448925227873528  0.8104430703441424  0.10462089051775086  1.0000
  H   H42       1.0  0.8755141124503542  0.1895585910391588  0.8953644181156974  1.0000
  H   H43       1.0  0.2339184909948884  0.703022794417322  0.2568777302639376  1.0000
  H   H44       1.0  0.7660880199802732  0.2969750945243348  0.7431113755158025  1.0000
  H   H45       1.0  0.07703816094228708  0.5756057484248558  0.9218342966336837  1.0000
  H   H46       1.0  0.9229415221818017  0.4244062871729781  0.0781555357439885  1.0000
  H   H47       1.0  0.2907489658771071  0.5834769479234083  0.7704282390129152  1.0000
  H   H48       1.0  0.709233558478509  0.4165360307848402  0.22956365961827876  1.0000
  H   H49       1.0  0.25370066916887174  0.9658205107211799  0.7840998355369991  1.0000
  H   H50       1.0  0.7463070364964182  0.0341877524350096  0.2159027562009044  1.0000
  H   H51       1.0  0.035656336158361154  0.9628091591756629  0.9294790465851009  1.0000
  H   H52       1.0  0.9643467235561827  0.03719721775969731  0.07052796270617288  1.0000
  C   C1        1.0  0.4199219119452593  0.1495301558226316  0.6781127687870241  1.0000
  C   C2        1.0  0.580086903650681  0.8504705624502549  0.3218912787391375  1.0000
  C   C3        1.0  0.46406511819991186  0.1447674482420354  0.7655040623672775  1.0000
  C   C4        1.0  0.5359435759273765  0.8552191233746741  0.23450321790035383  1.0000
  C   C5        1.0  0.4909497560481952  0.2526064651917821  0.7785762565270816  1.0000
  C   C6        1.0  0.5090612426998788  0.7473829357561641  0.221435714183599  1.0000
  C   C7        1.0  0.4748699077446902  0.3616187114940672  0.6996534965774615  1.0000
  C   C8        1.0  0.5251395178803477  0.6383725756747012  0.3003598706218682  1.0000
  C   C9        1.0  0.4303289374098469  0.3579933950703378  0.61431199129661  1.0000
  C   C10       1.0  0.5696831826099996  0.6420139249754371  0.3856941991499809  1.0000
  C   C11       1.0  0.5154653523293221  0.3451963298899088  0.9148062650319632  1.0000
  C   C12       1.0  0.48453118329688755  0.6548147625975176  0.0851989695209241  1.0000
  C   C13       1.0  0.5500684691743274  0.3114905068754297  0.020418663294442762  1.0000
  C   C14       1.0  0.4499253353478921  0.6885083251766346  0.9795929017315359  1.0000
  C   C15       1.0  0.41161222530772085  0.3301810690204476  0.1087024027076566  1.0000
  C   C16       1.0  0.5883784696776075  0.6698177630316167  0.8913018180359487  1.0000
  C   C17       1.0  0.3541096134569273  0.2128270111240269  0.1496125784772744  1.0000
  C   C18       1.0  0.6458857274791542  0.7871737071488597  0.8503886891848751  1.0000
  C   C19       1.0  0.20828043648220526  0.2359341593284441  0.22668621301933461  1.0000
  C   C20       1.0  0.7917123315277196  0.7640646727236203  0.7733153374743152  1.0000
  C   C21       1.0  0.1516361174007201  0.11931949999502932  0.2660421984869146  1.0000
  C   C22       1.0  0.8483604916438522  0.8806840476090941  0.733950083906173  1.0000
  C   C23       1.0  0.9405149770777117  0.0477421352762732  0.390712786259023  1.0000
  C   C24       1.0  0.059486119739773496  0.9522529243341397  0.6092811262222853  1.0000
  C   C25       1.0  0.8103755106522854  0.0814187218679763  0.46477853515929723  1.0000
  C   C26       1.0  0.18963100032287641  0.9185791670736734  0.5352142318002251  1.0000
  C   C27       1.0  0.7237746326782998  0.9977400826153229  0.5065797376358108  1.0000
  C   C28       1.0  0.27622873205078946  0.0022615787679783  0.49341435782911  1.0000
  C   C29       1.0  0.8855800484666076  0.8505441250623917  0.4117576322635729  1.0000
  C   C30       1.0  0.11442127994706648  0.149453763879265  0.5882392474950111  1.0000
  C   C31       1.0  0.9788034985224103  0.9274179978549384  0.36590929392473737  1.0000
  C   C32       1.0  0.021199671319664003  0.07257706175547442  0.6340863417223375  1.0000
  C   C33       1.0  0.17974208596368166  0.5018884661812706  0.4041042377184496  1.0000
  C   C34       1.0  0.8202441579579157  0.4981150814228599  0.5958926090929921  1.0000
  C   C35       1.0  0.10167758271307291  0.5719606266824755  0.31910834194510335  1.0000
  C   C36       1.0  0.8983264287542883  0.42802783115506327  0.6808929905288252  1.0000
  C   C37       1.0  0.9879343150874933  0.5344286047265143  0.3092364502058089  1.0000
  C   C38       1.0  0.012064671996221027  0.46557022732555  0.6907614829536756  1.0000
  C   C39       1.0  0.9241442326831688  0.5946650667409656  0.22572046825918332  1.0000
  C   C40       1.0  0.07585294968131255  0.405332822200684  0.7742751618757283  1.0000
  C   C41       1.0  0.9752474262100748  0.6924722182382723  0.1519294008449848  1.0000
  C   C42       1.0  0.024748256449726128  0.3075200120409107  0.8480568703266513  1.0000
  C   C43       1.0  0.08593103698172655  0.7334796020624523  0.1621477994936882  1.0000
  C   C44       1.0  0.9140734743871947  0.2665107419959014  0.8378449368593693  1.0000
  C   C45       1.0  0.1478902262128585  0.6731790085399822  0.2464787698063802  1.0000
  C   C46       1.0  0.8521155899737279  0.32681039240796395  0.7535197400404315  1.0000
  C   C47       1.0  0.04457502073948663  0.7692913906269254  0.9338324736453602  1.0000
  C   C48       1.0  0.9554011263645066  0.23071121386679042  0.06617201890541222  1.0000
  C   C49       1.0  0.11417896554549159  0.6616211904409184  0.889979203486412  1.0000
  C   C50       1.0  0.8858095462877174  0.3383889589360862  0.11001270065695226  1.0000
  C   C51       1.0  0.23318894530483186  0.6658849926135773  0.8055736786902801  1.0000
  C   C52       1.0  0.7668026393560865  0.334128929205086  0.19441886556815297  1.0000
  C   C53       1.0  0.2850603404165851  0.7746218506755511  0.7677878847832816  1.0000
  C   C54       1.0  0.7149382682342208  0.22538924181186812  0.2322066249241317  1.0000
  C   C55       1.0  0.2138652599953801  0.8813159315851351  0.813004862551786  1.0000
  C   C56       1.0  0.7861339219753417  0.11868950223981761  0.18699372713341222  1.0000
  C   C57       1.0  0.09222647763568408  0.8796032430769429  0.8952222984480045  1.0000
  C   C58       1.0  0.9077696315073212  0.1203984183063582  0.10477711559403961  1.0000
  C   C59       1.0  0.417955418903908  0.7754791380400619  0.6807831740409043  1.0000
  C   C60       1.0  0.5820318248208026  0.22452818200571303  0.31922723443894807  1.0000
  S   S1        1.0  0.8949975607927453  0.7648483974759941  0.04377938791718342  1.0000
  S   S2        1.0  0.10499432888271798  0.235160808790603  0.9562214773576089  1.0000
  N   N1        1.0  0.4024425252122512  0.2546266076942914  0.6030424170718476  1.0000
  N   N2        1.0  0.5975674850738245  0.745384484793135  0.39696340063718333  1.0000
  N   N3        1.0  0.5326159641205522  0.2449936779461197  0.8685505495709195  1.0000
  N   N4        1.0  0.4673998754652829  0.755004210995537  0.131459124584012  1.0000
  N   N5        1.0  0.024809764137010904  0.1328210686532287  0.34470097949564865  1.0000
  N   N6        1.0  0.9751892229467032  0.8671777633988428  0.6552932924840604  1.0000
  N   N7        1.0  0.7588574572141055  0.8840330326821048  0.4802672695753927  1.0000
  N   N8        1.0  0.2411397251503757  0.115964856259545  0.5197298250314333  1.0000
  O   O1        1.0  0.4708900034173098  0.4552167612226157  0.8729870783174007  1.0000
  O   O2        1.0  0.5291234214202092  0.5447896157127445  0.1270124376116969  1.0000
  O   O3        1.0  0.21066767351213406  0.0214717947500063  0.23129215853258964  1.0000
  O   O4        1.0  0.7893297037393625  0.9785326959645319  0.7686997347122928  1.0000
  O   O5        1.0  0.23007665342636593  0.5588513919556704  0.44408876019197413  1.0000
  O   O6        1.0  0.7699155779728171  0.4411493263172162  0.5559066276597235  1.0000
  O   O7        1.0  0.1890519922171734  0.3813683866317632  0.4256735270894439  1.0000
  O   O8        1.0  0.8109316053599189  0.6186408196348339  0.5743387514211662  1.0000
  O   O9        1.0  0.819618459902834  0.6793186573221064  0.03616231828824107  1.0000
  O   O10       1.0  0.1803747712994692  0.3206858333924316  0.9638312542767979  1.0000
  O   O11       1.0  0.8179263620999605  0.8943506605893888  0.05287388142746612  1.0000
  O   O12       1.0  0.1820667109245093  0.1056434559106165  0.9471250065432102  1.0000
  O   O13       1.0  0.4740716619703491  0.6796412010830082  0.6360400496747829  1.0000
  O   O14       1.0  0.5259198859813878  0.3203764931772994  0.36395897066354627  1.0000
  O   O15       1.0  0.4729012726977191  0.8691535797119769  0.6531609739998743  1.0000
  O   O16       1.0  0.5270930317260607  0.1308471385609096  0.3468441916131085  1.0000
