data_image0
_chemical_formula_structural       Cu4H28C28N4O24
_chemical_formula_sum              "Cu4 H28 C28 N4 O24"
_cell_length_a       7.069025831034196
_cell_length_b       9.066752372804139
_cell_length_c       13.624801966042805
_cell_angle_alpha    89.99998177158925
_cell_angle_beta     89.99973072167161
_cell_angle_gamma    106.92040873449548

_space_group_name_H-M_alt    "P 1"
_space_group_IT_number       1

loop_
  _space_group_symop_operation_xyz
  'x, y, z'

loop_
  _atom_site_type_symbol
  _atom_site_label
  _atom_site_symmetry_multiplicity
  _atom_site_fract_x
  _atom_site_fract_y
  _atom_site_fract_z
  _atom_site_occupancy
  Cu  Cu1       1.0  0.8500030631858947  0.15689925584837286  0.935856951609573  1.0000
  Cu  Cu2       1.0  0.6499959520260746  0.3431030720416572  0.435855046931863  1.0000
  Cu  Cu3       1.0  0.14999612399348913  0.8431023674299639  0.06414304729032241  1.0000
  Cu  Cu4       1.0  0.3500042049929633  0.6568973894337731  0.5641456859225898  1.0000
  H   H1        1.0  0.5886453944429917  0.36783336310118403  0.021908552299514404  1.0000
  H   H2        1.0  0.9113509979932957  0.13215975687965195  0.521908844317295  1.0000
  H   H3        1.0  0.4113563479928573  0.6321601545667477  0.97808924473123  1.0000
  H   H4        1.0  0.08864774781007874  0.8678407135967207  0.4780911545832539  1.0000
  H   H5        1.0  0.1655902411891077  0.2470186981327843  0.25930922925903843  1.0000
  H   H6        1.0  0.3344050664183058  0.2529918047641644  0.7593074823963877  1.0000
  H   H7        1.0  0.8344132667433968  0.7529794307409715  0.7406900356803165  1.0000
  H   H8        1.0  0.6655884758762269  0.7470098545118306  0.2406939844216397  1.0000
  H   H9        1.0  0.30191833904700627  0.27528377106328616  0.9054461576001247  1.0000
  H   H10       1.0  0.19807787083230005  0.22470666545657988  0.40544489389161953  1.0000
  H   H11       1.0  0.6980815507786743  0.7247086027985361  0.09455457525548643  1.0000
  H   H12       1.0  0.8019233431140194  0.7752891668090954  0.5945573068732629  1.0000
  H   H13       1.0  0.4852509633954654  0.012383573210655602  0.8939052426519967  1.0000
  H   H14       1.0  0.014749248077158928  0.4876207379710068  0.3939073082589105  1.0000
  H   H15       1.0  0.5147486651636299  0.9876192028706614  0.10609402229161452  1.0000
  H   H16       1.0  0.9852494977262155  0.5123797325053661  0.6060926906416385  1.0000
  H   H17       1.0  0.6309085584691161  0.06697640031566719  0.7981488049429973  1.0000
  H   H18       1.0  0.8690946670838073  0.4330262919115242  0.2981500162594487  1.0000
  H   H19       1.0  0.369091070089979  0.9330263757656565  0.20185046000061396  1.0000
  H   H20       1.0  0.13090504856661767  0.5669730167639742  0.7018492486844183  1.0000
  H   H21       1.0  0.8182874687633516  0.4142899454807534  0.845073992876408  1.0000
  H   H22       1.0  0.6817123743160565  0.0857161018664314  0.3450749997444831  1.0000
  H   H23       1.0  0.1817135710188041  0.5857128216016607  0.15492453810985304  1.0000
  H   H24       1.0  0.3182891068347189  0.9142878180159215  0.6549249991523711  1.0000
  H   H25       1.0  0.01948624564818861  0.4731446009583777  0.8988570285353819  1.0000
  H   H26       1.0  0.48051303317384253  0.0268573908733813  0.39885731767174104  1.0000
  H   H27       1.0  0.9805147941302721  0.5268581661230274  0.10114223640650982  1.0000
  H   H28       1.0  0.5194865953815508  0.9731453852069193  0.6011426812274934  1.0000
  C   C1        1.0  0.055988742978058795  0.203727014594719  0.11314430736612743  1.0000
  C   C2        1.0  0.4440114757756034  0.2962780941133119  0.6131430177768706  1.0000
  C   C3        1.0  0.9440123838917244  0.7962722850808532  0.886854957576013  1.0000
  C   C4        1.0  0.5559854174249922  0.7037212325589765  0.38685844903730543  1.0000
  C   C5        1.0  0.4382266752880355  0.32370159340549526  0.04971318140170671  1.0000
  C   C6        1.0  0.061771006040139305  0.17629908920733334  0.54971285032471  1.0000
  C   C7        1.0  0.561774010213135  0.6762965534701522  0.9502846156298548  1.0000
  C   C8        1.0  0.9382277397595331  0.8237013812680161  0.4502878825314626  1.0000
  C   C9        1.0  0.8438139544499209  0.13414069147382432  0.1409727476417615  1.0000
  C   C10       1.0  0.6561826551441995  0.36587057876941737  0.640967009070046  1.0000
  C   C11       1.0  0.15618761379587903  0.8658597610037191  0.859026517299718  1.0000
  C   C12       1.0  0.3438193544628234  0.6341310265060187  0.3590351916932662  1.0000
  C   C13       1.0  0.39941792358781913  0.3168592406414916  0.15038551842894077  1.0000
  C   C14       1.0  0.10057962585113243  0.18314346806357662  0.6503843571819633  1.0000
  C   C15       1.0  0.6005812635915644  0.6831423826368521  0.8496144804709547  1.0000
  C   C16       1.0  0.8994191199485402  0.8168570024117728  0.34961637567420933  1.0000
  C   C17       1.0  0.5616026584097398  0.37071776941864  0.22532218376901625  1.0000
  C   C18       1.0  0.9383924795554321  0.12928055880502848  0.7253202084584134  1.0000
  C   C19       1.0  0.4384008495190697  0.6292803594540998  0.7746778151259549  1.0000
  C   C20       1.0  0.06160441365626199  0.8707187678703222  0.27467905648889274  1.0000
  C   C21       1.0  0.20430922487427947  0.2548461756440688  0.18205007657773825  1.0000
  C   C22       1.0  0.29568606575421796  0.24515876875309325  0.6820462240474542  1.0000
  C   C23       1.0  0.795692871831463  0.7451519622275741  0.8179506562745831  1.0000
  C   C24       1.0  0.7043117101984038  0.7548428635231303  0.3179552427654002  1.0000
  C   C25       1.0  0.2806637558381624  0.27132948006562435  0.9845240305816109  1.0000
  C   C26       1.0  0.2193328940729344  0.2286676627083608  0.48452344809054904  1.0000
  C   C27       1.0  0.7193359598122626  0.728669828609874  0.015475234362256203  1.0000
  C   C28       1.0  0.7806677914060458  0.7713304841611759  0.5154787526747386  1.0000
  N   N1        1.0  0.09399962097086961  0.2133664210230535  0.015919360580333806  1.0000
  N   N2        1.0  0.4059998121822162  0.2866343464192981  0.5159174318802685  1.0000
  N   N3        1.0  0.906004856797587  0.78663054604678  0.9840813722692022  1.0000
  N   N4        1.0  0.5939984922414467  0.7133649712540874  0.4840833009765576  1.0000
  O   O1        1.0  0.7211806000330868  0.1057181321503435  0.0667971433459087  1.0000
  O   O2        1.0  0.7788159614690143  0.394287571022126  0.566796237026985  1.0000
  O   O3        1.0  0.27881999836196064  0.894283482127051  0.9332035895078835  1.0000
  O   O4        1.0  0.22118181449100405  0.6057140612561371  0.4332037618746299  1.0000
  O   O5        1.0  0.794465184068734  0.10546317118511442  0.22777187063393717  1.0000
  O   O6        1.0  0.7055359342709195  0.39455822427147785  0.7277733451379976  1.0000
  O   O7        1.0  0.2055349729540055  0.894537290291332  0.7722281282648924  1.0000
  O   O8        1.0  0.2944673994678269  0.605446839410874  0.2722281216677231  1.0000
  O   O9        1.0  0.5008931613568564  0.3411362021286024  0.3141007990425493  1.0000
  O   O10       1.0  0.9991033757934105  0.1588641762048226  0.8141016051403442  1.0000
  O   O11       1.0  0.49910752413692444  0.6588619447450058  0.6858984659002446  1.0000
  O   O12       1.0  0.0008920191001990036  0.8411386268742332  0.18589912771967937  1.0000
  O   O13       1.0  0.7364366115163322  0.4364448517200401  0.19814505467169147  1.0000
  O   O14       1.0  0.7635619770688322  0.06355815416414859  0.698145721883684  1.0000
  O   O15       1.0  0.26356830763923267  0.56355326815482  0.8018534763103207  1.0000
  O   O16       1.0  0.23643385919709206  0.9364458017158557  0.30185574493130934  1.0000
  O   O17       1.0  0.5985530474694655  0.0964937126637793  0.8661336827547361  1.0000
  O   O18       1.0  0.9014460548878205  0.4035145908156608  0.36613482113988044  1.0000
  O   O19       1.0  0.4014460526185957  0.903511378020376  0.1338663161449034  1.0000
  O   O20       1.0  0.09855172107219803  0.5964870414626021  0.6338651777617345  1.0000
  O   O21       1.0  0.8795052859177375  0.42017559614636474  0.9106117507987367  1.0000
  O   O22       1.0  0.6204931009653688  0.07982449622780759  0.4106129084255486  1.0000
  O   O23       1.0  0.12049390126534829  0.5798260271329881  0.08938751414553543  1.0000
  O   O24       1.0  0.37950846727672877  0.9201759562487195  0.5893870904715542  1.0000
