data_image0
_chemical_formula_structural       Hg2H16C22I4Br2N6O2
_chemical_formula_sum              "Hg2 H16 C22 I4 Br2 N6 O2"
_cell_length_a       6.723424839114226
_cell_length_b       7.466856586916131
_cell_length_c       17.901299227638045
_cell_angle_alpha    100.99189115225685
_cell_angle_beta     90.07692105875738
_cell_angle_gamma    116.6246641271981

_space_group_name_H-M_alt    "P 1"
_space_group_IT_number       1

loop_
  _space_group_symop_operation_xyz
  'x, y, z'

loop_
  _atom_site_type_symbol
  _atom_site_label
  _atom_site_symmetry_multiplicity
  _atom_site_fract_x
  _atom_site_fract_y
  _atom_site_fract_z
  _atom_site_occupancy
  Hg  Hg1       1.0  0.15797858141971943  0.31480013074167346  0.9451462210610297  1.0000
  Hg  Hg2       1.0  0.8419997406969628  0.6852053005414473  0.054859139412862065  1.0000
  H   H1        1.0  0.48916567335538735  0.9780529764651789  0.8063361403644506  1.0000
  H   H2        1.0  0.5108340308199358  0.021938687663926294  0.19366363339897663  1.0000
  H   H3        1.0  0.39011134831095257  0.7803902650082364  0.9121030038007304  1.0000
  H   H4        1.0  0.6098890802390855  0.2195998720465795  0.08789608694757328  1.0000
  H   H5        1.0  0.11537502906798382  0.23103993973303716  0.7492117426341378  1.0000
  H   H6        1.0  0.8846097625550797  0.7689486629972605  0.2507883362977097  1.0000
  H   H7        1.0  0.40681495497349124  0.8169289903076944  0.49657987566186523  1.0000
  H   H8        1.0  0.593199740406213  0.18307184850345234  0.5034217675177287  1.0000
  H   H9        1.0  0.2090582562939289  0.4205350065228543  0.2717397602926254  1.0000
  H   H10       1.0  0.7909381221925926  0.5794827942139165  0.7282587929495319  1.0000
  H   H11       1.0  0.05798797441725161  0.11578384883004128  0.332453962013517  1.0000
  H   H12       1.0  0.9419979284630741  0.8842278736227623  0.6675407410207723  1.0000
  H   H13       1.0  0.08046182487861842  0.15876049440775117  0.47240653760856316  1.0000
  H   H14       1.0  0.91952538618731  0.841238943451671  0.5275877222751006  1.0000
  H   H15       1.0  0.3401016791553744  0.6814585481176677  0.6012742686971533  1.0000
  H   H16       1.0  0.6599025255610159  0.3185361720628847  0.3987263141122383  1.0000
  C   C1        1.0  0.40540199259377385  0.8106540231897129  0.793325115754598  1.0000
  C   C2        1.0  0.594594697610255  0.18933458334633707  0.20667384920868406  1.0000
  C   C3        1.0  0.35088104808711057  0.7019169499774447  0.8519988635518344  1.0000
  C   C4        1.0  0.6491156799372675  0.2980747091655545  0.14800146768750008  1.0000
  C   C5        1.0  0.19907732266164396  0.39822669281745243  0.7621350549262471  1.0000
  C   C6        1.0  0.8009164352346191  0.6017649774781049  0.23786471785393093  1.0000
  C   C7        1.0  0.25459657764848487  0.508593230661141  0.7040581387225942  1.0000
  C   C8        1.0  0.7454038040469514  0.49139382957874017  0.29594125965224544  1.0000
  C   C9        1.0  0.19957480547845566  0.39770010170793313  0.6213848134300333  1.0000
  C   C10       1.0  0.8004396479220831  0.6022823811148468  0.37861142193087  1.0000
  C   C11       1.0  0.2454343651757256  0.49107825765319274  0.4935633358536505  1.0000
  C   C12       1.0  0.7545714228310701  0.5089226226849348  0.506436073980943  1.0000
  C   C13       1.0  0.3307778819867624  0.6635366924097356  0.46021982309837023  1.0000
  C   C14       1.0  0.6692361797160162  0.33647181903624807  0.5397824458108075  1.0000
  C   C15       1.0  0.31654146235088376  0.6355524887567227  0.3811161864979765  1.0000
  C   C16       1.0  0.6834607158280407  0.364456059230136  0.6188844065421077  1.0000
  C   C17       1.0  0.21918408935066944  0.4400486019729258  0.3337210639812226  1.0000
  C   C18       1.0  0.7808167050019676  0.5599661253933943  0.6662772396573755  1.0000
  C   C19       1.0  0.1351310531078838  0.2704128389724332  0.36788227257012807  1.0000
  C   C20       1.0  0.8648584793521226  0.7295942200226406  0.6321159613399274  1.0000
  C   C21       1.0  0.1467588497731924  0.2927047373227367  0.44711193956847234  1.0000
  C   C22       1.0  0.853236582111272  0.7072992386909503  0.5528866029513678  1.0000
  I   I1        1.0  0.3238501708120012  0.6476379620749808  0.06331023653471847  1.0000
  I   I2        1.0  0.6761557427015034  0.3523721083613295  0.9366910402579264  1.0000
  I   I3        1.0  0.9598923881849614  0.9206171555062992  0.8732369693540958  1.0000
  I   I4        1.0  0.040082877800507795  0.07938510521320549  0.12677539386509548  1.0000
  Br  Br1       1.0  0.43426654252201047  0.8727681855099475  0.3377044023319299  1.0000
  Br  Br2       1.0  0.5657402028043849  0.1272494995342939  0.6623014062088259  1.0000
  N   N1        1.0  0.3577802695667174  0.7150626601456338  0.7201304360840906  1.0000
  N   N2        1.0  0.64221934391081  0.2849228584229238  0.2798693949648835  1.0000
  N   N3        1.0  0.2483579598536423  0.49708808846785496  0.8358862676187611  1.0000
  N   N4        1.0  0.7516282775074146  0.5028974520445431  0.164113003250371  1.0000
  N   N5        1.0  0.2654212912512079  0.5307853105361529  0.5733135352083281  1.0000
  N   N6        1.0  0.7345874260519312  0.46921249797314607  0.4266856247768942  1.0000
  O   O1        1.0  0.10581214106042577  0.20829756505962385  0.6031771255161471  1.0000
  O   O2        1.0  0.8942307703587531  0.7917002160619048  0.396821482155218  1.0000
