data_image0
_chemical_formula_structural       Ca2H16C20N8O20
_chemical_formula_sum              "Ca2 H16 C20 N8 O20"
_cell_length_a       7.581924173987896
_cell_length_b       8.180534792387762
_cell_length_c       10.819670923672303
_cell_angle_alpha    91.36047440168005
_cell_angle_beta     102.81706656284058
_cell_angle_gamma    93.16314232743339

_space_group_name_H-M_alt    "P 1"
_space_group_IT_number       1

loop_
  _space_group_symop_operation_xyz
  'x, y, z'

loop_
  _atom_site_type_symbol
  _atom_site_label
  _atom_site_symmetry_multiplicity
  _atom_site_fract_x
  _atom_site_fract_y
  _atom_site_fract_z
  _atom_site_occupancy
  Ca  Ca1       1.0  0.22743717764398508  0.36161142480764147  0.8363087645029099  1.0000
  Ca  Ca2       1.0  0.7725636087229121  0.6383880264900553  0.16369174669550554  1.0000
  H   H1        1.0  0.317741329418766  0.9911069725463764  0.8887230254831523  1.0000
  H   H2        1.0  0.6822594569481385  0.008892478751320697  0.11127748571527013  1.0000
  H   H3        1.0  0.21360262956859807  0.17664872566952283  0.13193941219140023  1.0000
  H   H4        1.0  0.7863953630793293  0.8233495015760396  0.8680597238590766  1.0000
  H   H5        1.0  0.0047076075290846  0.143981662707489  0.6288365761538515  1.0000
  H   H6        1.0  0.9952919963285043  0.8560202321284295  0.3711647310492411  1.0000
  H   H7        1.0  0.11054931426085095  0.2840637097168823  0.5636417556545369  1.0000
  H   H8        1.0  0.8894501193656411  0.7159357397077102  0.43635854970748517  1.0000
  H   H9        1.0  0.896860381488651  0.1477307173193765  0.8578859492530954  1.0000
  H   H10       1.0  0.10313914037599402  0.8522699524111488  0.14211531958406454  1.0000
  H   H11       1.0  0.9043722821707337  0.2986352194022075  0.9522475076028131  1.0000
  H   H12       1.0  0.09562859243432342  0.7013654522014221  0.047753967070754307  1.0000
  H   H13       1.0  0.4089090130795086  0.8605677443325277  0.4949022908759417  1.0000
  H   H14       1.0  0.5910917732873957  0.13943170696517634  0.5050982203224805  1.0000
  H   H15       1.0  0.40314007521396894  0.6753817676995907  0.3322711479727759  1.0000
  H   H16       1.0  0.5968593396768896  0.32461769612341124  0.6677263820616233  1.0000
  C   C1        1.0  0.23501709224973422  0.7587547748482919  0.8712309497960363  1.0000
  C   C2        1.0  0.7649809886363529  0.24124467270320338  0.1287691497295782  1.0000
  C   C3        1.0  0.2783914245338508  0.5309318268753387  0.4579070982288016  1.0000
  C   C4        1.0  0.7216094250903567  0.46906886392615377  0.5420906760079306  1.0000
  C   C5        1.0  0.27856376541427613  0.7541337267939737  0.745073189232869  1.0000
  C   C6        1.0  0.7214370209526211  0.24586572450373004  0.2549273219655532  1.0000
  C   C7        1.0  0.30283723434891396  0.4291340929223324  0.272121510942462  1.0000
  C   C8        1.0  0.6971622750253135  0.5708665864071278  0.7278779076762876  1.0000
  C   C9        1.0  0.35222322210557894  0.8767162550686791  0.6798022560334546  1.0000
  C   C10       1.0  0.6477774760231655  0.12328197592309212  0.32019729168982997  1.0000
  C   C11       1.0  0.15811599604302273  0.13938038768069563  0.30134870298523714  1.0000
  C   C12       1.0  0.8418822363385278  0.8606215196805208  0.6986496230538323  1.0000
  C   C13       1.0  0.2198168142723063  0.31185457967107766  0.33664513036739413  1.0000
  C   C14       1.0  0.7801799896211039  0.6881460959121667  0.6633538765785476  1.0000
  C   C15       1.0  0.29228589132893756  0.645319661391035  0.5639915734072574  1.0000
  C   C16       1.0  0.707714882547535  0.35467979950560385  0.4360070875727474  1.0000
  C   C17       1.0  0.41446626956280863  0.0496722901937332  0.7136538813484563  1.0000
  C   C18       1.0  0.5855344410563604  0.9503259311991028  0.2863475165932385  1.0000
  C   C19       1.0  0.36096377802483914  0.426756469459967  0.15013692124892947  1.0000
  C   C20       1.0  0.6390368193753347  0.5732405508248064  0.8498598127807926  1.0000
  N   N1        1.0  0.33925680052271195  0.5651603947302136  0.3513103983716946  1.0000
  N   N2        1.0  0.6607414318588384  0.434841512631003  0.6486879276673747  1.0000
  N   N3        1.0  0.20716620215806364  0.3771850217584499  0.4518094591252365  1.0000
  N   N4        1.0  0.7928345779636247  0.6228144343387214  0.5481901269639807  1.0000
  N   N5        1.0  0.35893079931817345  0.8043041911528732  0.5659945984028809  1.0000
  N   N6        1.0  0.6410699870487235  0.19569526014482364  0.43400591279554135  1.0000
  N   N7        1.0  0.24409159107319314  0.6111037666550203  0.6727463740975923  1.0000
  N   N8        1.0  0.7559104597959632  0.38889446620985524  0.3272533794620927  1.0000
  O   O1        1.0  0.1658616232864247  0.6325054563635603  0.910125806915602  1.0000
  O   O2        1.0  0.8341393208211445  0.36749644994440434  0.08987385590548065  1.0000
  O   O3        1.0  0.26546170819241155  0.8951440846602312  0.9393719883787811  1.0000
  O   O4        1.0  0.7345391601674367  0.10485659174286609  0.06062856118557392  1.0000
  O   O5        1.0  0.1021228839448369  0.05085181310531079  0.37724176838526097  1.0000
  O   O6        1.0  0.8978807781339743  0.9491500873499277  0.6227601563270398  1.0000
  O   O7        1.0  0.1652645695795698  0.0843842206804695  0.18593821862286575  1.0000
  O   O8        1.0  0.8347347882991942  0.9156139988392624  0.814062973482429  1.0000
  O   O9        1.0  0.38019681354651175  0.10982752722785699  0.8162946647695154  1.0000
  O   O10       1.0  0.6198026263251891  0.890171917397268  0.18370656570171215  1.0000
  O   O11       1.0  0.4951707694181665  0.12792500127682868  0.6416441161952947  1.0000
  O   O12       1.0  0.5048313759343516  0.8720744470945119  0.35835752594873344  1.0000
  O   O13       1.0  0.29529028433092464  0.3073795125931865  0.06980242753260063  1.0000
  O   O14       1.0  0.7047063493313815  0.6926187175787318  0.9301955775722633  1.0000
  O   O15       1.0  0.46955463026267824  0.540617858984028  0.13351932646207135  1.0000
  O   O16       1.0  0.5304459608922798  0.4593791661002129  0.8664764824584452  1.0000
  O   O17       1.0  0.06453387020844302  0.2554519623672036  0.6409668796546697  1.0000
  O   O18       1.0  0.9354656391657842  0.7445487169622494  0.35903253896407256  1.0000
  O   O19       1.0  0.947477171072869  0.2609206578620729  0.8770798612628428  1.0000
  O   O20       1.0  0.052522262553623016  0.7390787915625268  0.12292044409917931  1.0000
