data_image0
_chemical_formula_structural       Cd8H48C32O48
_chemical_formula_sum              "Cd8 H48 C32 O48"
_cell_length_a       9.120266276
_cell_length_b       12.07370302
_cell_length_c       12.311
_cell_angle_alpha    90.0
_cell_angle_beta     90.0
_cell_angle_gamma    90.0

_space_group_name_H-M_alt    "P 1"
_space_group_IT_number       1

loop_
  _space_group_symop_operation_xyz
  'x, y, z'

loop_
  _atom_site_type_symbol
  _atom_site_label
  _atom_site_symmetry_multiplicity
  _atom_site_fract_x
  _atom_site_fract_y
  _atom_site_fract_z
  _atom_site_occupancy
  Cd  Cd1       1.0  0.0825414496922079  0.2269502567241375  0.7336869466330923  1.0000
  Cd  Cd2       1.0  0.4174516274836008  0.7730486648991645  0.2336869466330924  1.0000
  Cd  Cd3       1.0  0.5825454914601664  0.2730487899643563  0.2663138656486055  1.0000
  Cd  Cd4       1.0  0.9174578621699893  0.7269509599052597  0.7663106165218068  1.0000
  Cd  Cd5       1.0  0.9174567657107743  0.7730503213917856  0.2663122410852097  1.0000
  Cd  Cd6       1.0  0.5825454914601664  0.2269502567241375  0.7663146779303034  1.0000
  Cd  Cd7       1.0  0.4174582062388907  0.7269501316589455  0.7336845097879915  1.0000
  Cd  Cd8       1.0  0.0825447390698528  0.2730512747032918  0.23368857119648814  1.0000
  H   H1        1.0  0.1046800576987863  0.2799348298033593  0.9559694582081093  1.0000
  H   H2        1.0  0.3953228876099573  0.7200682330515065  0.45596864592640424  1.0000
  H   H3        1.0  0.6046819065483149  0.22006670162407  0.0440313540735957  1.0000
  H   H4        1.0  0.8953225435410488  0.7799338764918531  0.5440289172284949  1.0000
  H   H5        1.0  0.8953203506226258  0.7200649200662568  0.04403054179189069  1.0000
  H   H6        1.0  0.60467642425224  0.2799315168181096  0.5440321663552936  1.0000
  H   H7        1.0  0.3953185017730974  0.779933048245539  0.9559662090813106  1.0000
  H   H8        1.0  0.1046778647803563  0.22006670162407  0.4559702704898071  1.0000
  H   H9        1.0  0.9385767631067807  0.3027174011109608  0.9268873365283098  1.0000
  H   H10       1.0  0.56142330114573  0.6972815205123339  0.4268848996832091  1.0000
  H   H11       1.0  0.438580396553327  0.1972824738238401  0.0731159125984888  1.0000
  H   H12       1.0  0.06142474167384649  0.8027205890310186  0.573113475753388  1.0000
  H   H13       1.0  0.0614225487554165  0.6972823487586483  0.0731126634716901  1.0000
  H   H14       1.0  0.4385760107164671  0.302718229357275  0.5731167248801867  1.0000
  H   H15       1.0  0.561422204686515  0.8027164477994618  0.9268840874015112  1.0000
  H   H16       1.0  0.9385767631067807  0.1972791608385975  0.426885711964907  1.0000
  H   H17       1.0  0.0197209154378868  0.4974778649143872  0.34616196897084  1.0000
  H   H18       1.0  0.4802820298708568  0.502522713201536  0.8461619689708397  1.0000
  H   H19       1.0  0.5197194749097704  0.0025253230056705  0.65383803102916  1.0000
  H   H20       1.0  0.9802794928835254  0.9974769116028811  0.1538372187474621  1.0000
  H   H21       1.0  0.9802827822611704  0.502522713201536  0.6538355941840663  1.0000
  H   H22       1.0  0.5197194749097704  0.4974762084217659  0.15383803102916  1.0000
  H   H23       1.0  0.4802776440339969  0.9974735986176314  0.34616196897084  1.0000
  H   H24       1.0  0.0197187225194568  0.0025236665130421  0.8461652180976387  1.0000
  H   H25       1.0  0.3451017661932099  0.5111927955968554  0.5351701730159988  1.0000
  H   H26       1.0  0.15489788973788166  0.4888044695338182  0.0351661116075022  1.0000
  H   H27       1.0  0.8450981327466636  0.9888026879760048  0.4648273901389004  1.0000
  H   H28       1.0  0.6548964492097653  0.0111929206620474  0.9648314515473969  1.0000
  H   H29       1.0  0.6548986421281953  0.4888044695338182  0.4648290147022962  1.0000
  H   H30       1.0  0.8451025185835235  0.5111944520894767  0.9648314515473969  1.0000
  H   H31       1.0  0.1549000826563116  0.0111987183862325  0.5351734221427975  1.0000
  H   H32       1.0  0.3451028626524247  0.98880848570019  0.0351709852977038  1.0000
  H   H33       1.0  0.1619294826825737  0.5602506529102982  0.5309260011371961  1.0000
  H   H34       1.0  0.33807126970773976  0.4397482687130037  0.0309211274470016  1.0000
  H   H35       1.0  0.6619269456952424  0.9397456589088764  0.46907562342620673  1.0000
  H   H36       1.0  0.8380698291796236  0.0602482932365547  0.9690748111445017  1.0000
  H   H37       1.0  0.8380709256388386  0.4397474404666966  0.4690723742994081  1.0000
  H   H38       1.0  0.6619291386136723  0.5602506529102982  0.9690764357079047  1.0000
  H   H39       1.0  0.3380723661669548  0.0602540909607399  0.5309243765737932  1.0000
  H   H40       1.0  0.1619294826825737  0.9397531131256898  0.030927625700591894  1.0000
  H   H41       1.0  0.2600318815516118  0.5484117001247881  0.3475412232962398  1.0000
  H   H42       1.0  0.2399699672979168  0.4515880497448279  0.8475355373243474  1.0000
  H   H43       1.0  0.7600304410234954  0.9515895811722573  0.6524587767037602  1.0000
  H   H44       1.0  0.7399674303105854  0.0484101686973588  0.152460401267156  1.0000
  H   H45       1.0  0.7399729126066603  0.4515872214985138  0.6524587767037602  1.0000
  H   H46       1.0  0.7600315374827104  0.5484117001247881  0.1524620258305589  1.0000
  H   H47       1.0  0.2399677743794868  0.048410996943673  0.3475412232962398  1.0000
  H   H48       1.0  0.2600318815516118  0.9515920659111927  0.8475428478596356  1.0000
  C   C1        1.0  0.18649894076842335  0.3882172679115641  0.5740305417918918  1.0000
  C   C2        1.0  0.3134985222442451  0.6117841384506733  0.0740297295101939  1.0000
  C   C3        1.0  0.6864931144034472  0.11177846579168  0.42596133539111486  1.0000
  C   C4        1.0  0.8134970817161289  0.8882171428463721  0.9259678336447053  1.0000
  C   C5        1.0  0.8135014675529817  0.6117799972191165  0.4259670213630072  1.0000
  C   C6        1.0  0.6865018860771669  0.3882180961578783  0.9259702704898061  1.0000
  C   C7        1.0  0.313504004540313  0.8882204558316218  0.5740378523271871  1.0000
  C   C8        1.0  0.18650223014606834  0.1117842635158652  0.0740362277637914  1.0000
  C   C9        1.0  0.2324219420630413  0.4896666739447397  0.5105872796685915  1.0000
  C   C10       1.0  0.2675766174088423  0.5103322476785621  0.0105832182600949  1.0000
  C   C11       1.0  0.732418308616495  0.0103307162511257  0.4894102834863148  1.0000
  C   C12       1.0  0.767574080421511  0.9896657206332408  0.9894135326131135  1.0000
  C   C13       1.0  0.7675795627175859  0.5103305911859337  0.4894110957680127  1.0000
  C   C14       1.0  0.7324237909125699  0.4896683304373681  0.9894151571765091  1.0000
  C   C15       1.0  0.2675799067864872  0.9896698618647976  0.5105905287953831  1.0000
  C   C16       1.0  0.2324241349814713  0.0103356857289967  0.010590528795383098  1.0000
  C   C17       1.0  0.22990556816501587  0.469877384809152  0.387712614734788  1.0000
  C   C18       1.0  0.2700951842252976  0.530122365060457  0.8877085533262914  1.0000
  C   C19       1.0  0.7299041276368996  0.030123318371963102  0.6122849484201112  1.0000
  C   C20       1.0  0.7700937436971813  0.9698756032513387  0.11228819754690987  1.0000
  C   C21       1.0  0.770098129534041  0.5301215368141499  0.6122849484201112  1.0000
  C   C22       1.0  0.7299052240961146  0.4698765565628449  0.1122898221103057  1.0000
  C   C23       1.0  0.2700929913068676  0.9698764314976529  0.38771586386158663  1.0000
  C   C24       1.0  0.22990337524658597  0.0301266313572128  0.8877158638615867  1.0000
  C   C25       1.0  0.3474832756078214  0.3882479130251113  0.3506774429372115  1.0000
  C   C26       1.0  0.1525185732417071  0.611753493337126  0.8506733815287149  1.0000
  C   C27       1.0  0.847481835079705  0.1117527901560038  0.6493193079359898  1.0000
  C   C28       1.0  0.6525171327135908  0.8882436467283555  0.1493233693444864  1.0000
  C   C29       1.0  0.6525204220912357  0.6117510085981905  0.6493201202176948  1.0000
  C   C30       1.0  0.84748293153892  0.3882470847787972  0.1493241816261914  1.0000
  C   C31       1.0  0.1525152838640622  0.8882477879599193  0.3506806920640102  1.0000
  C   C32       1.0  0.3474799862301765  0.11175775963388192  0.8506806920640101  1.0000
  O   O1        1.0  0.2405039429355398  0.2942013725296988  0.5504418812444172  1.0000
  O   O2        1.0  0.25949242361792096  0.7058000338325385  0.0504394443993164  1.0000
  O   O3        1.0  0.7405003094889935  0.2057943611735453  0.4495499959385896  1.0000
  O   O4        1.0  0.7594909830898047  0.7942004192181926  0.9495548696287841  1.0000
  O   O5        1.0  0.7594942724674425  0.7057958926009746  0.44955486962878405  1.0000
  O   O6        1.0  0.7405068882442762  0.294202200776013  0.9495589310372807  1.0000
  O   O7        1.0  0.2594968094547738  0.7942045604497565  0.5504475672163096  1.0000
  O   O8        1.0  0.24050832877239256  0.20580098714404474  0.05045000406141039  1.0000
  O   O9        1.0  0.0400722949243004  0.3109178678473086  0.899500446754935  1.0000
  O   O10       1.0  0.4599262645475831  0.6890827102686217  0.399500446754935  1.0000
  O   O11       1.0  0.5400774331514668  0.18908200708749942  0.10050036552676289  1.0000
  O   O12       1.0  0.9599270169378968  0.8109185710284239  0.6004987409633671  1.0000
  O   O13       1.0  0.9599281133971118  0.6890827102686217  0.10050036552676289  1.0000
  O   O14       1.0  0.540071950855399  0.3109170396009944  0.6005011778084608  1.0000
  O   O15       1.0  0.4599262645475831  0.8109169145358024  0.8994980099098342  1.0000
  O   O16       1.0  0.0400733913835154  0.18908200708749942  0.399500446754935  1.0000
  O   O17       1.0  0.0948810016958745  0.3995418797372424  0.6529965071886962  1.0000
  O   O18       1.0  0.4051153648575792  0.6004578701323737  0.1529956949069913  1.0000
  O   O19       1.0  0.5948795611677582  0.1004530257196947  0.3469969945577134  1.0000
  O   O20       1.0  0.9051172137071077  0.8995409264257362  0.8470034928113037  1.0000
  O   O21       1.0  0.9051205030847527  0.6004578701323737  0.3470018682479079  1.0000
  O   O22       1.0  0.594883947004618  0.3995418797372424  0.8470051173747066  1.0000
  O   O23       1.0  0.405120847153654  0.8995458959036071  0.6530030054422865  1.0000
  O   O24       1.0  0.0948810016958745  0.1004588234438799  0.15299894403379  1.0000
  O   O25       1.0  0.3162944932420544  0.309668044162315  0.2839273820160813  1.0000
  O   O26       1.0  0.1837073556074742  0.6903308774609869  0.7839225083258867  1.0000
  O   O27       1.0  0.816294149173153  0.190331830772493  0.7160701811388179  1.0000
  O   O28       1.0  0.6837070115385726  0.8096654343581804  0.2160718057022208  1.0000
  O   O29       1.0  0.6837081079977876  0.6903308774609869  0.7160709934205157  1.0000
  O   O30       1.0  0.816295245632368  0.3096697006549363  0.2160750548290125  1.0000
  O   O31       1.0  0.1837040662298293  0.8096687473434301  0.28393063114288  1.0000
  O   O32       1.0  0.3162912038644095  0.1903368002503711  0.78393063114288  1.0000
  O   O33       1.0  0.477824864770426  0.4038023787668052  0.3816757371456418  1.0000
  O   O34       1.0  0.0221758876198876  0.5961990275954321  0.8816716757371452  1.0000
  O   O35       1.0  0.9778234242423095  0.0961974961679957  0.6183218260092573  1.0000
  O   O36       1.0  0.5221733506325563  0.9038005972089922  0.11832751198115689  1.0000
  O   O37       1.0  0.5221777364694162  0.5961965428564895  0.6183226382909623  1.0000
  O   O38       1.0  0.9778245207015245  0.40380155052049826  0.1183242628543582  1.0000
  O   O39       1.0  0.0221736947014577  0.9038030819479275  0.38167898627244057  1.0000
  O   O40       1.0  0.47782376831121093  0.0962008091532454  0.8816757371456416  1.0000
  O   O41       1.0  0.08944804628640667  0.4331686800094873  0.3519332304443168  1.0000
  O   O42       1.0  0.4105538025631219  0.5668327263527502  0.8519307935992231  1.0000
  O   O43       1.0  0.5894466057582903  0.0668336796642492  0.6480651449922803  1.0000
  O   O44       1.0  0.9105523620350056  0.9331677266979882  0.1480667695556832  1.0000
  O   O45       1.0  0.9105556514126505  0.566831898106436  0.6480635204288845  1.0000
  O   O46       1.0  0.5894477022175053  0.4331670235168659  0.148068394119079  1.0000
  O   O47       1.0  0.410550513185477  0.9331660702053597  0.3519356672894176  1.0000
  O   O48       1.0  0.0894447569087617  0.0668345079105634  0.8519356672894175  1.0000
