data_image0
_chemical_formula_structural       Cd2H8C12Cl4O12
_chemical_formula_sum              "Cd2 H8 C12 Cl4 O12"
_cell_length_a       4.783022128011284
_cell_length_b       7.390305632252687
_cell_length_c       15.062646518983733
_cell_angle_alpha    85.03913444887081
_cell_angle_beta     82.91691618118972
_cell_angle_gamma    68.65703650242301

_space_group_name_H-M_alt    "P 1"
_space_group_IT_number       1

loop_
  _space_group_symop_operation_xyz
  'x, y, z'

loop_
  _atom_site_type_symbol
  _atom_site_label
  _atom_site_symmetry_multiplicity
  _atom_site_fract_x
  _atom_site_fract_y
  _atom_site_fract_z
  _atom_site_occupancy
  Cd  Cd1       1.0  0.13907520196782022  0.765218441357057  0.24362170287719206  1.0000
  Cd  Cd2       1.0  0.860921918318219  0.23478503692284394  0.7563832999204861  1.0000
  H   H1        1.0  0.6770878527602662  0.9103320322598736  0.13462905665954134  1.0000
  H   H2        1.0  0.5627356725784625  0.064785525251132  0.6524836233341842  1.0000
  H   H3        1.0  0.3229415505850568  0.08964410400190564  0.8653657648368025  1.0000
  H   H4        1.0  0.43724508618208796  0.9352319402946992  0.3475062034638583  1.0000
  H   H5        1.0  0.5746174892211471  0.052429462904669315  0.21174086229764544  1.0000
  H   H6        1.0  0.8815644620472581  0.8931098442081834  0.6612417684818295  1.0000
  H   H7        1.0  0.4254334493035543  0.9475580058127238  0.7882517088029601  1.0000
  H   H8        1.0  0.11844309107522122  0.10690176633359981  0.338742121431558  1.0000
  C   C1        1.0  0.49422754357392057  0.6409919844753491  0.06158399429957479  1.0000
  C   C2        1.0  0.12398412740536452  0.3450392384454305  0.5661703226921018  1.0000
  C   C3        1.0  0.505808658098985  0.3590026919672909  0.9384128002316812  1.0000
  C   C4        1.0  0.8759460138804374  0.6549617929292568  0.4338453207379445  1.0000
  C   C5        1.0  0.6722331873138642  0.5021531152558015  0.9146088837919775  1.0000
  C   C6        1.0  0.19908362061489995  0.5057233592152174  0.41994266822911186  1.0000
  C   C7        1.0  0.32777021709195964  0.4978388342284534  0.085394247202963  1.0000
  C   C8        1.0  0.8008858315725578  0.4942645707677969  0.5800642090067356  1.0000
  C   C9        1.0  0.6510237565027595  0.6392550545813763  0.9771467080812568  1.0000
  C   C10       1.0  0.29947362136534394  0.3548835086718114  0.48593309322406936  1.0000
  C   C11       1.0  0.34898496421332237  0.3607425310415097  0.022857449554209094  1.0000
  C   C12       1.0  0.7004834635334943  0.6451117675489403  0.5140746131247624  1.0000
  Cl  Cl1       1.0  0.8402485301308286  0.798156056854879  0.949434621128354  1.0000
  Cl  Cl2       1.0  0.6611319834199564  0.18470804745789596  0.4687538408238935  1.0000
  Cl  Cl3       1.0  0.15975444575873607  0.20184005905029787  0.050571734723099795  1.0000
  Cl  Cl4       1.0  0.338844426256422  0.815296042699494  0.5312451012192766  1.0000
  O   O1        1.0  0.4810869090010571  0.7551121153137857  0.12238609782642838  1.0000
  O   O2        1.0  0.2115922422744062  0.22001036277974617  0.6301154714580619  1.0000
  O   O3        1.0  0.5189165544819404  0.24488681328170966  0.8776214987342073  1.0000
  O   O4        1.0  0.7883874511253522  0.7800083566465761  0.36987833968386497  1.0000
  O   O5        1.0  0.8248855427210556  0.49042428141179795  0.8392247537262703  1.0000
  O   O6        1.0  0.36219019038276895  0.5254304879688122  0.3503234080999391  1.0000
  O   O7        1.0  0.17511015462482488  0.5095732719371215  0.160783768242716  1.0000
  O   O8        1.0  0.6378044171002913  0.47460196106598596  0.6496795763084222  1.0000
  O   O9        1.0  0.7530535345612535  0.9867619577211999  0.1706494234657328  1.0000
  O   O10       1.0  0.719058731729497  0.9935535063171773  0.6942015600530878  1.0000
  O   O11       1.0  0.24697829742440555  0.013221296164303509  0.8293464692786401  1.0000
  O   O12       1.0  0.28097238119846674  0.006447078919471501  0.3057938974736203  1.0000
