data_image0
_chemical_formula_structural       Cu4H20C20Br4N4
_chemical_formula_sum              "Cu4 H20 C20 Br4 N4"
_cell_length_a       8.003843783516114
_cell_length_b       8.886551909287618
_cell_length_c       9.24465698093769
_cell_angle_alpha    117.80834243533403
_cell_angle_beta     90.55890631587164
_cell_angle_gamma    104.08067969042727

_space_group_name_H-M_alt    "P 1"
_space_group_IT_number       1

loop_
  _space_group_symop_operation_xyz
  'x, y, z'

loop_
  _atom_site_type_symbol
  _atom_site_label
  _atom_site_symmetry_multiplicity
  _atom_site_fract_x
  _atom_site_fract_y
  _atom_site_fract_z
  _atom_site_occupancy
  Cu  Cu1       1.0  0.17849377022425017  0.6002191999986408  0.6770084233137579  1.0000
  Cu  Cu2       1.0  0.8215187765139688  0.3997893165100947  0.3229924732340378  1.0000
  Cu  Cu3       1.0  0.7587958745093034  0.44313828369961783  0.6152684244342053  1.0000
  Cu  Cu4       1.0  0.24120934173510022  0.5568662308474474  0.3847338654845202  1.0000
  H   H1        1.0  0.29629344752576264  0.33635815922915674  0.6338962763769087  1.0000
  H   H2        1.0  0.7037035474676828  0.6636436258968886  0.3661036308598469  1.0000
  H   H3        1.0  0.39328071741641674  0.09468691387487381  0.6426911061382011  1.0000
  H   H4        1.0  0.6067227035801395  0.9053202179261959  0.35731123558048233  1.0000
  H   H5        1.0  0.4137351128178608  0.079261886591695  0.9026106217950198  1.0000
  H   H6        1.0  0.5862694053403246  0.9207399259525032  0.09738505910587482  1.0000
  H   H7        1.0  0.3424882410903649  0.3106824091809699  0.16020383703519053  1.0000
  H   H8        1.0  0.6575145014422932  0.68931280816701  0.8397921585409872  1.0000
  H   H9        1.0  0.18126634487328624  0.8317475894816722  0.4375861492269591  1.0000
  H   H10       1.0  0.8187220592257773  0.1682502234809675  0.5624194766775401  1.0000
  H   H11       1.0  0.029172015918881324  0.8664652219763483  0.3228563592087994  1.0000
  H   H12       1.0  0.9708214121250549  0.1335325645867158  0.6771417419587065  1.0000
  H   H13       1.0  0.2509997131888894  0.9847485015359537  0.36041829278809684  1.0000
  H   H14       1.0  0.7489946056122108  0.015248012486459598  0.6395835844323015  1.0000
  H   H15       1.0  0.1385992533968121  0.8669920030306033  0.909821332652363  1.0000
  H   H16       1.0  0.8614166813565021  0.13301530506558376  0.09018772462170688  1.0000
  H   H17       1.0  0.23513005090780584  0.9989744207169693  0.12221467190720146  1.0000
  H   H18       1.0  0.7648776822168698  0.001020945507988795  0.8777922655602306  1.0000
  H   H19       1.0  0.01163183435354406  0.885940274428478  0.07146476260006557  1.0000
  H   H20       1.0  0.9883756943256045  0.11406823754867193  0.9285403998679836  1.0000
  C   C1        1.0  0.19382070146383512  0.7112381175810896  0.17850248557994053  1.0000
  C   C2        1.0  0.8061684478108403  0.2887530405888157  0.8214948044062209  1.0000
  C   C3        1.0  0.1809571195683546  0.719600229686783  0.028250507603985345  1.0000
  C   C4        1.0  0.8190386405326392  0.28039234185615675  0.9717507289881621  1.0000
  C   C5        1.0  0.2582646177653629  0.4568613496884525  0.8902260739631057  1.0000
  C   C6        1.0  0.7417331086701608  0.5431338528175544  0.10977310126106929  1.0000
  C   C7        1.0  0.3025569651536911  0.3268432901317269  0.7470952331314676  1.0000
  C   C8        1.0  0.697443077640429  0.6731558891835973  0.2529046420975261  1.0000
  C   C9        1.0  0.35699888899491566  0.1934505719099633  0.7527068466411675  1.0000
  C   C10       1.0  0.6430006091422628  0.8065512464130292  0.24729418645222248  1.0000
  C   C11       1.0  0.36972013366457185  0.18535100993445752  0.9010771583529542  1.0000
  C   C12       1.0  0.6302865258416759  0.8146495518227539  0.09892340466527118  1.0000
  C   C13       1.0  0.3289230726550301  0.31197611194850333  0.043110191786602935  1.0000
  C   C14       1.0  0.6710707073749235  0.6880230101504167  0.9568895844814446  1.0000
  C   C15       1.0  0.2725249211698042  0.4493149921843981  0.04039778395499378  1.0000
  C   C16       1.0  0.7274677970163096  0.5506801542381012  0.9596002258281754  1.0000
  C   C17       1.0  0.16225929241426226  0.8559511243381266  0.33349761355455587  1.0000
  C   C18       1.0  0.837732708066298  0.1440414231853566  0.6665046499332801  1.0000
  C   C19       1.0  0.1393159335920586  0.8756722878579026  0.03196011642330623  1.0000
  C   C20       1.0  0.8606898214234988  0.1243296186126557  0.968044274447777  1.0000
  Br  Br1       1.0  0.9370368194529916  0.7049207362999682  0.6090005642658834  1.0000
  Br  Br2       1.0  0.06296964542038101  0.29508381031114783  0.39100391798953626  1.0000
  Br  Br3       1.0  0.4563403632285485  0.7492367311388932  0.6245714310321586  1.0000
  Br  Br4       1.0  0.5436596599372548  0.25078987931937036  0.37540593012583645  1.0000
  N   N1        1.0  0.23443100132482186  0.5762949701435574  0.18365345499632463  1.0000
  N   N2        1.0  0.7655617148993626  0.42370018658933634  0.8163456410590937  1.0000
  N   N3        1.0  0.20633468752985348  0.5918821633139545  0.8852498091326308  1.0000
  N   N4        1.0  0.793664999354391  0.4081157010862882  0.11475056354031916  1.0000
