data_image0
_chemical_formula_structural       Ba4H28C12S12N12O12
_chemical_formula_sum              "Ba4 H28 C12 S12 N12 O12"
_cell_length_a       6.297254604542937
_cell_length_b       8.767594539631807
_cell_length_c       17.69678716311093
_cell_angle_alpha    89.99965369056815
_cell_angle_beta     90.00008728221792
_cell_angle_gamma    90.51333963542295

_space_group_name_H-M_alt    "P 1"
_space_group_IT_number       1

loop_
  _space_group_symop_operation_xyz
  'x, y, z'

loop_
  _atom_site_type_symbol
  _atom_site_label
  _atom_site_symmetry_multiplicity
  _atom_site_fract_x
  _atom_site_fract_y
  _atom_site_fract_z
  _atom_site_occupancy
  Ba  Ba1       1.0  0.478053627933555  0.09759866719844007  0.15376442364998866  1.0000
  Ba  Ba2       1.0  0.9780621429987092  0.09761727024408628  0.3462354520977938  1.0000
  Ba  Ba3       1.0  0.5219368994536709  0.9023857033505606  0.8462352294191575  1.0000
  Ba  Ba4       1.0  0.021940857415152906  0.9024023038257383  0.6537647659910418  1.0000
  H   H1        1.0  0.8824776750304151  0.6015962507812347  0.0177225337654292  1.0000
  H   H2        1.0  0.3824985744677036  0.6016292425663535  0.48227246010803526  1.0000
  H   H3        1.0  0.1175058001256915  0.398369958508482  0.9822686432171536  1.0000
  H   H4        1.0  0.6175494452111394  0.3984045600959973  0.5177209770615647  1.0000
  H   H5        1.0  0.5040732590227107  0.2393574630524995  0.33631316169240216  1.0000
  H   H6        1.0  0.004063480234449905  0.23934446362220294  0.1636824577407765  1.0000
  H   H7        1.0  0.495935959481031  0.7606586045487802  0.6636842310292719  1.0000
  H   H8        1.0  0.9959174785123535  0.7606388944427845  0.8363098493649801  1.0000
  H   H9        1.0  0.6435777530060279  0.3427294080404265  0.2847702984683309  1.0000
  H   H10       1.0  0.1435722174476481  0.34272942874329715  0.21522045223630218  1.0000
  H   H11       1.0  0.3564246766816481  0.6572753407395949  0.715222573676712  1.0000
  H   H12       1.0  0.8564107677192894  0.6572653121350881  0.784767899331804  1.0000
  H   H13       1.0  0.23816239428900587  0.8217923953003704  0.11310796354436552  1.0000
  H   H14       1.0  0.7381743358767565  0.8218059032566527  0.3868988376157033  1.0000
  H   H15       1.0  0.7618296766585428  0.17819081351441207  0.8868933847492853  1.0000
  H   H16       1.0  0.26183501435973966  0.17821358553464958  0.6131053359926638  1.0000
  H   H17       1.0  0.0346936515324217  0.9003952410202912  0.07503711999716957  1.0000
  H   H18       1.0  0.5347030377128091  0.9004140341065893  0.4249666732227907  1.0000
  H   H19       1.0  0.965296788071555  0.09958684869101829  0.9249653584470248  1.0000
  H   H20       1.0  0.4653045933701492  0.09960205477424469  0.5750363702422802  1.0000
  H   H21       1.0  0.280605417285841  0.8132631985129065  0.2587773499546557  1.0000
  H   H22       1.0  0.7806025141057518  0.8132626696793251  0.24122664026264568  1.0000
  H   H23       1.0  0.7193920745136282  0.18673705249862138  0.7412268236842364  1.0000
  H   H24       1.0  0.21939171498579668  0.1867353431491168  0.7587758381570779  1.0000
  H   H25       1.0  0.4414684381131337  0.8996480717838294  0.31331308647347095  1.0000
  H   H26       1.0  0.9414554811004623  0.8996494695822077  0.18668777571130588  1.0000
  H   H27       1.0  0.5585354912773823  0.1003543748039135  0.6866893919383017  1.0000
  H   H28       1.0  0.0585370288375415  0.1003451433357583  0.8133135725651286  1.0000
  C   C1        1.0  0.6919622616308699  0.4496898246482741  0.08040874241045508  1.0000
  C   C2        1.0  0.1919806077035275  0.4497156115491804  0.4195918448563063  1.0000
  C   C3        1.0  0.30803761485405795  0.5502898563877139  0.9195892154415402  1.0000
  C   C4        1.0  0.8080659562724506  0.5503216335998147  0.5804111985717739  1.0000
  C   C5        1.0  0.4164157776028787  0.568867330548798  0.14359181983046904  1.0000
  C   C6        1.0  0.9164175668746495  0.5688733515229598  0.3564106095433103  1.0000
  C   C7        1.0  0.5835845379021904  0.43112375455626756  0.8564117887475218  1.0000
  C   C8        1.0  0.083588257259656  0.4311370566233492  0.6435918688562265  1.0000
  C   C9        1.0  0.6340788879616567  0.7181604405917736  0.06602211896016998  1.0000
  C   C10       1.0  0.13408270307296277  0.7181759819306704  0.43398276139767217  1.0000
  C   C11       1.0  0.36593527559823263  0.2818190485973844  0.9339797944104686  1.0000
  C   C12       1.0  0.8659550457083753  0.28183856153592046  0.5660276280319108  1.0000
  S   S1        1.0  0.8438788939084887  0.29657963517875874  0.05672442753066781  1.0000
  S   S2        1.0  0.3439038386327339  0.2966050509272832  0.44327545005565117  1.0000
  S   S3        1.0  0.156100038427077  0.7033923400626065  0.9432735303357019  1.0000
  S   S4        1.0  0.6561152996711499  0.7034211524780573  0.5567230727981068  1.0000
  S   S5        1.0  0.21539410771576684  0.5678531247259855  0.20722317215641783  1.0000
  S   S6        1.0  0.7154189962202793  0.5678584537530041  0.292770837495631  1.0000
  S   S7        1.0  0.784568021108818  0.4321361911681834  0.7927668746455865  1.0000
  S   S8        1.0  0.2846012466445559  0.4321551838251807  0.7072276853768854  1.0000
  S   S9        1.0  0.7112398546292056  0.8852179161601511  0.024872015100072496  1.0000
  S   S10       1.0  0.21122368472737207  0.8852389399139466  0.47512895157596075  1.0000
  S   S11       1.0  0.28877109013367175  0.1147604752425977  0.9751304633469644  1.0000
  S   S12       1.0  0.7887682474471233  0.11478192374477908  0.5248740918840156  1.0000
  N   N1        1.0  0.4670594538323769  0.7078790132054991  0.11219663970336308  1.0000
  N   N2        1.0  0.9670459179855156  0.707890570363922  0.3878093133937383  1.0000
  N   N3        1.0  0.5329452289683018  0.2921017442247872  0.8878137497814504  1.0000
  N   N4        1.0  0.0329234825891547  0.2921226088138411  0.6121937300807827  1.0000
  N   N5        1.0  0.7493794397093297  0.5895552961647682  0.0516151622763985  1.0000
  N   N6        1.0  0.24938195039700867  0.5895741061890689  0.4483810333252122  1.0000
  N   N7        1.0  0.2505948619897893  0.41042016422807137  0.9483861860312714  1.0000
  N   N8        1.0  0.7505971503668009  0.41044350687418063  0.5516011023914513  1.0000
  N   N9        1.0  0.5212933258061624  0.4373545423257781  0.12522991372821926  1.0000
  N   N10       1.0  0.0213028686128354  0.4373707131338874  0.374774146411319  1.0000
  N   N11       1.0  0.4786971138275007  0.5626275473514254  0.8747782154591873  1.0000
  N   N12       1.0  0.9786970885883264  0.5626523248044462  0.6252243764497435  1.0000
  O   O1        1.0  0.5996730820180146  0.23169484298930598  0.2917457487967212  1.0000
  O   O2        1.0  0.09966884114869147  0.23168922450075502  0.20824986831679837  1.0000
  O   O3        1.0  0.4003328298817265  0.768317846015158  0.7082505137818413  1.0000
  O   O4        1.0  0.9003187746992295  0.76830203117499  0.7917435689248292  1.0000
  O   O5        1.0  0.13415694742332113  0.9080483501678316  0.11826584595851126  1.0000
  O   O6        1.0  0.6341657476948228  0.9080642438566141  0.3817373327662778  1.0000
  O   O7        1.0  0.8658446921260604  0.09193587117530198  0.8817355023323399  1.0000
  O   O8        1.0  0.3658433391266271  0.0919484024966479  0.6182628853321785  1.0000
  O   O9        1.0  0.3217022977646237  0.916338044567617  0.2770008362719237  1.0000
  O   O10       1.0  0.8216929849991815  0.9163412422073516  0.2230022677599379  1.0000
  O   O11       1.0  0.6782951501298626  0.08366106604040617  0.7230022072200484  1.0000
  O   O12       1.0  0.1782996127458247  0.0836556515210276  0.7770007757360132  1.0000
