data_image0
_chemical_formula_structural       CdH22C26N2O7
_chemical_formula_sum              "Cd1 H22 C26 N2 O7"
_cell_length_a       5.7152520710973995
_cell_length_b       8.136214391544899
_cell_length_c       13.785459120396412
_cell_angle_alpha    76.28239884281531
_cell_angle_beta     79.62689866101992
_cell_angle_gamma    72.07818683465516

_space_group_name_H-M_alt    "P 1"
_space_group_IT_number       1

loop_
  _space_group_symop_operation_xyz
  'x, y, z'

loop_
  _atom_site_type_symbol
  _atom_site_label
  _atom_site_symmetry_multiplicity
  _atom_site_fract_x
  _atom_site_fract_y
  _atom_site_fract_z
  _atom_site_occupancy
  Cd  Cd1       1.0  0.9198522733690668  0.49584777830959587  0.4997237278439925  1.0000
  H   H1        1.0  0.4517996474349885  0.8991043516995135  0.259118594429772  1.0000
  H   H2        1.0  0.6263512513523752  0.07983286689775329  0.7511037024290913  1.0000
  H   H3        1.0  0.6426615881808008  0.9056746680095952  0.4048132773788852  1.0000
  H   H4        1.0  0.9660098580981044  0.075405493718236  0.6100620360375757  1.0000
  H   H5        1.0  0.43208078482636125  0.13899323094685198  0.508583187284664  1.0000
  H   H6        1.0  0.05648652783933288  0.8464496664204546  0.5020186128660099  1.0000
  H   H7        1.0  0.8466201971257802  0.3357815396441027  0.33651181668451363  1.0000
  H   H8        1.0  0.4768211808814725  0.6523816292231858  0.6602203649787269  1.0000
  H   H9        1.0  0.051279521359937526  0.019117971786528198  0.167530090476177  1.0000
  H   H10       1.0  0.22719033539264882  0.9802744752686222  0.8227373404346423  1.0000
  H   H11       1.0  0.8325952561102173  0.2205790940719581  0.19302263224661698  1.0000
  H   H12       1.0  0.21049814258289262  0.7770151846752711  0.7985690966933205  1.0000
  H   H13       1.0  0.44995236623726304  0.3848313849483844  0.9777293189349264  1.0000
  H   H14       1.0  0.7090790966548826  0.6089479120523222  0.041828493120156934  1.0000
  H   H15       1.0  0.42692905350695326  0.44428956337677755  0.7927634589165747  1.0000
  H   H16       1.0  0.5312484019460726  0.5716987366214428  0.2227216765805977  1.0000
  H   H17       1.0  0.8026596623252616  0.23360272743669705  0.8478889192805  1.0000
  H   H18       1.0  0.7999473071611832  0.7959725666008169  0.1328511908765293  1.0000
  H   H19       1.0  0.8271536432050725  0.16876052476822423  0.03155205982678673  1.0000
  H   H20       1.0  0.9739345272490856  0.8469599240306992  0.9538079213067192  1.0000
  H   H21       1.0  0.4334965093794097  0.4482661646794667  0.5447709323679463  1.0000
  H   H22       1.0  0.46745163441247684  0.5211454840906242  0.42765540191873436  1.0000
  C   C1        1.0  0.35971081564206725  0.9974930861955259  0.305452611473747  1.0000
  C   C2        1.0  0.6663513140787531  0.9840602771946718  0.7025218972411623  1.0000
  C   C3        1.0  0.4675889556285994  0.0008721575599253005  0.38755236626887785  1.0000
  C   C4        1.0  0.8572956211336804  0.9816959142098156  0.6236476581001683  1.0000
  C   C5        1.0  0.34875766438799644  0.127497573244554  0.4461639576694125  1.0000
  C   C6        1.0  0.90535681190886  0.8572167351808916  0.5633016307886649  1.0000
  C   C7        1.0  0.023730916414798797  0.23856767689105848  0.34923662621945073  1.0000
  C   C8        1.0  0.5832228329863086  0.7468804029605423  0.6523394335328163  1.0000
  C   C9        1.0  0.1349898796086535  0.1216401718635538  0.2842922839821895  1.0000
  C   C10       1.0  0.5271293429654732  0.8634115631738484  0.7185214725936574  1.0000
  C   C11       1.0  0.02980428936917428  0.1456787027755837  0.18840959257173753  1.0000
  C   C12       1.0  0.33644619504967477  0.8492554468805266  0.8083186203564169  1.0000
  C   C13       1.0  0.14214021868684065  0.27301737867266235  0.015598129469758209  1.0000
  C   C14       1.0  0.35523574795868756  0.733883318882654  0.9870620484690064  1.0000
  C   C15       1.0  0.31001613688608404  0.3517236301601088  0.9479444711671262  1.0000
  C   C16       1.0  0.5101460523005983  0.6521833090443677  0.06338759246848724  1.0000
  C   C17       1.0  0.2947847487665457  0.385931894620107  0.84570384843677  1.0000
  C   C18       1.0  0.41013131470843694  0.6290549864541289  0.16349017583965522  1.0000
  C   C19       1.0  0.1115530230455805  0.34397625960750133  0.8083058399181694  1.0000
  C   C20       1.0  0.15269989217816277  0.6811382924700168  0.18980723833106342  1.0000
  C   C21       1.0  0.9451256731474943  0.2659292367722657  0.8766226504657197  1.0000
  C   C22       1.0  0.9998313824991105  0.7573233661035345  0.11272920771779135  1.0000
  C   C23       1.0  0.9581160978449789  0.23003120611749486  0.979906959952274  1.0000
  C   C24       1.0  0.09770016379615505  0.7859025513712864  0.011837177975998307  1.0000
  C   C25       1.0  0.09642960401905752  0.38554779799559197  0.697921077872067  1.0000
  C   C26       1.0  0.04320558188085503  0.6509062464758273  0.29716751558149207  1.0000
  N   N1        1.0  0.1277556874053191  0.2430133243216446  0.42822897488810696  1.0000
  N   N2        1.0  0.7689634069173795  0.7433548319018827  0.5768182762825163  1.0000
  O   O1        1.0  0.17519897822855063  0.24433302854711766  0.11415153145160419  1.0000
  O   O2        1.0  0.4762485700988754  0.7537128334838952  0.8919531629356642  1.0000
  O   O3        1.0  0.23678765830114698  0.47404734924963776  0.6418863404387806  1.0000
  O   O4        1.0  0.1839484928925828  0.6193457564093379  0.36683282353648383  1.0000
  O   O5        1.0  0.93976336423232  0.3352656569580503  0.6646014795913971  1.0000
  O   O6        1.0  0.8173155611265063  0.652356112328867  0.31723485733784423  1.0000
  O   O7        1.0  0.5583475988864705  0.44280223369437977  0.48345415798082303  1.0000
