data_image0
_chemical_formula_structural       Dy4H52C28O28
_chemical_formula_sum              "Dy4 H52 C28 O28"
_cell_length_a       7.566175405050048
_cell_length_b       11.762947426038558
_cell_length_c       11.938651703590342
_cell_angle_alpha    90.00024731565432
_cell_angle_beta     90.28167681131391
_cell_angle_gamma    89.99984045667539

_space_group_name_H-M_alt    "P 1"
_space_group_IT_number       1

loop_
  _space_group_symop_operation_xyz
  'x, y, z'

loop_
  _atom_site_type_symbol
  _atom_site_label
  _atom_site_symmetry_multiplicity
  _atom_site_fract_x
  _atom_site_fract_y
  _atom_site_fract_z
  _atom_site_occupancy
  Dy  Dy1       1.0  0.8138564507530788  0.6947655758275033  0.7575510772497723  1.0000
  Dy  Dy2       1.0  0.686144103885873  0.19476487713287569  0.24244910453951726  1.0000
  Dy  Dy3       1.0  0.18614440632990184  0.305234237313421  0.24244874811883227  1.0000
  Dy  Dy4       1.0  0.31385807488660333  0.8052340858798034  0.757550724849722  1.0000
  H   H1        1.0  0.5161174596825759  0.6103823059791295  0.4042305882445021  1.0000
  H   H2        1.0  0.9838913868450733  0.11038092153826537  0.5957684225010313  1.0000
  H   H3        1.0  0.4838820758615654  0.389618357291873  0.5957700707194606  1.0000
  H   H4        1.0  0.016108148697242104  0.8896205918598026  0.40423223646473627  1.0000
  H   H5        1.0  0.3865727478364818  0.7295499390351593  0.4521577868937784  1.0000
  H   H6        1.0  0.11343270135616021  0.22955070941151937  0.5478413734212282  1.0000
  H   H7        1.0  0.6134267877094784  0.2704498741087704  0.5478428720683868  1.0000
  H   H8        1.0  0.8865668341861552  0.7704508039865418  0.4521592855445391  1.0000
  H   H9        1.0  0.3581517108309811  0.593068996461369  0.5122025813799241  1.0000
  H   H10       1.0  0.1418477148239674  0.0930703027813138  0.48779346765948634  1.0000
  H   H11       1.0  0.6418491464044822  0.40692996655431574  0.4877980816028683  1.0000
  H   H12       1.0  0.8581518207183478  0.9069312106167544  0.5122071913062812  1.0000
  H   H13       1.0  0.7521215874040265  0.9225946457857362  0.009708055922196502  1.0000
  H   H14       1.0  0.7478779900945373  0.4225954140677218  0.9902930912601992  1.0000
  H   H15       1.0  0.2478792699820858  0.07740431723178888  0.9902934446765814  1.0000
  H   H16       1.0  0.2521241886761203  0.5774043990720159  0.009706738130837802  1.0000
  H   H17       1.0  0.7364973884579414  0.7829069994745764  0.06383969358863342  1.0000
  H   H18       1.0  0.7635014666093981  0.2829083525805274  0.9361616952840424  1.0000
  H   H19       1.0  0.2635034690788345  0.2170919635447817  0.936162644626137  1.0000
  H   H20       1.0  0.2365007123119156  0.7170914605610506  0.063838971722987  1.0000
  H   H21       1.0  0.5939649020695584  0.8959273805953387  0.11415727478137684  1.0000
  H   H22       1.0  0.9060347896533046  0.3959274072973642  0.8858429217850985  1.0000
  H   H23       1.0  0.406029346126715  0.1040707322918166  0.8858400176235153  1.0000
  H   H24       1.0  0.09396738911735274  0.6040724058423734  0.11415690760593834  1.0000
  H   H25       1.0  0.5063740342329481  0.3526374838204518  0.834983541143636  1.0000
  H   H26       1.0  0.993625843308003  0.85263696301471  0.1650173096035132  1.0000
  H   H27       1.0  0.49362682299886984  0.6473631794493712  0.16501712184275874  1.0000
  H   H28       1.0  0.0063723703977985  0.14736370025563159  0.8349825077220318  1.0000
  H   H29       1.0  0.3045254247607332  0.37169394564103425  0.7585139748700913  1.0000
  H   H30       1.0  0.19547412819063234  0.8716942949364679  0.24148660928325683  1.0000
  H   H31       1.0  0.6954741106345709  0.6283058675010621  0.2414858464760812  1.0000
  H   H32       1.0  0.8045240855169951  0.12830551820680816  0.7585132080404906  1.0000
  H   H33       1.0  0.31638909373279495  0.41470472335409875  0.899793090828368  1.0000
  H   H34       1.0  0.18361027489954307  0.9147053248012892  0.10020851319293911  1.0000
  H   H35       1.0  0.6836144067255322  0.5852950897844664  0.10020674258510102  1.0000
  H   H36       1.0  0.816386617269245  0.08529533847205775  0.8997921377261664  1.0000
  H   H37       1.0  0.1293410210614852  0.551283417241315  0.7454864887998341  1.0000
  H   H38       1.0  0.3706585847148602  0.051283290517709204  0.2545144088726233  1.0000
  H   H39       1.0  0.8706585144844753  0.4487163959026147  0.2545141701623308  1.0000
  H   H40       1.0  0.6293396291416045  0.9487173727544657  0.7454862460689144  1.0000
  H   H41       1.0  0.83326297764944  0.4258395323188465  0.6525667169526985  1.0000
  H   H42       1.0  0.6667365860862091  0.9258386973153775  0.34743528159198434  1.0000
  H   H43       1.0  0.16673787973485338  0.574160280825744  0.34743478364788427  1.0000
  H   H44       1.0  0.33326162762141825  0.07416111582789849  0.652564535731763  1.0000
  H   H45       1.0  0.029327102971919303  0.35832242310971196  0.7034156728448481  1.0000
  H   H46       1.0  0.4706711856414999  0.8583225201805075  0.2965848506258055  1.0000
  H   H47       1.0  0.9706724327247048  0.6416773900360581  0.2965858237333023  1.0000
  H   H48       1.0  0.5293257062314395  0.14167559270797628  0.7034141250559287  1.0000
  H   H49       1.0  0.0399344770306413  0.45104636180572283  0.58425127453733  1.0000
  H   H50       1.0  0.4600647355869469  0.9510461501082261  0.4157496458582629  1.0000
  H   H51       1.0  0.9600663802048218  0.5489526012099686  0.4157493884454625  1.0000
  H   H52       1.0  0.53993612119654  0.04895281290195188  0.5842485042765659  1.0000
  C   C1        1.0  0.5928317741689427  0.676956039453259  0.5646765998716676  1.0000
  C   C2        1.0  0.9071635707007388  0.1769574899004525  0.4353268408312872  1.0000
  C   C3        1.0  0.4071677613751988  0.3230446238177436  0.4353240590922951  1.0000
  C   C4        1.0  0.0928372863785896  0.8230440234946031  0.564672984540927  1.0000
  C   C5        1.0  0.4562051116436763  0.6517845567699609  0.47665787853021874  1.0000
  C   C6        1.0  0.0437967060124222  0.151786194813738  0.5233409402007042  1.0000
  C   C7        1.0  0.543794423902284  0.3482152563739687  0.5233427804319462  1.0000
  C   C8        1.0  0.9562028295317192  0.8482144684572572  0.47665971876325847  1.0000
  C   C9        1.0  0.5303005314375325  0.8304082781786802  0.9508945764935747  1.0000
  C   C10       1.0  0.9696994414401915  0.3304087736631515  0.04910618006294951  1.0000
  C   C11       1.0  0.4697003256472669  0.16959068483517103  0.04910524887323221  1.0000
  C   C12       1.0  0.0303027376299596  0.6695918896073252  0.9508953245618629  1.0000
  C   C13       1.0  0.6596226101147238  0.8585513263868377  0.041704760110747  1.0000
  C   C14       1.0  0.8403772420583877  0.35855263859216524  0.9582961156992698  1.0000
  C   C15       1.0  0.34037824682123846  0.1414467864981077  0.9582942276382697  1.0000
  C   C16       1.0  0.1596249367122695  0.6414471745475794  0.041703713691767105  1.0000
  C   C17       1.0  0.453037362066219  0.525531165729589  0.7856342868220312  1.0000
  C   C18       1.0  0.0469623541600441  0.025530593646777792  0.21436650172834962  1.0000
  C   C19       1.0  0.5469621733290851  0.47446864741250744  0.21436553452414847  1.0000
  C   C20       1.0  0.9530385030699479  0.974470919750111  0.7856341612598502  1.0000
  C   C21       1.0  0.3929787411405457  0.4088037518511952  0.8218498389392936  1.0000
  C   C22       1.0  0.107020652803115  0.9088031320994502  0.17815174007498066  1.0000
  C   C23       1.0  0.6070207942547584  0.5911960612909013  0.1781499824068788  1.0000
  C   C24       1.0  0.8929775610551688  0.09119668104565896  0.8218489148647594  1.0000
  C   C25       1.0  0.9755739339369498  0.4365331810864958  0.6653638922142023  1.0000
  C   C26       1.0  0.5244255837817421  0.9365333954363633  0.3346373140293864  1.0000
  C   C27       1.0  0.0244269232966872  0.5634666320562615  0.33463677077039483  1.0000
  C   C28       1.0  0.4755726297770481  0.0634655675780067  0.6653616656765777  1.0000
  O   O1        1.0  0.5596472089016018  0.7521176707933036  0.6410048321523123  1.0000
  O   O2        1.0  0.9403504562317125  0.2521178770000674  0.3589947469985617  1.0000
  O   O3        1.0  0.44035232649187617  0.2478829924758585  0.35899498919566514  1.0000
  O   O4        1.0  0.059650400700611804  0.7478819361390091  0.6410042407540573  1.0000
  O   O5        1.0  0.7384664447416611  0.6242522875474208  0.5675437723205264  1.0000
  O   O6        1.0  0.7615344126219058  0.1242522864482112  0.4324577859132007  1.0000
  O   O7        1.0  0.26153309095495564  0.37574752559834923  0.4324577242576242  1.0000
  O   O8        1.0  0.23846644446107493  0.8757475266927061  0.5675420394554112  1.0000
  O   O9        1.0  0.5808478170474061  0.7699963167391173  0.8658309551956905  1.0000
  O   O10       1.0  0.9191510933952927  0.269996425641601  0.1341703789673474  1.0000
  O   O11       1.0  0.4191556834163919  0.23000094601825075  0.1341688782123711  1.0000
  O   O12       1.0  0.0808497636876808  0.7300033874993233  0.8658294464012573  1.0000
  O   O13       1.0  0.3725917277968236  0.8657056984891724  0.9522616221736159  1.0000
  O   O14       1.0  0.12740652915191222  0.36570510183592836  0.04773893258104072  1.0000
  O   O15       1.0  0.6274091288396518  0.13429156426504107  0.047735690341625114  1.0000
  O   O16       1.0  0.8725943282305552  0.634295561435728  0.9522625680213397  1.0000
  O   O17       1.0  0.6168389100911966  0.5455328040506727  0.7836342364632574  1.0000
  O   O18       1.0  0.8831596413656017  0.0455333378124934  0.21636614254927622  1.0000
  O   O19       1.0  0.38316326883011703  0.45446700909090515  0.21636643054376492  1.0000
  O   O20       1.0  0.11683857234202581  0.9544664753307824  0.7836336747744711  1.0000
  O   O21       1.0  0.3323029420665407  0.5983114442944311  0.7591183163076565  1.0000
  O   O22       1.0  0.16769514017208562  0.09831162195464323  0.24088193900092145  1.0000
  O   O23       1.0  0.66769791501644  0.40168836884648573  0.24088150906094805  1.0000
  O   O24       1.0  0.8323030738368618  0.9016881911922996  0.7591195535547968  1.0000
  O   O25       1.0  0.9999841082196216  0.5309348320254301  0.7396268278935383  1.0000
  O   O26       1.0  0.5000158278372453  0.030934545835045  0.26037516851503995  1.0000
  O   O27       1.0  1.674916467210001e-05  0.46906498111915335  0.2603746727070444  1.0000
  O   O28       1.0  0.4999837075580587  0.9690652673070518  0.7396246528311397  1.0000
