data_image0
_chemical_formula_structural       Zn4H20C18N8O6
_chemical_formula_sum              "Zn4 H20 C18 N8 O6"
_cell_length_a       4.68804841900048
_cell_length_b       10.563899613001347
_cell_length_c       12.30513003700201
_cell_angle_alpha    90.00004953990945
_cell_angle_beta     89.99995737665279
_cell_angle_gamma    89.9999701417617

_space_group_name_H-M_alt    "P 1"
_space_group_IT_number       1

loop_
  _space_group_symop_operation_xyz
  'x, y, z'

loop_
  _atom_site_type_symbol
  _atom_site_label
  _atom_site_symmetry_multiplicity
  _atom_site_fract_x
  _atom_site_fract_y
  _atom_site_fract_z
  _atom_site_occupancy
  Zn  Zn1       1.0  0.9475412414349266  0.0523480533802569  0.13845270954976027  1.0000
  Zn  Zn2       1.0  0.9475421386758002  0.9476513215663618  0.8615473912234534  1.0000
  Zn  Zn3       1.0  0.9475407285910153  0.5523481840906896  0.36154765241074216  1.0000
  Zn  Zn4       1.0  0.9475405184351472  0.44765119085658267  0.6384532610319552  1.0000
  H   H1        1.0  0.30748381955861254  0.28230861248293593  0.04082774856858859  1.0000
  H   H2        1.0  0.3074847955932754  0.7176918569213556  0.9591725326987869  1.0000
  H   H3        1.0  0.30748311513280413  0.7823078949382278  0.45917215183935406  1.0000
  H   H4        1.0  0.30748336693666534  0.21769162784576676  0.5408273167587864  1.0000
  H   H5        1.0  0.28639804987849266  0.5176062440235256  0.14098687789201847  1.0000
  H   H6        1.0  0.2863973660392674  0.48239328363070655  0.859012596652164  1.0000
  H   H7        1.0  0.28639812988547675  0.017606335546396703  0.359013644730993  1.0000
  H   H8        1.0  0.2863972860314874  0.9823931921082547  0.6409866424823747  1.0000
  H   H9        1.0  0.7492685576387217  0.2905945173763342  0.417842803052288  1.0000
  H   H10       1.0  0.7492681502000735  0.709404903366966  0.5821581663024489  1.0000
  H   H11       1.0  0.749266459995894  0.790595313198637  0.0821577915918397  1.0000
  H   H12       1.0  0.7492659816756061  0.2094050541648756  0.9178423650946711  1.0000
  H   H13       1.0  0.7610731972102727  0.1425175349420584  0.3496297330620876  1.0000
  H   H14       1.0  0.7610746148899779  0.857481883074037  0.650370420294351  1.0000
  H   H15       1.0  0.7610730987882308  0.6425183994939588  0.1503699357155099  1.0000
  H   H16       1.0  0.7610725802284933  0.3574819651421067  0.8496294049723969  1.0000
  H   H17       1.0  0.4960097766277798  0.25607504481491367  0.3141584279712433  1.0000
  H   H18       1.0  0.4960091251295396  0.743925381044285  0.6858409874635567  1.0000
  H   H19       1.0  0.49600960859646653  0.7560740518669107  0.18584139980847433  1.0000
  H   H20       1.0  0.49600929316140707  0.2439254273721616  0.8141580156259705  1.0000
  C   C1        1.0  0.9166176664216154  0.29793734877779343  0.2558672488860552  1.0000
  C   C2        1.0  0.916616949749823  0.702062979931725  0.7441328606080688  1.0000
  C   C3        1.0  0.9166173839970283  0.7979373611830525  0.24413249134466494  1.0000
  C   C4        1.0  0.9166172321749713  0.20206202090633957  0.7558676181491107  1.0000
  C   C5        1.0  0.19026864530410853  0.3134855956733276  0.11178923723759478  1.0000
  C   C6        1.0  0.1902697972540537  0.6865139541842282  0.8882102644144607  1.0000
  C   C7        1.0  0.1902723463008229  0.8134876464893853  0.3882115320264603  1.0000
  C   C8        1.0  0.19027036242297163  0.1865137966083452  0.61178878229488  1.0000
  C   C9        1.0  0.18069524809695284  0.42964159129724067  0.1616839189691888  1.0000
  C   C10       1.0  0.18069663453259474  0.5703589073916433  0.8383155853828512  1.0000
  C   C11       1.0  0.1806947808445045  0.9296407519796123  0.3383153138395869  1.0000
  C   C12       1.0  0.18069496870182888  0.07035880008938732  0.661684190512396  1.0000
  C   C13       1.0  0.4246238660698864  0.9999999875955438  3.111123164e-07  1.0000
  C   C14       1.0  0.4246215363154421  0.5000002211744388  0.500000530452148  1.0000
  C   C15       1.0  0.7200198177154178  0.24412395231576065  0.3389358627378057  1.0000
  C   C16       1.0  0.7200192007890606  0.7558764218030234  0.6610643021961734  1.0000
  C   C17       1.0  0.7200196983069915  0.7441238810229436  0.16106470567413567  1.0000
  C   C18       1.0  0.7200193201980412  0.25587554647571414  0.8389354592594882  1.0000
  N   N1        1.0  0.007898314928759498  0.4193036186008499  0.25251841232675076  1.0000
  N   N2        1.0  0.007897734381806704  0.5806969200005128  0.7474819534228415  1.0000
  N   N3        1.0  0.007900159015719102  0.9193036343802774  0.2474816742088422  1.0000
  N   N4        1.0  0.007900156463740898  0.08069595760006369  0.7525178788706128  1.0000
  N   N5        1.0  0.023711054985902497  0.23089682543417914  0.17169757707171837  1.0000
  N   N6        1.0  0.023712227397346897  0.7691037095142264  0.8283019715493082  1.0000
  N   N7        1.0  0.023710607383939906  0.7308959760273198  0.32830236521312617  1.0000
  N   N8        1.0  0.023710541916095496  0.2691036123012013  0.6716971834078507  1.0000
  O   O1        1.0  0.5451521103424996  0.04231673979867881  0.0857324745179397  1.0000
  O   O2        1.0  0.5451507592457149  0.9576827280898002  0.9142669270586481  1.0000
  O   O3        1.0  0.5451514940383079  0.5423169236291587  0.4142679934719097  1.0000
  O   O4        1.0  0.5451513755485564  0.4576834908798588  0.5857322207742114  1.0000
  O   O5        1.0  0.14073601316154344  2.0381101299999997e-08  3.511399810999999e-07  1.0000
  O   O6        1.0  0.14073581649142136  0.49999930733962833  0.500000570479159  1.0000
