data_image0
_chemical_formula_structural       Al2H3C24S6Cl3O12
_chemical_formula_sum              "Al2 H3 C24 S6 Cl3 O12"
_cell_length_a       3.9661393100012745
_cell_length_b       20.142882609634675
_cell_length_c       20.14282025061186
_cell_angle_alpha    119.99986172903833
_cell_angle_beta     90.00006089087414
_cell_angle_gamma    89.9999079776262

_space_group_name_H-M_alt    "P 1"
_space_group_IT_number       1

loop_
  _space_group_symop_operation_xyz
  'x, y, z'

loop_
  _atom_site_type_symbol
  _atom_site_label
  _atom_site_symmetry_multiplicity
  _atom_site_fract_x
  _atom_site_fract_y
  _atom_site_fract_z
  _atom_site_occupancy
  Al  Al1       1.0  0.0007861873317054001  0.5000007910120415  0.4999995301777531  1.0000
  Al  Al2       1.0  0.0022055964580332  0.16666707427391708  0.8333323316533878  1.0000
  H   H1        1.0  0.4766158358897101  0.1769385825021671  0.6144703532169727  1.0000
  H   H2        1.0  0.4766159010816082  0.9375344403474982  0.8230622416262249  1.0000
  H   H3        1.0  0.476613243788151  0.38553134946544526  0.06246478832552072  1.0000
  C   C1        1.0  0.5011340930268133  0.44057318907861287  0.3825267759997359  1.0000
  C   C2        1.0  0.501134644453721  0.4419563435203244  0.5594273889259611  1.0000
  C   C3        1.0  0.5011364430675657  0.6174736820283967  0.5580443655810897  1.0000
  C   C4        1.0  0.5017816714323473  0.22570990490213913  0.7747041011502488  1.0000
  C   C5        1.0  0.501777350712061  0.048996147424276236  0.7742899299918307  1.0000
  C   C6        1.0  0.501779706975107  0.22529650889233463  0.9510034002191573  1.0000
  C   C7        1.0  0.49167751663435405  0.4293907733648297  0.680293603352176  1.0000
  C   C8        1.0  0.4865598908281186  0.23822281582148014  0.6546640259352756  1.0000
  C   C9        1.0  0.49938766063299767  0.39940501485512653  0.6017059312744449  1.0000
  C   C10       1.0  0.49860194940886515  0.26887886087865087  0.7330907668935681  1.0000
  C   C11       1.0  0.5032080223089467  0.29681078155725515  0.6354296465799861  1.0000
  C   C12       1.0  0.5062864825314719  0.3708641828133139  0.699818092557237  1.0000
  C   C13       1.0  0.4916758553012032  0.7509040374676202  0.5706095438300522  1.0000
  C   C14       1.0  0.4865549309158581  0.9164433329111857  0.7617777692076685  1.0000
  C   C15       1.0  0.49939398144051944  0.7023030337510647  0.600596780798881  1.0000
  C   C16       1.0  0.4985965759272659  0.9642146445755273  0.7311219268417587  1.0000
  C   C17       1.0  0.5032034967766492  0.8386217859031078  0.703189974423175  1.0000
  C   C18       1.0  0.5062768209889299  0.8289558698883964  0.6291358419202382  1.0000
  C   C19       1.0  0.49166904361330666  0.3197076250285634  0.24909517318275223  1.0000
  C   C20       1.0  0.48655008987832105  0.34533764579630594  0.08355616161700398  1.0000
  C   C21       1.0  0.49938670780070277  0.39829587309479564  0.29769709791091975  1.0000
  C   C22       1.0  0.4985947188514359  0.26691057021151465  0.03578497679949072  1.0000
  C   C23       1.0  0.5031936453902403  0.3645710096538295  0.16137755323252628  1.0000
  C   C24       1.0  0.5062674572213054  0.30018323638327615  0.17104352649028703  1.0000
  S   S1        1.0  0.5169490679139485  0.29991034775061826  0.5514784656722824  1.0000
  S   S2        1.0  0.522672969204173  0.36843509990606554  0.783846442324375  1.0000
  S   S3        1.0  0.5169476873183784  0.7515713944749152  0.7000917086154317  1.0000
  S   S4        1.0  0.5226677295768313  0.9154128905835036  0.6315644975401965  1.0000
  S   S5        1.0  0.5169449839650611  0.4485222482725034  0.24842856657384257  1.0000
  S   S6        1.0  0.5226638263593131  0.21615479466992574  0.0845860251993145  1.0000
  Cl  Cl1       1.0  0.48474363932153613  0.5250233235724905  0.7466684723295245  1.0000
  Cl  Cl2       1.0  0.48473945761942633  0.7216466666935374  0.47497700663456743  1.0000
  Cl  Cl3       1.0  0.4847382338371133  0.2533324487561615  0.2783528411683847  1.0000
  O   O1        1.0  0.7362090570670503  0.5843494021837827  0.5738475184755173  1.0000
  O   O2        1.0  0.7362114684317901  0.48949924328401556  0.41564942773866415  1.0000
  O   O3        1.0  0.7362095050593283  0.4261531824536037  0.51050088589718  1.0000
  O   O4        1.0  0.26693386267944413  0.5837049872880086  0.5093055364193545  1.0000
  O   O5        1.0  0.2669344483459001  0.4906948178547239  0.5743976641261384  1.0000
  O   O6        1.0  0.26693673821731784  0.42560195010013757  0.41629490245887263  1.0000
  O   O7        1.0  0.7372657301217274  0.17649051355409276  0.9174637428017007  1.0000
  O   O8        1.0  0.7372676916618986  0.2409746854107411  0.8235096301878143  1.0000
  O   O9        1.0  0.7372681370609798  0.08253639501045726  0.7590249261550851  1.0000
  O   O10       1.0  0.2690721281450976  0.2410209607473063  0.9173062364956193  1.0000
  O   O11       1.0  0.2690674387350214  0.08269224694648605  0.8237110667358749  1.0000
  O   O12       1.0  0.2690718944898194  0.17628825688981908  0.7589783443369099  1.0000
