data_image0
_chemical_formula_structural       Al2H7C16S2NCl2O10
_chemical_formula_sum              "Al2 H7 C16 S2 N1 Cl2 O10"
_cell_length_a       6.650332118443221
_cell_length_b       11.111473336338642
_cell_length_c       12.722523914122187
_cell_angle_alpha    71.51917365339389
_cell_angle_beta     75.45268235397417
_cell_angle_gamma    71.92442251109833

_space_group_name_H-M_alt    "P 1"
_space_group_IT_number       1

loop_
  _space_group_symop_operation_xyz
  'x, y, z'

loop_
  _atom_site_type_symbol
  _atom_site_label
  _atom_site_symmetry_multiplicity
  _atom_site_fract_x
  _atom_site_fract_y
  _atom_site_fract_z
  _atom_site_occupancy
  Al  Al1       1.0  0.4987652459938944  0.501315905936444  0.5049258425295308  1.0000
  Al  Al2       1.0  0.0004085447026299581  0.4986506016129581  0.5028209348496234  1.0000
  H   H1        1.0  0.2811725962897143  0.5811106238638358  0.3618543051556529  1.0000
  H   H2        1.0  0.7777585733014264  0.3476189789951363  0.6087514413361745  1.0000
  H   H3        1.0  0.1175817650804163  0.09835634522364238  0.5691719606163943  1.0000
  H   H4        1.0  0.7688935104855119  0.13171193122092714  0.46073991875594095  1.0000
  H   H5        1.0  0.2437394709582535  0.8633160758446082  0.5597095345011383  1.0000
  H   H6        1.0  0.9992022212359547  0.7959150106488053  0.4416349152523154  1.0000
  H   H7        1.0  0.04438664288726824  0.9482209485278831  0.4268682051704075  1.0000
  C   C1        1.0  0.8453367646523308  0.5081501409718925  0.3058603307700167  1.0000
  C   C2        1.0  0.629838916078619  0.7298415988767671  0.49351591145238427  1.0000
  C   C3        1.0  0.15089088510017504  0.49376518547234116  0.698950410203935  1.0000
  C   C4        1.0  0.3709878685977587  0.2675572230152595  0.5185715085604983  1.0000
  C   C5        1.0  0.5727710603188216  0.8665512697086583  0.5004367708466972  1.0000
  C   C6        1.0  0.4388143330630215  0.12769981596199637  0.5142887095949576  1.0000
  C   C7        1.0  0.7288283527313695  0.9408712785171003  0.4729972524416653  1.0000
  C   C8        1.0  0.2858390141132787  0.05367095979687516  0.5424613054969498  1.0000
  C   C9        1.0  0.6544959257914443  0.0720753450146674  0.4813340818430163  1.0000
  C   C10       1.0  0.3557165528881472  0.9248764940457049  0.5360702357949734  1.0000
  C   C11       1.0  0.22121246365381356  0.4438729535161698  0.9013891335417057  1.0000
  C   C12       1.0  0.7698606881740774  0.5554640759126598  0.10421681697491891  1.0000
  C   C13       1.0  0.09379452561086067  0.4946381647410759  0.8180594512553512  1.0000
  C   C14       1.0  0.8980771690547871  0.50537299635198  0.1872143088115408  1.0000
  C   C15       1.0  0.8872050354023033  0.5331936666828342  0.9996563713688289  1.0000
  C   C16       1.0  0.10259173540899277  0.4659169285576751  0.005696587745681814  1.0000
  S   S1        1.0  0.8289416665457028  0.5678573725489642  0.8673237076486089  1.0000
  S   S2        1.0  0.16221614224128444  0.4315407504674056  0.1375352757358925  1.0000
  N   N1        1.0  0.941343223458027  0.8928578566619264  0.4385267343072386  1.0000
  Cl  Cl1       1.0  0.48555085657117303  0.3611414711173849  0.8867480990177725  1.0000
  Cl  Cl2       1.0  0.5054246566584484  0.6391760635814306  0.1193091877868397  1.0000
  O   O1        1.0  0.6482601403530098  0.5337093593649839  0.3505854086423525  1.0000
  O   O2        1.0  0.8292621552007589  0.6740182593253579  0.4676541115880468  1.0000
  O   O3        1.0  0.9943638520235895  0.5196927630821617  0.6476306997261716  1.0000
  O   O4        1.0  0.5189278501030543  0.3254470890039513  0.5015543061934835  1.0000
  O   O5        1.0  0.3487224771674919  0.4678999870539469  0.6562462042536552  1.0000
  O   O6        1.0  0.16971724365285476  0.3200084955961414  0.5385880527201721  1.0000
  O   O7        1.0  0.005804724481464562  0.48391492419656856  0.3542999972542944  1.0000
  O   O8        1.0  0.4791038855623385  0.6733547693544111  0.5119512448476441  1.0000
  O   O9        1.0  0.24495887458984808  0.5642281224187258  0.44326540278469656  1.0000
  O   O10       1.0  0.7567172475528994  0.4355438816862429  0.559618276262583  1.0000
