data_image0
_chemical_formula_structural       Zn6H36C48N12O28
_chemical_formula_sum              "Zn6 H36 C48 N12 O28"
_cell_length_a       11.792891206950726
_cell_length_b       12.059012744913474
_cell_length_c       12.285083118840282
_cell_angle_alpha    108.73376120552187
_cell_angle_beta     105.24325803003013
_cell_angle_gamma    111.67482005838154

_space_group_name_H-M_alt    "P 1"
_space_group_IT_number       1

loop_
  _space_group_symop_operation_xyz
  'x, y, z'

loop_
  _atom_site_type_symbol
  _atom_site_label
  _atom_site_symmetry_multiplicity
  _atom_site_fract_x
  _atom_site_fract_y
  _atom_site_fract_z
  _atom_site_occupancy
  Zn  Zn1       1.0  0.6230573101700116  0.28851665571386315  0.3326664465040067  1.0000
  Zn  Zn2       1.0  0.37694214906837675  0.7114828479122718  0.6673342333737577  1.0000
  Zn  Zn3       1.0  0.253552309643716  0.013339142778242798  0.2532765109222693  1.0000
  Zn  Zn4       1.0  0.7464471585117495  0.9866603653434893  0.7467225446484774  1.0000
  Zn  Zn5       1.0  0.8975360754400655  0.7108567201582118  0.1699350225498293  1.0000
  Zn  Zn6       1.0  0.10246477270494132  0.2891438015374561  0.8300647057477164  1.0000
  H   H1        1.0  0.49083130853829  0.1469416668204033  0.44970324685280627  1.0000
  H   H2        1.0  0.5091667707105573  0.853056823231796  0.5502967602981527  1.0000
  H   H3        1.0  0.3832997262022744  0.07420896822669219  0.49437470544125967  1.0000
  H   H4        1.0  0.6166991090740551  0.9257875091005796  0.5056264885623419  1.0000
  H   H5        1.0  0.018979808081617592  0.9284059986435695  0.07183493965422377  1.0000
  H   H6        1.0  0.9810205368462237  0.0715935119600033  0.9281651550698413  1.0000
  H   H7        1.0  0.1264281005524452  0.9669049652126347  0.017617940541320844  1.0000
  H   H8        1.0  0.8735727475925688  0.033095556483033306  0.9823817877562249  1.0000
  H   H9        1.0  0.5525422048763744  0.5246470775360805  0.3705967697427539  1.0000
  H   H10       1.0  0.4474572409864024  0.47535241934665606  0.6294063465955304  1.0000
  H   H11       1.0  0.14251941443373542  0.23660454668793557  0.24327911108956352  1.0000
  H   H12       1.0  0.8574809304941057  0.763394963915637  0.7567209836345015  1.0000
  H   H13       1.0  0.381679684340142  0.6152261653762989  0.4102030088917488  1.0000
  H   H14       1.0  0.6183202781154193  0.38477434934193877  0.5897973045594967  1.0000
  H   H15       1.0  0.2093066444406233  0.4928812061026377  0.3450329877467481  1.0000
  H   H16       1.0  0.7906936960286757  0.5071183022531329  0.6549679191308186  1.0000
  H   H17       1.0  0.40146187010472567  0.8295803206275283  0.28628840632806174  1.0000
  H   H18       1.0  0.5985370992921163  0.17041817864991057  0.7137102035156886  1.0000
  H   H19       1.0  0.004479223435929245  0.5036957876972963  0.14470561940395743  1.0000
  H   H20       1.0  0.9955198533301797  0.49630472004350407  0.8552952792009875  1.0000
  H   H21       1.0  0.3664432000850226  0.5816368720646778  0.1943075339835048  1.0000
  H   H22       1.0  0.6335557603947349  0.41836162271715677  0.8056927001672632  1.0000
  H   H23       1.0  0.20017979368017072  0.4448474440890989  0.12044528517332503  1.0000
  H   H24       1.0  0.7998182855686765  0.5551510459630933  0.879554721977634  1.0000
  H   H25       1.0  0.3004548306525834  0.7533209699512042  0.017676974270969543  1.0000
  H   H26       1.0  0.6995461337787817  0.24668156470342947  0.9823234184807603  1.0000
  H   H27       1.0  0.5518512189414934  0.5928323707397494  0.923715547694776  1.0000
  H   H28       1.0  0.44814824029690215  0.4071671328863858  0.07628513218298853  1.0000
  H   H29       1.0  0.7191648543935332  0.022579275828157098  0.1312279889539596  1.0000
  H   H30       1.0  0.28083599821002303  0.9774212481153131  0.8687709271900844  1.0000
  H   H31       1.0  0.10453756988666638  0.6243353911485625  0.43727682896050607  1.0000
  H   H32       1.0  0.8954605138207227  0.3756631011514386  0.5627223660369437  1.0000
  H   H33       1.0  0.22280352587311814  0.0432659421592732  0.6436159144033411  1.0000
  H   H34       1.0  0.7771977047441752  0.9567335754217295  0.35638359516702406  1.0000
  H   H35       1.0  0.8182997717678263  0.7331089275088657  0.5214741525078564  1.0000
  H   H36       1.0  0.18170119712208085  0.2668936093935699  0.47852542809036447  1.0000
  C   C1        1.0  0.4605526848537735  0.4312186057791579  0.3367865113477677  1.0000
  C   C2        1.0  0.5394481454570865  0.5687819069253166  0.6632164655638138  1.0000
  C   C3        1.0  0.25044576925862577  0.2825153396100434  0.27002390430697426  1.0000
  C   C4        1.0  0.7495531956796742  0.7174831574195865  0.7299755176902849  1.0000
  C   C5        1.0  0.29890626888419547  0.5219972876180774  0.3260715775488591  1.0000
  C   C6        1.0  0.7010931903542  0.4780022160080647  0.6739291023288984  1.0000
  C   C7        1.0  0.2924491238083887  0.7697076344913539  0.2517392027381007  1.0000
  C   C8        1.0  0.7075499529577273  0.23029287324944653  0.7482616958668444  1.0000
  C   C9        1.0  0.08958301257381861  0.6027246388357456  0.1793368948214322  1.0000
  C   C10       1.0  0.9104155654336594  0.3972748600607544  0.8206635580565232  1.0000
  C   C11       1.0  0.2732018780042438  0.5411938933285825  0.206203116469986  1.0000
  C   C12       1.0  0.7267967000032343  0.45880560556791755  0.7937973364079624  1.0000
  C   C13       1.0  0.5086012809444612  0.8996114901791118  0.08262443545940121  1.0000
  C   C14       1.0  0.4913991936453499  0.1003900401268254  0.9173738872583144  1.0000
  C   C15       1.0  0.39829758052712805  0.7688552803577765  0.020293577419039473  1.0000
  C   C16       1.0  0.6017023863869754  0.2311452366082563  0.9797059238786971  1.0000
  C   C17       1.0  0.4129122092405453  0.6583007835734022  0.960274389313966  1.0000
  C   C18       1.0  0.5870863732254747  0.3416987175708996  0.03972525141048069  1.0000
  C   C19       1.0  0.5393602282186195  0.6793887014639994  0.9653402957453707  1.0000
  C   C20       1.0  0.4606392354783111  0.3206108044099381  0.03465957197888511  1.0000
  C   C21       1.0  0.6499361641313399  0.8100565712130248  0.026063307830057215  1.0000
  C   C22       1.0  0.3500632951070557  0.18994293241311058  0.9739373720477076  1.0000
  C   C23       1.0  0.6337254063655351  0.9204047992963992  0.0831121312659633  1.0000
  C   C24       1.0  0.36627495193792464  0.0795947180505649  0.916885526997575  1.0000
  C   C25       1.0  0.49434004948386706  0.016588249665666403  0.15358313053984324  1.0000
  C   C26       1.0  0.5056623038541161  0.9834153030585072  0.8464163106316747  1.0000
  C   C27       1.0  0.2973040498003811  0.518023176711459  0.8975392071037831  1.0000
  C   C28       1.0  0.7026936514347213  0.4819763197032004  0.1024602066208544  1.0000
  C   C29       1.0  0.7863101769453351  0.8304840795420887  0.0372575738175769  1.0000
  C   C30       1.0  0.21369017689958267  0.1695154355570807  0.9627408965994704  1.0000
  C   C31       1.0  0.9498398213509774  0.6629960957860347  0.46958187989131517  1.0000
  C   C32       1.0  0.05015926433221546  0.3370044164503624  0.5304173944066193  1.0000
  C   C33       1.0  0.08051065719286749  0.7020491860324539  0.47861198288229184  1.0000
  C   C34       1.0  0.9194884195732413  0.29795132170834643  0.521388915722653  1.0000
  C   C35       1.0  0.17907846976019207  0.8383423154472566  0.5413126182884724  1.0000
  C   C36       1.0  0.8209210028538154  0.1616571949222774  0.45868562512876576  1.0000
  C   C37       1.0  0.14653829062727647  0.9368442800575778  0.5946998792707916  1.0000
  C   C38       1.0  0.8534630651934451  0.06315725497798748  0.4052986704467401  1.0000
  C   C39       1.0  0.017361280194563584  0.8984868436375846  0.5894220925947166  1.0000
  C   C40       1.0  0.9826395545748382  0.1015136713146845  0.41058007216334846  1.0000
  C   C41       1.0  0.9192432375287041  0.761729767530916  0.5265155644513513  1.0000
  C   C42       1.0  0.08075634691311964  0.23827175354978183  0.4734841555735727  1.0000
  C   C43       1.0  0.8479648990039977  0.5159180947095408  0.4026800080799545  1.0000
  C   C44       1.0  0.15203429850700448  0.4840844282380273  0.5973207428256657  1.0000
  C   C45       1.0  0.3201886993634986  0.8800819207116248  0.5566828932689206  1.0000
  C   C46       1.0  0.6798102611162663  0.11991657407020989  0.4433173408818476  1.0000
  C   C47       1.0  0.9857877460282368  0.0026690902759441003  0.656985467301368  1.0000
  C   C48       1.0  0.014213983347687493  0.9973314361493663  0.3430144879959868  1.0000
  N   N1        1.0  0.4531499263738112  0.31294520590381575  0.3123097740186367  1.0000
  N   N2        1.0  0.5468500316232082  0.68705530656662  0.6876913515861175  1.0000
  N   N3        1.0  0.32056155272214687  0.2190937793122103  0.2697448531592315  1.0000
  N   N4        1.0  0.6794379109747838  0.7809057265617199  0.7302550145650245  1.0000
  N   N5        1.0  0.3349286563000859  0.4162382697352455  0.31185226896727863  1.0000
  N   N6        1.0  0.6650708029383098  0.5837612338908896  0.6881484109104792  1.0000
  N   N7        1.0  0.2083274183591186  0.8177409145749195  0.24183118933105865  1.0000
  N   N8        1.0  0.7916729221101804  0.1822585937808512  0.7581697175465081  1.0000
  N   N9        1.0  0.08042756152200779  0.712496534980957  0.19618435082517038  1.0000
  N   N10       1.0  0.9195727789472984  0.2875029733748136  0.8038165560524034  1.0000
  N   N11       1.0  0.22132073505559893  0.6347389700567233  0.21305840558192554  1.0000
  N   N12       1.0  0.7786778384933442  0.3652605265919746  0.7869428594495317  1.0000
  O   O1        1.0  0.3975650714504582  0.12395574661593402  0.4438260303102338  1.0000
  O   O2        1.0  0.6024352645603059  0.8760437594920416  0.5561756887208489  1.0000
  O   O3        1.0  0.10123377552771741  0.9225272119998493  0.06985722483840826  1.0000
  O   O4        1.0  0.8987656926277553  0.07747229612188282  0.9301418307323389  1.0000
  O   O5        1.0  0.5968284027591935  0.13365042128344837  0.19575247463802004  1.0000
  O   O6        1.0  0.40317383875098045  0.8663511207295541  0.8042454899258119  1.0000
  O   O7        1.0  0.3885749828152284  0.9947649005253535  0.16978594218297607  1.0000
  O   O8        1.0  0.6114264892918442  0.005238647469184301  0.8302132719887326  1.0000
  O   O9        1.0  0.19670368849190825  0.4990512776804792  0.9273130313178298  1.0000
  O   O10       1.0  0.803294893974112  0.5009482234638226  0.0726866094066168  1.0000
  O   O11       1.0  0.29976622189610685  0.4202234818134514  0.8214268248990066  1.0000
  O   O12       1.0  0.7002337361009198  0.5797770306569847  0.17857430070574748  1.0000
  O   O13       1.0  0.8037595816141092  0.7275546121213238  0.01723373865224419  1.0000
  O   O14       1.0  0.19623988654136332  0.27244489600040817  0.9827653169185027  1.0000
  O   O15       1.0  0.87943112836809  0.9458808188930589  0.06739189826568297  1.0000
  O   O16       1.0  0.12056784548728673  0.0541176826321745  0.9326058994245656  1.0000
  O   O17       1.0  0.743068874370657  0.48386238949706245  0.42932604551002373  1.0000
  O   O18       1.0  0.25693069669554797  0.5161391248402437  0.5706761109754268  1.0000
  O   O19       1.0  0.8643200822504229  0.4309636482675431  0.32886818565690856  1.0000
  O   O20       1.0  0.135680000950032  0.5690388816574555  0.6711319800950121  1.0000
  O   O21       1.0  0.3562319374214625  0.7876641737906809  0.5391687541489532  1.0000
  O   O22       1.0  0.6437670230583025  0.21233432099115387  0.460831480001815  1.0000
  O   O23       1.0  0.39988037668170756  0.9991517022872854  0.5855839521898006  1.0000
  O   O24       1.0  0.600120840559967  0.0008478085503255995  0.4144179938410844  1.0000
  O   O25       1.0  0.07290788126383772  0.125743482053899  0.6962456381931544  1.0000
  O   O26       1.0  0.9270934611812721  0.8742580462382747  0.3037553479848966  1.0000
  O   O27       1.0  0.878487206722639  0.9609606220149375  0.6713280875177006  1.0000
  O   O28       1.0  0.12151502587045833  0.039040915502468486  0.328671501353142  1.0000
