data_image0
_chemical_formula_structural       Zn4H32C40N24O16
_chemical_formula_sum              "Zn4 H32 C40 N24 O16"
_cell_length_a       7.0103172550024
_cell_length_b       9.441888837007365
_cell_length_c       18.19692135002036
_cell_angle_alpha    89.99985774628772
_cell_angle_beta     90.00009425189897
_cell_angle_gamma    89.99998241712476

_space_group_name_H-M_alt    "P 1"
_space_group_IT_number       1

loop_
  _space_group_symop_operation_xyz
  'x, y, z'

loop_
  _atom_site_type_symbol
  _atom_site_label
  _atom_site_symmetry_multiplicity
  _atom_site_fract_x
  _atom_site_fract_y
  _atom_site_fract_z
  _atom_site_occupancy
  Zn  Zn1       1.0  0.9992204603233644  0.2505033474585048  0.1862102225832274  1.0000
  Zn  Zn2       1.0  0.4992200832214023  0.7494973925514329  0.813790080192625  1.0000
  Zn  Zn3       1.0  0.49922134281175085  0.24949710732366273  0.6862100292688211  1.0000
  Zn  Zn4       1.0  0.9992220536688092  0.7505025735784869  0.3137891744215935  1.0000
  H   H1        1.0  0.6981344420592065  0.12505369856270215  0.2722582808298241  1.0000
  H   H2        1.0  0.19813221313663118  0.8749471068189578  0.7277418330233304  1.0000
  H   H3        1.0  0.1981338437849161  0.37494640893465453  0.7722579262644231  1.0000
  H   H4        1.0  0.6981370908166296  0.6250543964478581  0.2277416380465667  1.0000
  H   H5        1.0  0.9572246018943885  0.5857912103632683  0.5975663907547215  1.0000
  H   H6        1.0  0.45722544897991196  0.41420847965846963  0.4024322370405784  1.0000
  H   H7        1.0  0.4572218305222719  0.9142087427042607  0.0975671589968243  1.0000
  H   H8        1.0  0.9572239409496462  0.08579200642279972  0.9024336669704809  1.0000
  H   H9        1.0  0.9833331076758467  0.16199280539481012  0.4828247344896539  1.0000
  H   H10       1.0  0.4833328396669855  0.8380079380685146  0.517173909686889  1.0000
  H   H11       1.0  0.4833339518598976  0.33800728948497033  0.9828255264926044  1.0000
  H   H12       1.0  0.9833334219554569  0.6619934539742474  0.0171747663149091  1.0000
  H   H13       1.0  0.9919487671884679  0.2023461862729405  0.38806857274221335  1.0000
  H   H14       1.0  0.4919474987844551  0.7976534962097547  0.6119300768407498  1.0000
  H   H15       1.0  0.4919496288370978  0.29765436115354754  0.8880694166143996  1.0000
  H   H16       1.0  0.991949490078724  0.702344262213451  0.1119314311441784  1.0000
  H   H17       1.0  0.8213794840473624  0.45416833929227357  0.0965195894390547  1.0000
  H   H18       1.0  0.3213824347941595  0.5458313802185373  0.9034811512923469  1.0000
  H   H19       1.0  0.3213833076172676  0.04583258422760389  0.5965191083691295  1.0000
  H   H20       1.0  0.8213814641586338  0.9541671352868515  0.4034799837326375  1.0000
  H   H21       1.0  0.5903741678614551  0.5058974961974412  0.0650553701478174  1.0000
  H   H22       1.0  0.09037585020617199  0.4941022734704815  0.9349446760910283  1.0000
  H   H23       1.0  0.0903777974249707  0.9941037515424257  0.5650554119652469  1.0000
  H   H24       1.0  0.5903765000481371  0.0058970772364759  0.4349440847307449  1.0000
  H   H25       1.0  0.9604367511157006  0.7686012740642454  0.49584192407039035  1.0000
  H   H26       1.0  0.46043668950859734  0.23139841526018048  0.5041567057401508  1.0000
  H   H27       1.0  0.460437641439185  0.7313988865350182  0.9958428531059482  1.0000
  H   H28       1.0  0.9604372256585946  0.26860186189409774  0.0041579748783889  1.0000
  H   H29       1.0  0.3343920004067583  0.10563070880125028  0.275926382112587  1.0000
  H   H30       1.0  0.8343887123571391  0.8943658305572553  0.7240732676968307  1.0000
  H   H31       1.0  0.8343903588258781  0.39436511507889804  0.7759268658615426  1.0000
  H   H32       1.0  0.3343932068745374  0.6056324833907355  0.22407223440458068  1.0000
  C   C1        1.0  0.5886383601551586  0.3610957678953212  0.1456124960127596  1.0000
  C   C2        1.0  0.0886410589226685  0.6389040021467379  0.8543886482242512  1.0000
  C   C3        1.0  0.08864214344248468  0.1389060298360434  0.6456113457649266  1.0000
  C   C4        1.0  0.5886401285680732  0.8610958584312128  0.3543876002975849  1.0000
  C   C5        1.0  0.6066192354513262  0.1887317301620186  0.23683793390532057  1.0000
  C   C6        1.0  0.10661861329961647  0.8112680359764112  0.763163221613091  1.0000
  C   C7        1.0  0.10661866473642329  0.3112685670683035  0.736837661190421  1.0000
  C   C8        1.0  0.6066206104811157  0.6887311990726062  0.2631623952414159  1.0000
  C   C9        1.0  0.9805041684746097  0.47623627703929816  0.3978370785294985  1.0000
  C   C10       1.0  0.4805029764823415  0.5237644670396691  0.6021610143281748  1.0000
  C   C11       1.0  0.4805051486608604  0.02376528513493529  0.8978382744545357  1.0000
  C   C12       1.0  0.9805048492397217  0.9762365180472442  0.1021625661208958  1.0000
  C   C13       1.0  0.9633483160338938  0.5530065941453658  0.5399522723300335  1.0000
  C   C14       1.0  0.4633493973738678  0.44699309454809105  0.4600458097642672  1.0000
  C   C15       1.0  0.46334695694289957  0.946993633888411  0.0399535479751449  1.0000
  C   C16       1.0  0.9633493300027778  0.05300711390741948  0.9600478313790789  1.0000
  C   C17       1.0  0.9913851087741675  0.44073827403749277  0.3177631201545807  1.0000
  C   C18       1.0  0.4913828202485178  0.5592614085663783  0.6822360786178976  1.0000
  C   C19       1.0  0.4913846471276102  0.05926578800153241  0.8177642704490538  1.0000
  C   C20       1.0  0.9913847083678673  0.9407381310373851  0.1822371264951812  1.0000
  C   C21       1.0  0.9742877633141586  0.37244122988829526  0.4554078707664857  1.0000
  C   C22       1.0  0.474287704611875  0.6275584564301298  0.5445902181916297  1.0000
  C   C23       1.0  0.4742872721108711  0.1275600575453879  0.9554094828184317  1.0000
  C   C24       1.0  0.9742881958232271  0.8724406878739329  0.0445924529435544  1.0000
  C   C25       1.0  0.9667759787914034  0.6556154336326045  0.48431422449938566  1.0000
  C   C26       1.0  0.4667759179950151  0.3443842543154574  0.5156844092888165  1.0000
  C   C27       1.0  0.4667753937475608  0.8443847808723106  0.984315557847964  1.0000
  C   C28       1.0  0.9667765030443289  0.15561702528938778  0.0156858236564261  1.0000
  C   C29       1.0  0.25160642301603525  0.4324460453506163  0.099554003895534  1.0000
  C   C30       1.0  0.7516097428436197  0.5675526301977811  0.9004472425997462  1.0000
  C   C31       1.0  0.7516092022806972  0.06755593787709563  0.59955325909403  1.0000
  C   C32       1.0  0.2516083900417669  0.932443796787858  0.4004452396834779  1.0000
  C   C33       1.0  0.3843380564414075  0.348279492788663  0.14800954893709672  1.0000
  C   C34       1.0  0.8843397044219967  0.6517180948325462  0.8519912312998059  1.0000
  C   C35       1.0  0.8843407992810339  0.151720111023522  0.6480092454944284  1.0000
  C   C36       1.0  0.3843412409838292  0.8482806539328535  0.3519893365677405  1.0000
  C   C37       1.0  0.4094213203876364  0.1775486020572501  0.2392470779654943  1.0000
  C   C38       1.0  0.9094196481056043  0.8224510983358684  0.760754817094991  1.0000
  C   C39       1.0  0.9094197099304463  0.32245055876528284  0.7392471046107971  1.0000
  C   C40       1.0  0.4094226850298524  0.677547023410078  0.260753691364485  1.0000
  N   N1        1.0  0.6956051030503616  0.2770436109835614  0.1903311370406371  1.0000
  N   N2        1.0  0.19560614613158825  0.7229529585090758  0.8096678761421714  1.0000
  N   N3        1.0  0.19560599702518283  0.2229568899562864  0.6903309778405884  1.0000
  N   N4        1.0  0.6956066786245784  0.7770449750867812  0.3096680353392571  1.0000
  N   N5        1.0  0.9737742341160496  0.23329749476344122  0.4412709532793002  1.0000
  N   N6        1.0  0.4737741761562757  0.7667021916651604  0.5587276849000986  1.0000
  N   N7        1.0  0.4737736826901083  0.2667028014704016  0.9412712873919559  1.0000
  N   N8        1.0  0.9737733011179868  0.7332968849530841  0.0587295489610256  1.0000
  N   N9        1.0  0.3032120319879326  0.2572372268347038  0.1938470060293014  1.0000
  N   N10       1.0  0.8032120164364257  0.7427593192905707  0.8061537233037015  1.0000
  N   N11       1.0  0.803211882490011  0.24276005654865423  0.693847684650116  1.0000
  N   N12       1.0  0.3032121659329404  0.7572375486880603  0.3061524951386971  1.0000
  N   N13       1.0  0.6756557049591692  0.4534597983991945  0.1015423718422639  1.0000
  N   N14       1.0  0.17565863373978627  0.5465399527510328  0.8984582774519937  1.0000
  N   N15       1.0  0.1756595282224183  0.04654113267237389  0.6015418898615863  1.0000
  N   N16       1.0  0.6756590898796516  0.9534596775914607  0.3984571108028021  1.0000
  N   N17       1.0  0.9677275777053465  0.41449090805902244  0.5269540101235606  1.0000
  N   N18       1.0  0.46773008161967755  0.5855087796808292  0.4730451738060565  1.0000
  N   N19       1.0  0.4677263750600388  0.08550925818606459  0.0269546513272729  1.0000
  N   N20       1.0  0.9677284313327518  0.9144914886576242  0.9730472803183048  1.0000
  N   N21       1.0  0.97675969270184  0.6144215127620427  0.4141457912418502  1.0000
  N   N22       1.0  0.4767599166585369  0.3855781730183238  0.5858528488109158  1.0000
  N   N23       1.0  0.4767605162958333  0.8855800951912515  0.9141459725530224  1.0000
  N   N24       1.0  0.9767605195366114  0.11442170880525279  0.0858543161293568  1.0000
  O   O1        1.0  0.9973577245257983  0.30993715709248454  0.30008768869027597  1.0000
  O   O2        1.0  0.49735545560996997  0.6900614651058133  0.6999109642870138  1.0000
  O   O3        1.0  0.4973586327399601  0.19006487019366597  0.8000892204005581  1.0000
  O   O4        1.0  0.997358826807712  0.8099379884380511  0.1999121802928912  1.0000
  O   O5        1.0  0.9937072787730299  0.5416048549111849  0.2715458974606193  1.0000
  O   O6        1.0  0.4937038067288028  0.4583948271912632  0.728452203681563  1.0000
  O   O7        1.0  0.49370379144731646  0.9583995514400527  0.7715470842584153  1.0000
  O   O8        1.0  0.9937044411227801  0.041604367095267505  0.22845431414119596  1.0000
  O   O9        1.0  0.07277146682673669  0.41817876076701305  0.1127320102887452  1.0000
  O   O10       1.0  0.5727747236543336  0.58181889449844  0.8872696735373252  1.0000
  O   O11       1.0  0.5727756663848638  0.08182107987276767  0.6127306976066436  1.0000
  O   O12       1.0  0.07277337702844729  0.9181755162888477  0.38726823850345937  1.0000
  O   O13       1.0  0.3225446013998407  0.5095154812367324  0.050124736216631  1.0000
  O   O14       1.0  0.8225481677335365  0.49048211979817313  0.949877104334412  1.0000
  O   O15       1.0  0.8225500505607783  0.9904868468100713  0.5501234477883018  1.0000
  O   O16       1.0  0.3225455715041434  0.009512872451345798  0.44987564504474165  1.0000
