data_image0
_chemical_formula_structural       Ag4H8C28I12O8
_chemical_formula_sum              "Ag4 H8 C28 I12 O8"
_cell_length_a       5.765730801001108
_cell_length_b       13.03649831327354
_cell_length_c       14.785618657144685
_cell_angle_alpha    108.27218635928574
_cell_angle_beta     90.00006705421204
_cell_angle_gamma    90.00000347655497

_space_group_name_H-M_alt    "P 1"
_space_group_IT_number       1

loop_
  _space_group_symop_operation_xyz
  'x, y, z'

loop_
  _atom_site_type_symbol
  _atom_site_label
  _atom_site_symmetry_multiplicity
  _atom_site_fract_x
  _atom_site_fract_y
  _atom_site_fract_z
  _atom_site_occupancy
  Ag  Ag1       1.0  0.30462409186588957  0.0429874659718337  0.056346079804164596  1.0000
  Ag  Ag2       1.0  0.19537593890497354  0.5429865048383747  0.556348495532731  1.0000
  Ag  Ag3       1.0  0.6953738820224017  0.9570107994521139  0.9436523145432074  1.0000
  Ag  Ag4       1.0  0.8046272381450024  0.45701173099975284  0.4436532722107315  1.0000
  H   H1        1.0  0.7951655292290952  0.4357720952693428  0.026557905884096962  1.0000
  H   H2        1.0  0.704836053488854  0.9357736009131302  0.5265562884474234  1.0000
  H   H3        1.0  0.2048341790492145  0.5642269542726694  0.9734434154392844  1.0000
  H   H4        1.0  0.2951653891716575  0.06422708787211212  0.4734427906800959  1.0000
  H   H5        1.0  0.5941420285569947  0.6011220080838768  0.31759164254925304  1.0000
  H   H6        1.0  0.9058603996603194  0.10112085405324223  0.8175925990123857  1.0000
  H   H7        1.0  0.4058559453332719  0.3988802962749531  0.6824078930968867  1.0000
  H   H8        1.0  0.09413757422978357  0.8988790210273836  0.18240692653345286  1.0000
  C   C1        1.0  0.39811298685604857  0.4590269193182834  0.24527193892914304  1.0000
  C   C2        1.0  0.10189113754413628  0.959026775837508  0.7452711620034121  1.0000
  C   C3        1.0  0.6018919245785808  0.5409737517155052  0.7547291642361174  1.0000
  C   C4        1.0  0.8981068363449438  0.04097310516039699  0.2547276888634684  1.0000
  C   C5        1.0  0.3656781086312222  0.37323533294839706  0.16015582231078435  1.0000
  C   C6        1.0  0.1343222776774979  0.8732344003568001  0.6601534842530654  1.0000
  C   C7        1.0  0.6343233340333966  0.62676533216775  0.8398459555325456  1.0000
  C   C8        1.0  0.8656756962115819  0.1267654806411045  0.3398453666138152  1.0000
  C   C9        1.0  0.514333907492535  0.36451791657536603  0.08278869208706398  1.0000
  C   C10       1.0  0.9856643690234816  0.864517040346314  0.582788556653611  1.0000
  C   C11       1.0  0.48566580078554  0.6354827544578754  0.9172124110768747  1.0000
  C   C12       1.0  0.014333604866628496  0.13548283473431164  0.41721096889222753  1.0000
  C   C13       1.0  0.6827184718302916  0.4434379464715833  0.08754291903681378  1.0000
  C   C14       1.0  0.817283297395775  0.9434378484271307  0.5875422515953302  1.0000
  C   C15       1.0  0.31728470521842667  0.5565619167750456  0.9124579558682482  1.0000
  C   C16       1.0  0.18271467649433495  0.056562026653495016  0.4124572739505083  1.0000
  C   C17       1.0  0.7082019309358784  0.5293453581525824  0.17136340993144464  1.0000
  C   C18       1.0  0.7917965748992015  0.02934499968259981  0.6713631873188746  1.0000
  C   C19       1.0  0.29179951172731217  0.47065450509386864  0.828637464973184  1.0000
  C   C20       1.0  0.20819793022010905  0.9706532539064341  0.3286365563855254  1.0000
  C   C21       1.0  0.5708699378166172  0.5364011628474187  0.25056872380527295  1.0000
  C   C22       1.0  0.9291322786699181  0.0364000255604608  0.7505683427396264  1.0000
  C   C23       1.0  0.42913150484736917  0.46360031597298257  0.7494326076188569  1.0000
  C   C24       1.0  0.0708656952208173  0.9635990358159108  0.24943162922541245  1.0000
  C   C25       1.0  0.2558744320072108  0.47254621837290495  0.3340147464104034  1.0000
  C   C26       1.0  0.2441316984576857  0.9725453030272676  0.8340131388462024  1.0000
  C   C27       1.0  0.7441322138129322  0.5274544526610683  0.6659863567552973  1.0000
  C   C28       1.0  0.7558662754320264  0.027453764266383004  0.1659861584398783  1.0000
  I   I1        1.0  0.10284930504861478  0.2577067082324334  0.1500984505612877  1.0000
  I   I2        1.0  0.39715103678850733  0.7577058310834702  0.6500962460992026  1.0000
  I   I3        1.0  0.8971521376156133  0.7422931490967387  0.8499030990222918  1.0000
  I   I4        1.0  0.6028469371001818  0.2422932421274596  0.34990237650792716  1.0000
  I   I5        1.0  0.5139380559065714  0.2314835191623246  0.9573296805066817  1.0000
  I   I6        1.0  0.9860596100410604  0.7314831402928803  0.45732846673661937  1.0000
  I   I7        1.0  0.4860599179859831  0.7685171518707322  0.042671422656809475  1.0000
  I   I8        1.0  0.013938363848019697  0.2685167407050173  0.542670384130261  1.0000
  I   I9        1.0  0.9740624349078715  0.6423199299924534  0.17790980131471906  1.0000
  I   I10       1.0  0.5259378387933323  0.14231951544049792  0.6779094435659373  1.0000
  I   I11       1.0  0.0259372733681502  0.35768075287533224  0.8220899524913107  1.0000
  I   I12       1.0  0.4740601350967778  0.8576803596401351  0.3220900819798942  1.0000
  O   O1        1.0  0.037246452981584396  0.4703700757933404  0.3258219387741548  1.0000
  O   O2        1.0  0.4627579179035663  0.970370833974677  0.8258195494995205  1.0000
  O   O3        1.0  0.9627601928400578  0.5296273463409024  0.6741802753893893  1.0000
  O   O4        1.0  0.5372400559851226  0.029628239236252803  0.1741790731076094  1.0000
  O   O5        1.0  0.37008036744732914  0.48679451898568965  0.41092050214574266  1.0000
  O   O6        1.0  0.1299259987635253  0.9867935795488093  0.9109188365308324  1.0000
  O   O7        1.0  0.6299262783734463  0.5132053383440296  0.5890810474391585  1.0000
  O   O8        1.0  0.8700719751269828  0.013207103318791302  0.0890809172747566  1.0000
