data_image0
_chemical_formula_structural       Zn8H32C80O58F8
_chemical_formula_sum              "Zn8 H32 C80 O58 F8"
_cell_length_a       23.83271431803905
_cell_length_b       23.834220071512288
_cell_length_c       23.832545748373278
_cell_angle_alpha    66.42370605497784
_cell_angle_beta     72.5470315000628
_cell_angle_gamma    107.46174127934684

_space_group_name_H-M_alt    "P 1"
_space_group_IT_number       1

loop_
  _space_group_symop_operation_xyz
  'x, y, z'

loop_
  _atom_site_type_symbol
  _atom_site_label
  _atom_site_symmetry_multiplicity
  _atom_site_fract_x
  _atom_site_fract_y
  _atom_site_fract_z
  _atom_site_occupancy
  Zn  Zn1       1.0  0.056888430629029985  0.9573375651677625  0.4857863155984035  1.0000
  Zn  Zn2       1.0  0.05688738555843287  0.09955327321328872  0.4573372831238486  1.0000
  Zn  Zn3       1.0  0.9431066957449655  0.9857820834069598  0.4573305712907114  1.0000
  Zn  Zn4       1.0  0.9431233121603592  0.9573335396958594  0.5995563443899744  1.0000
  Zn  Zn5       1.0  0.9431118882712608  0.5426629466082175  0.014214129467795569  1.0000
  Zn  Zn6       1.0  0.05689509550258954  0.5142214718969881  0.04266780046227592  1.0000
  Zn  Zn7       1.0  0.943112393160618  0.4004461929412739  0.0426666988697165  1.0000
  Zn  Zn8       1.0  0.05687465626992596  0.5426612417872364  0.9004457498655892  1.0000
  H   H1        1.0  0.9190546316812555  0.6283776897358493  0.08601687450948252  1.0000
  H   H2        1.0  0.08094010891974772  0.5860058826777959  0.1284187568625157  1.0000
  H   H3        1.0  0.08050345382529389  0.7010342413638996  0.24269481113086738  1.0000
  H   H4        1.0  0.9194808252920478  0.7426548704726911  0.2010460703139217  1.0000
  H   H5        1.0  0.9195149051051242  0.7989890669757925  0.25728358360813525  1.0000
  H   H6        1.0  0.08044924519637667  0.7572579228611291  0.2990460760690894  1.0000
  H   H7        1.0  0.08089020484136679  0.871554089561151  0.41405865990645924  1.0000
  H   H8        1.0  0.9190563425338136  0.9139886555398035  0.37158858506361975  1.0000
  H   H9        1.0  0.08095023223286542  0.4948965039010745  0.7906938367374039  1.0000
  H   H10       1.0  0.9190679238726104  0.29064041668343066  0.9949466969881937  1.0000
  H   H11       1.0  0.9194902557193458  0.17680592768160602  0.8794738140244005  1.0000
  H   H12       1.0  0.0805123083499025  0.3794443381471524  0.6768395638915405  1.0000
  H   H13       1.0  0.08045328098199886  0.32318767260758824  0.6205296332275408  1.0000
  H   H14       1.0  0.9195169287641958  0.12052477943634429  0.8231910382701739  1.0000
  H   H15       1.0  0.9190566620124085  0.005074801022445352  0.7093354888068004  1.0000
  H   H16       1.0  0.08089077049842062  0.2093422244605918  0.5050657766895268  1.0000
  H   H17       1.0  0.7855938029101918  0.49492117969489846  0.08598550745116287  1.0000
  H   H18       1.0  0.7855891361352644  0.29065035585515625  0.1284223478184643  1.0000
  H   H19       1.0  0.556282052860915  0.17680618015041466  0.24271486866613393  1.0000
  H   H20       1.0  0.556287556963923  0.3794701869296873  0.2009869052045162  1.0000
  H   H21       1.0  0.4437205814105453  0.3231908808031321  0.2573047352703312  1.0000
  H   H22       1.0  0.4437161805562794  0.12055436943558823  0.298921987079268  1.0000
  H   H23       1.0  0.21440927456414016  0.005097446903185671  0.41394230613309446  1.0000
  H   H24       1.0  0.21441407066912885  0.2093546595730942  0.371569163993925  1.0000
  H   H25       1.0  0.21441170955196012  0.5859663869203117  0.9949171632912835  1.0000
  H   H26       1.0  0.21440353390899236  0.6284151444614353  0.7906322675228805  1.0000
  H   H27       1.0  0.4437107947954429  0.742714360867403  0.6767960820246655  1.0000
  H   H28       1.0  0.44371806434683203  0.7009714604156655  0.8794729196295421  1.0000
  H   H29       1.0  0.5562914391073689  0.7573087104523637  0.8231989315139714  1.0000
  H   H30       1.0  0.556281343995401  0.79893808287337  0.6205479558630101  1.0000
  H   H31       1.0  0.7855863829346957  0.9139627277250995  0.5050988420829938  1.0000
  H   H32       1.0  0.7855984546887949  0.8715768802898011  0.7093671952607821  1.0000
  C   C1        1.0  0.18439662968194168  0.09221288740467769  0.4077838866015212  1.0000
  C   C2        1.0  0.9999960805510212  0.13731443151006312  0.3626860795885704  1.0000
  C   C3        1.0  0.9999829661344317  0.9077942505615867  0.40781703456345025  1.0000
  C   C4        1.0  0.8156074176580785  0.9077839210504736  0.5922227545038437  1.0000
  C   C5        1.0  8.670448664543772e-06  0.8626872680722287  0.6373158868240408  1.0000
  C   C6        1.0  0.9999879859382828  0.09219797464179884  0.5921980127968851  1.0000
  C   C7        1.0  0.9999989969232315  0.5921845395881463  0.09220846182265063  1.0000
  C   C8        1.0  7.851004596592138e-06  0.3626897155291858  0.1373156296994438  1.0000
  C   C9        1.0  0.8156052815481158  0.40779557375979186  0.09219111979044908  1.0000
  C   C10       1.0  0.999998205357542  0.40777909716203453  0.9078230603065406  1.0000
  C   C11       1.0  0.9999941319121953  0.637312356546431  0.8626828259578474  1.0000
  C   C12       1.0  0.18439054833890345  0.5921899785070366  0.9077813516221268  1.0000
  C   C13       1.0  2.923570818155137e-06  0.8052859039217496  0.6947150089009708  1.0000
  C   C14       1.0  1.068972960833446e-07  0.6947146350376272  0.8052845536764649  1.0000
  C   C15       1.0  0.9575942907197895  0.7767380853468641  0.7656648086748843  1.0000
  C   C16       1.0  0.04240890725219478  0.7232629770531316  0.7343344719644449  1.0000
  C   C17       1.0  0.9575933579777497  0.723257674764021  0.8191449290694873  1.0000
  C   C18       1.0  0.0424096421793648  0.7767426670309804  0.6808546977191126  1.0000
  C   C19       1.0  2.9778040292849754e-07  0.19471495571834646  0.3052865166220044  1.0000
  C   C20       1.0  4.103540653842146e-06  0.30528982991319964  0.19471440099614765  1.0000
  C   C21       1.0  0.9575963327789979  0.18085981837319295  0.27673137100401135  1.0000
  C   C22       1.0  0.04240803823726211  0.3191447712368713  0.22326919077330834  1.0000
  C   C23       1.0  0.9575976611383579  0.23434166788025812  0.22325139841485248  1.0000
  C   C24       1.0  0.04240714932613793  0.26566336201485546  0.27674885595576626  1.0000
  C   C25       1.0  0.9999968036853845  0.6286638305617772  0.128689567889637  1.0000
  C   C26       1.0  0.9559022810211101  0.6581244864948772  0.13516222841592204  1.0000
  C   C27       1.0  0.9562535492173507  0.6930320061700286  0.17034057675115832  1.0000
  C   C28       1.0  0.9999945702181563  0.6992206568626645  0.19924161100198026  1.0000
  C   C29       1.0  0.043731758987732086  0.670319954460126  0.19306882886749585  1.0000
  C   C30       1.0  0.044090933037679476  0.6351468252566123  0.15815651424021132  1.0000
  C   C31       1.0  0.9999919346183785  0.7345779786696484  0.2345909761054017  1.0000
  C   C32       1.0  0.9999852834647167  0.7654044263149941  0.26543073474493184  1.0000
  C   C33       1.0  0.9999753298354502  0.8007455089853436  0.3007984122421731  1.0000
  C   C34       1.0  0.9562453566070204  0.8296551860718184  0.30696128009724777  1.0000
  C   C35       1.0  0.9558891923539785  0.8648276773195318  0.3418716835464793  1.0000
  C   C36       1.0  0.9999701954859928  0.8712952461624824  0.37135540692477775  1.0000
  C   C37       1.0  0.04405125692224462  0.8418181174962457  0.36490008730243073  1.0000
  C   C38       1.0  0.04369480293457421  0.8069033034075589  0.32972955804722653  1.0000
  C   C39       1.0  1.2028484490895266e-05  0.3712969815295891  0.8713454740747506  1.0000
  C   C40       1.0  0.04410986059849608  0.40890943273801383  0.7977933436948913  1.0000
  C   C41       1.0  0.04375433824588256  0.37338541885539195  0.7632336468662685  1.0000
  C   C42       1.0  5.673408885693123e-06  0.3007529840589669  0.8007854596207977  1.0000
  C   C43       1.0  0.9562682424257432  0.2631927441830796  0.873423237257853  1.0000
  C   C44       1.0  0.9559128544489748  0.29774384628640843  0.9089560813318799  1.0000
  C   C45       1.0  0.9999967242694722  0.26540794809196205  0.765424182676888  1.0000
  C   C46       1.0  0.9999867878560521  0.23457794617549158  0.7345891530257515  1.0000
  C   C47       1.0  0.9999766821260463  0.19922878145713002  0.6992307288703044  1.0000
  C   C48       1.0  0.0436969772660446  0.2367927698567343  0.6265890665081884  1.0000
  C   C49       1.0  0.04405506701598225  0.2022375810233328  0.5910578735983164  1.0000
  C   C50       1.0  0.9999743471559126  0.12868201582583083  0.6286722834644107  1.0000
  C   C51       1.0  0.9558900038312502  0.09106529430233214  0.7022304432513593  1.0000
  C   C52       1.0  0.9562477672559452  0.12659051097104146  0.7367881478343533  1.0000
  C   C53       1.0  0.7426456569772028  0.37131399087233763  0.1286758193815772  1.0000
  C   C54       1.0  0.7067058910065994  0.40892950415664603  0.1351452995572656  1.0000
  C   C55       1.0  0.6366221574099524  0.37340334464938246  0.1703124580775608  1.0000
  C   C56       1.0  0.6015389757995491  0.3007637362608476  0.19922664456129976  1.0000
  C   C57       1.0  0.6366175772337923  0.26320364294729603  0.19306025795293644  1.0000
  C   C58       1.0  0.7067037655835975  0.2977572638068511  0.15815075814781204  1.0000
  C   C59       1.0  0.530832068233529  0.26541025079472275  0.23457483808549998  1.0000
  C   C60       1.0  0.4691689191052291  0.23458789719051518  0.2653986738252597  1.0000
  C   C61       1.0  0.3984627815892381  0.19924303194574836  0.3007385915718998  1.0000
  C   C62       1.0  0.3633846194729528  0.2368035415438285  0.3069134918654796  1.0000
  C   C63       1.0  0.29329871655021117  0.202248634867864  0.34182509551300905  1.0000
  C   C64       1.0  0.2573552441614097  0.12869664049789253  0.37128100496442334  1.0000
  C   C65       1.0  0.2932968345262381  0.0910866563059898  0.36479241230929194  1.0000
  C   C66       1.0  0.36338041417615585  0.12661110342638432  0.32962262441415646  1.0000
  C   C67       1.0  0.25735113809948007  0.6286599757228402  0.8713064240024193  1.0000
  C   C68       1.0  0.29329569313102843  0.6351223918763865  0.9089259818440353  1.0000
  C   C69       1.0  0.3633814118720619  0.6702903839769547  0.8734009361769989  1.0000
  C   C70       1.0  0.39846074136259074  0.6992115805138255  0.8007579584849011  1.0000
  C   C71       1.0  0.3633765951675229  0.6930447849668298  0.7631956585440918  1.0000
  C   C72       1.0  0.29329109613343707  0.6581363955786302  0.7977479879138797  1.0000
  C   C73       1.0  0.469167979437351  0.7345732287730087  0.7654080973697786  1.0000
  C   C74       1.0  0.5308338539939539  0.7654066420571227  0.7345899520002418  1.0000
  C   C75       1.0  0.6015409142807542  0.8007513972329933  0.6992460238640914  1.0000
  C   C76       1.0  0.6366235455235904  0.8069265905683164  0.7368092163170558  1.0000
  C   C77       1.0  0.7067083634636686  0.8418348177056388  0.7022579957153782  1.0000
  C   C78       1.0  0.7426466939590667  0.8712960355408298  0.6287018997343876  1.0000
  C   C79       1.0  0.7067020049952784  0.8648157322363303  0.5910861394516118  1.0000
  C   C80       1.0  0.6366187902559728  0.8296429408008734  0.6266102420681106  1.0000
  O   O1        1.0  0.9999998604892827  1.394621826106206e-06  0.5000013128508979  1.0000
  O   O2        1.0  0.1528578914192451  0.02578293632554822  0.43358301312110814  1.0000
  O   O3        1.0  0.04027750968112535  0.1556506788855003  0.3846235547956382  1.0000
  O   O4        1.0  0.9593544713028945  0.9335981564226827  0.4135441696206071  1.0000
  O   O5        1.0  0.15286189325494348  0.12710220061637761  0.4135494857895736  1.0000
  O   O6        1.0  0.040628444029294566  0.9135479634369829  0.4336043905366153  1.0000
  O   O7        1.0  0.9597125990235539  0.07510347247663414  0.3846258806313895  1.0000
  O   O8        1.0  0.8471424159587924  0.9335760244575795  0.5257935464900496  1.0000
  O   O9        1.0  0.9597359098066672  0.884626329340577  0.6556539760791507  1.0000
  O   O10       1.0  0.8471470366586896  0.9135376954924082  0.627115858870205  1.0000
  O   O11       1.0  0.04028354977913982  0.8846266292699596  0.5751036410661642  1.0000
  O   O12       1.0  0.04062986916778036  0.1270909672526201  0.5257699093384715  1.0000
  O   O13       1.0  0.9593652788619023  0.025766686451262795  0.6270926812269763  1.0000
  O   O14       1.0  5.124604952136643e-07  0.499998429438655  0.999999751653618  1.0000
  O   O15       1.0  0.9593569985969094  0.5864308284921336  0.06641798294957375  1.0000
  O   O16       1.0  0.04028944329601799  0.42490191848297343  0.11537506350387619  1.0000
  O   O17       1.0  0.8471415112774706  0.37290351941651056  0.08644756060148509  1.0000
  O   O18       1.0  0.04064580372925506  0.5664033471351787  0.08645925096971038  1.0000
  O   O19       1.0  0.847141734914011  0.47422532183488636  0.06639402067664689  1.0000
  O   O20       1.0  0.9597253451507582  0.34435186469288226  0.11537995555903538  1.0000
  O   O21       1.0  0.9593484436836232  0.37288883526212396  0.9742491161332009  1.0000
  O   O22       1.0  0.04026210249794794  0.6153674615035243  0.8443447226002971  1.0000
  O   O23       1.0  0.04062885147553152  0.474208044398857  0.8729319912938462  1.0000
  O   O24       1.0  0.9597236470206524  0.6153773901990292  0.9248949380127125  1.0000
  O   O25       1.0  0.15285917575850022  0.5664041118350269  0.974209924813344  1.0000
  O   O26       1.0  0.15285110709524444  0.5864530914340023  0.8728844145367772  1.0000
  O   O27       1.0  0.9129241058913208  0.6544967221259624  0.10886701561323527  1.0000
  O   O28       1.0  0.08706350307912185  0.6088528675892917  0.15454315380676314  1.0000
  O   O29       1.0  0.08652690739258839  0.6752373076085831  0.2203454659342299  1.0000
  O   O30       1.0  0.9134605434774267  0.7203062079320685  0.1752454671187993  1.0000
  O   O31       1.0  0.9134712142479199  0.8247609993134971  0.27965777632144306  1.0000
  O   O32       1.0  0.08647411936404104  0.7796117191431975  0.32483947857999595  1.0000
  O   O33       1.0  0.08700348186683002  0.8454151441701897  0.39122876448080735  1.0000
  O   O34       1.0  0.9129281144190384  0.8911368229212115  0.3454692498010346  1.0000
  O   O35       1.0  0.08708687505197313  0.4781746855870921  0.7584449283342848  1.0000
  O   O36       1.0  0.9129466068913601  0.2583924029043771  0.978223474398312  1.0000
  O   O37       1.0  0.9134705174330761  0.19312760108255844  0.9112986797733523  1.0000
  O   O38       1.0  0.08654658161799493  0.4112619477429079  0.6931702186322537  1.0000
  O   O39       1.0  0.0864796534788822  0.3068611404513534  0.5887093181671047  1.0000
  O   O40       1.0  0.9134717807870915  0.08870934498953177  0.8068590159708006  1.0000
  O   O41       1.0  0.9129236662284935  0.02179713769914564  0.7415835126838741  1.0000
  O   O42       1.0  0.08700855067195325  0.2415924514748511  0.5217854074565125  1.0000
  O   O43       1.0  0.7366241085549985  0.47820056624800594  0.1088333206858324  1.0000
  O   O44       1.0  0.7366181558705732  0.2584023333670941  0.15455083447729115  1.0000
  O   O45       1.0  0.6044289754766082  0.19313480087348006  0.2203491215932374  1.0000
  O   O46       1.0  0.6044356749768196  0.4112868215577874  0.17520890197393874  1.0000
  O   O47       1.0  0.3955738794855463  0.3068677667054304  0.27964556766952586  1.0000
  O   O48       1.0  0.395567908503601  0.08873600527737588  0.32470366171493464  1.0000
  O   O49       1.0  0.2633800019920542  0.02182069559369636  0.39108096553602667  1.0000
  O   O50       1.0  0.26338480933146957  0.2416029680955063  0.34543853833253724  1.0000
  O   O51       1.0  0.2633817558850704  0.6088035598191438  0.9781992789060112  1.0000
  O   O52       1.0  0.2633738315071239  0.6545384115609068  0.7583877011134489  1.0000
  O   O53       1.0  0.39556324182419167  0.7203432829567263  0.6931220971563191  1.0000
  O   O54       1.0  0.39557075081201265  0.6751828503128935  0.9112887897580108  1.0000
  O   O55       1.0  0.6044384838501524  0.779654745058366  0.8068758963802551  1.0000
  O   O56       1.0  0.6044280428203732  0.8247302586765953  0.5887300134698635  1.0000
  O   O57       1.0  0.7366154778126623  0.8911085166353131  0.5218174674354045  1.0000
  O   O58       1.0  0.7366276512892892  0.8454494506683615  0.7416131498497336  1.0000
  F   F1        1.0  0.9147903688871389  0.7992850961158097  0.785917466675798  1.0000
  F   F2        1.0  0.08521238963040631  0.7007155248562499  0.7140825414222219  1.0000
  F   F3        1.0  0.9147901607181196  0.700705534966893  0.8844973729155893  1.0000
  F   F4        1.0  0.08521171890296105  0.7992942054350678  0.6155032499958324  1.0000
  F   F5        1.0  0.9147937262338245  0.11551073116560674  0.2992715872266557  1.0000
  F   F6        1.0  0.08521084259730566  0.3844945790494523  0.20072862840139283  1.0000
  F   F7        1.0  0.9147950548706445  0.21409088113586713  0.2006953054360068  1.0000
  F   F8        1.0  0.08520867887010998  0.28591254529838744  0.29930675000127843  1.0000
