data_image0
_chemical_formula_structural       Er2H58C52N4O16
_chemical_formula_sum              "Er2 H58 C52 N4 O16"
_cell_length_a       10.802903407130557
_cell_length_b       11.446486683407175
_cell_length_c       12.608
_cell_angle_alpha    110.73870267275653
_cell_angle_beta     100.65523833950635
_cell_angle_gamma    109.9713391155403

_space_group_name_H-M_alt    "P 1"
_space_group_IT_number       1

loop_
  _space_group_symop_operation_xyz
  'x, y, z'

loop_
  _atom_site_type_symbol
  _atom_site_label
  _atom_site_symmetry_multiplicity
  _atom_site_fract_x
  _atom_site_fract_y
  _atom_site_fract_z
  _atom_site_occupancy
  Er  Er1       1.0  0.9027601933418125  0.6135998889610335  0.5685916998348617  1.0000
  Er  Er2       1.0  0.0972453973872192  0.3864017571395024  0.4314067011228816  1.0000
  H   H1        1.0  0.4966471560904253  0.4576001114441439  0.7755199385795565  1.0000
  H   H2        1.0  0.5033433982084361  0.5423952832460444  0.22447644991466836  1.0000
  H   H3        1.0  0.534405631834737  0.7368516533931313  0.6169193937492496  1.0000
  H   H4        1.0  0.4655961798025459  0.263152076510849  0.38309097561781164  1.0000
  H   H5        1.0  0.4719555628052631  0.6160139752553775  0.46525385126338403  1.0000
  H   H6        1.0  0.5280519117598743  0.3839876708451584  0.5347575384997967  1.0000
  H   H7        1.0  0.48005931290931164  0.8321585716877493  0.4644758306828154  1.0000
  H   H8        1.0  0.5199397186520045  0.167836823002439  0.5355258665729465  1.0000
  H   H9        1.0  0.6165220915849119  0.806368378315355  0.4175121645446325  1.0000
  H   H10       1.0  0.38348021956026906  0.1936301420800106  0.5824966091814049  1.0000
  H   H11       1.0  0.7823265892418192  0.9662013122745776  0.6391470408042895  1.0000
  H   H12       1.0  0.2176738266477187  0.0337992919242325  0.3608557573953917  1.0000
  H   H13       1.0  0.6454216209306693  0.00961362720669  0.6670733568895386  1.0000
  H   H14       1.0  0.3545783068705218  0.9903901026972973  0.3329287825553281  1.0000
  H   H15       1.0  0.6432945453578113  0.0820153780024668  0.4949791020348898  1.0000
  H   H16       1.0  0.3567016718689046  0.917977932884277  0.5050151342666213  1.0000
  H   H17       1.0  0.7907683654727506  0.0516668645878795  0.48733950124269404  1.0000
  H   H18       1.0  0.2092264674257507  0.9483212367902425  0.5126544272621063  1.0000
  H   H19       1.0  0.7747810723838242  0.2695441435871473  0.7056297316635637  1.0000
  H   H20       1.0  0.22521699442035725  0.730455418709937  0.29435728962582175  1.0000
  H   H21       1.0  0.9213795100771306  0.2298904058761622  0.7078874040422392  1.0000
  H   H22       1.0  0.07861293947738085  0.7701029050105817  0.2921086148006823  1.0000
  H   H23       1.0  0.4359044853121645  0.7627314503137868  0.8225719447492  1.0000
  H   H24       1.0  0.5640902790690632  0.23726915388502332  0.17742995810015572  1.0000
  H   H25       1.0  0.29033094940376  0.7916254689217652  0.8512957970357392  1.0000
  H   H26       1.0  0.7096577324785471  0.2083678419649715  0.1486988317597452  1.0000
  H   H27       1.0  0.4409122860244353  0.8795057117282212  0.6888149043365106  1.0000
  H   H28       1.0  0.5590895141933032  0.1205001019792036  0.31119216739592304  1.0000
  H   H29       1.0  0.2888256118648016  0.8961553012766004  0.7052283427493509  1.0000
  H   H30       1.0  0.7111738392675874  0.1038494705291058  0.29477405613369717  1.0000
  H   H31       1.0  0.5739953203825436  0.0434212543447146  0.9104300804463892  1.0000
  H   H32       1.0  0.4259952224967733  0.9565762241489253  0.08957808021016704  1.0000
  H   H33       1.0  0.4192956012581277  0.0539132047046706  0.9277875202157945  1.0000
  H   H34       1.0  0.5806986864542978  0.9460884413958652  0.07221226263011007  1.0000
  H   H35       1.0  0.5741951792294913  0.1510715823627109  0.7712601728997799  1.0000
  H   H36       1.0  0.42581139909577803  0.8489217285240329  0.2287420500550112  1.0000
  H   H37       1.0  0.4052708612425491  0.1370257052224346  0.7629679088532271  1.0000
  H   H38       1.0  0.5947286127289287  0.8629748989763755  0.2370299812381519  1.0000
  H   H39       1.0  0.6699901771786188  0.327839586942666  0.9921599926156973  1.0000
  H   H40       1.0  0.3300125535376282  0.6721683105682175  0.007828860910216052  1.0000
  H   H41       1.0  0.4974013001117542  0.304775008480064  0.9837999105289299  1.0000
  H   H42       1.0  0.5026089887879905  0.6952287214239163  0.016204663538751222  1.0000
  H   H43       1.0  0.9999804226796485  0.9055897213867681  0.5402876653325493  1.0000
  H   H44       1.0  2.7497107815597305e-05  0.0944140085172123  0.4597153436834632  1.0000
  H   H45       1.0  0.13345621620868536  0.1685109334178208  0.650499122973983  1.0000
  H   H46       1.0  0.8665554912779071  0.8314917545844338  0.34949820255570796  1.0000
  H   H47       1.0  0.23525178433209254  0.2835598055774327  0.8773206645325761  1.0000
  H   H48       1.0  0.7647585045676522  0.7164439243265477  0.12267756435744576  1.0000
  H   H49       1.0  0.2746413999425243  0.2596658733425841  0.06822087588932392  1.0000
  H   H50       1.0  0.7253557363631487  0.7403316051510558  0.9317788115761234  1.0000
  H   H51       1.0  0.24512860342156984  0.10895583087808092  0.17128006555959985  1.0000
  H   H52       1.0  0.7548586141957118  0.8910468571241807  0.8287236910323517  1.0000
  H   H53       1.0  0.1446675334657712  0.8694055164164639  0.15796770500852395  1.0000
  H   H54       1.0  0.8553182884037511  0.1305940458806205  0.8420300667104642  1.0000
  H   H55       1.0  0.991494283621208  0.6126986439698356  0.02866613427045208  1.0000
  H   H56       1.0  0.008502364596118575  0.3873019602289745  0.9713297218513404  1.0000
  H   H57       1.0  0.8931296897536072  0.5223074180087082  0.8037899807657  1.0000
  H   H58       1.0  0.10687827289986976  0.47769110238665047  0.19620541166092664  1.0000
  C   C1        1.0  0.6891099202303081  0.6889158388786356  0.5529033858880794  1.0000
  C   C2        1.0  0.3108956248205459  0.3110941424356852  0.44711196412507803  1.0000
  C   C3        1.0  0.5609102367809982  0.7153718074526267  0.5341860280380075  1.0000
  C   C4        1.0  0.43909534252848914  0.2846319224513536  0.46582493822927523  1.0000
  C   C5        1.0  0.5813064625694507  0.8307144958983841  0.49551583493960305  1.0000
  C   C6        1.0  0.41869397615917586  0.16928194069353  0.5044864202044508  1.0000
  C   C7        1.0  0.6891933279101821  0.9745688250194462  0.5960043758118587  1.0000
  C   C8        1.0  0.3108085065661967  0.0254307372776452  0.40399593273307494  1.0000
  C   C9        1.0  0.7359533638357618  0.0826196810023418  0.5494619939388558  1.0000
  C   C10       1.0  0.2640470977319537  0.9173725879826763  0.4505333729719113  1.0000
  C   C11       1.0  0.8325765481477702  0.2310698386276471  0.6497886996762504  1.0000
  C   C12       1.0  0.16742671633500805  0.768926597964267  0.3502068648180981  1.0000
  C   C13       1.0  0.8925811542557585  0.3301234355215144  0.5976073518419014  1.0000
  C   C14       1.0  0.10742965699096622  0.6698709172669552  0.40238477261543454  1.0000
  C   C15       1.0  0.24275457893379837  0.6413342709502814  0.6706634176453791  1.0000
  C   C16       1.0  0.7572500698771875  0.3586673751502545  0.3293292820568468  1.0000
  C   C17       1.0  0.34295664464261216  0.7737881114081162  0.7844245391737062  1.0000
  C   C18       1.0  0.6570358049118994  0.22620519947862763  0.21557306596362483  1.0000
  C   C19       1.0  0.38506715287724086  0.8965626848506574  0.7533143534852728  1.0000
  C   C20       1.0  0.6149262043366832  0.103436877446434  0.2466869914757838  1.0000
  C   C21       1.0  0.4747644216333171  0.0388358448577009  0.8626418350972926  1.0000
  C   C22       1.0  0.5252317384956697  0.9611678850462796  0.13736684577222757  1.0000
  C   C23       1.0  0.5039334311678303  0.1552537758825565  0.824240630660448  1.0000
  C   C24       1.0  0.4960712062236042  0.8447499540214238  0.17577018638177594  1.0000
  C   C25       1.0  0.5675188856924365  0.301031455585985  0.9304165320300728  1.0000
  C   C26       1.0  0.4324778082030747  0.698960813399033  0.06958458315813952  1.0000
  C   C27       1.0  0.5873771087107899  0.4156312681025867  0.8928959492695016  1.0000
  C   C28       1.0  0.4126045601740954  0.5843526656686393  0.10709376073447888  1.0000
  C   C29       1.0  0.04770120257366968  0.9607782138015253  0.6384534235943492  1.0000
  C   C30       1.0  0.9523067486602698  0.0392223903972777  0.3615466026697334  1.0000
  C   C31       1.0  0.1209717728180593  0.10702622888536689  0.7005053469776641  1.0000
  C   C32       1.0  0.8790347826681213  0.8929712496082729  0.2994926601495111  1.0000
  C   C33       1.0  0.17857989988095113  0.1705447255829284  0.8253290404341913  1.0000
  C   C34       1.0  0.8214280513529814  0.8294558786158817  0.17467257212430817  1.0000
  C   C35       1.0  0.1633976132879624  0.087695826201319  0.8871155790777081  1.0000
  C   C36       1.0  0.8366070126839346  0.9123099875061057  0.11289035403547139  1.0000
  C   C37       1.0  0.2204758397132736  0.1465007594998369  0.016255276222978014  1.0000
  C   C38       1.0  0.7795245419176168  0.8535060961093208  0.9837471468393347  1.0000
  C   C39       1.0  0.2031848848714901  0.062912109894242  0.07271104381486992  1.0000
  C   C40       1.0  0.7968046818311406  0.9370916200097454  0.9272878678599668  1.0000
  C   C41       1.0  0.12556045493564477  0.9145729980504812  0.004454140286164108  1.0000
  C   C42       1.0  0.8744295770162439  0.085431773755225  0.9955499389351558  1.0000
  C   C43       1.0  0.10073720207427773  0.8251861653512194  0.05982987986465107  1.0000
  C   C44       1.0  0.8992495617132974  0.174813396945865  0.9401712136682221  1.0000
  C   C45       1.0  0.01764979706823764  0.6841366356709813  0.9888197802290225  1.0000
  C   C46       1.0  0.98234496731299  0.3158639685278288  0.011181329473117766  1.0000
  C   C47       1.0  0.9614531920064235  0.6326416848675436  0.8625873938469371  1.0000
  C   C48       1.0  0.038549572968456375  0.3673599612329852  0.13741055943563651  1.0000
  C   C49       1.0  0.06593593100068065  0.8523839679526476  0.8760026751402991  1.0000
  C   C50       1.0  0.9340569495444413  0.1476166362461626  0.12399654981732061  1.0000
  C   C51       1.0  0.08746196682853477  0.9405736555711073  0.8163678643134633  1.0000
  C   C52       1.0  0.9125402986384615  0.059433200038043296  0.1836324777573353  1.0000
  N   N1        1.0  0.03163855221445991  0.8792441943955183  0.6937045160576504  1.0000
  N   N2        1.0  0.9683637360916323  0.12075849360673628  0.3062944898103127  1.0000
  N   N3        1.0  0.9861139286325907  0.7129254222048402  0.8067387811481339  1.0000
  N   N4        1.0  0.013887429174992883  0.2870751819939699  0.19325623480452242  1.0000
  O   O1        1.0  0.7134758897628686  0.6363279331668039  0.6246519848183638  1.0000
  O   O2        1.0  0.2865287704676618  0.3636716291302804  0.3753559097266078  1.0000
  O   O3        1.0  0.7718501646299033  0.7173107865608586  0.49580643758789494  1.0000
  O   O4        1.0  0.228158194755558  0.2827012785569138  0.5042100282018468  1.0000
  O   O5        1.0  0.9852949987165474  0.314842904838379  0.5523983243580233  1.0000
  O   O6        1.0  0.014716289198979337  0.6851504060483649  0.44760385157483285  1.0000
  O   O7        1.0  0.8450348519397863  0.418670495431286  0.6014084810868568  1.0000
  O   O8        1.0  0.15498019222839327  0.5813248992589024  0.3985846489339337  1.0000
  O   O9        1.0  0.11528481042031298  0.6200211292856039  0.6300588872935722  1.0000
  O   O10       1.0  0.8847184883210985  0.3799690558959696  0.3699315003076933  1.0000
  O   O11       1.0  0.2871234775033642  0.558000887267049  0.6147180771621876  1.0000
  O   O12       1.0  0.7128886495542943  0.44201117785072336  0.3852728116699141  1.0000
  O   O13       1.0  0.47573272235570124  0.3816454757697656  0.7988090717558265  1.0000
  O   O14       1.0  0.5242404464276404  0.6183426256083564  0.2011798382782858  1.0000
  O   O15       1.0  0.6913734163529596  0.5287130298074203  0.941418998805986  1.0000
  O   O16       1.0  0.3086222442681361  0.4712959096051819  0.05857065587713355  1.0000
