data_image0
_chemical_formula_structural       ZnH26C36S2N12O4
_chemical_formula_sum              "Zn1 H26 C36 S2 N12 O4"
_cell_length_a       8.807836947092056
_cell_length_b       8.850585999461888
_cell_length_c       11.665122863927277
_cell_angle_alpha    76.35843473623827
_cell_angle_beta     78.00278343601754
_cell_angle_gamma    87.49264518191215

_space_group_name_H-M_alt    "P 1"
_space_group_IT_number       1

loop_
  _space_group_symop_operation_xyz
  'x, y, z'

loop_
  _atom_site_type_symbol
  _atom_site_label
  _atom_site_symmetry_multiplicity
  _atom_site_fract_x
  _atom_site_fract_y
  _atom_site_fract_z
  _atom_site_occupancy
  Zn  Zn1       1.0  0.9999976766798112  2.866341120001013e-07  3.0371757447226707e-06  1.0000
  H   H1        1.0  0.1923504280914088  0.44301978269075454  0.5894754756947549  1.0000
  H   H2        1.0  0.807654062887373  0.5569790906200041  0.4105215879728874  1.0000
  H   H3        1.0  0.2805876115232877  0.6997366783732772  0.6356107864241097  1.0000
  H   H4        1.0  0.7194007783124334  0.3002727123610783  0.36438968009549194  1.0000
  H   H5        1.0  0.8119615971340437  0.9082865844828094  0.8197838359436815  1.0000
  H   H6        1.0  0.1880371832347691  0.09171463235374942  0.18021719959870094  1.0000
  H   H7        1.0  0.7984564729587902  0.9773792711467165  0.6009613096600148  1.0000
  H   H8        1.0  0.2015422586064091  0.022618457951502104  0.3990394999645872  1.0000
  H   H9        1.0  0.9607237156494008  0.20313517881381676  0.46394603335998835  1.0000
  H   H10       1.0  0.0392760740548397  0.796859059567993  0.5360517924848835  1.0000
  H   H11       1.0  0.09730005587807261  0.28266170286467235  0.7800331038521193  1.0000
  H   H12       1.0  0.9026998211207412  0.7173383483150391  0.2199653833237321  1.0000
  H   H13       1.0  0.35463676717459697  0.5465167608718957  0.1965058999203464  1.0000
  H   H14       1.0  0.6453758483072177  0.4534902252779461  0.8034849171140621  1.0000
  H   H15       1.0  0.572227265972792  0.7433352522033236  0.14325874907614622  1.0000
  H   H16       1.0  0.4277750757563155  0.2566729287917654  0.8567412999480979  1.0000
  H   H17       1.0  0.6336503816245767  0.8567395099305061  0.30745262582863836  1.0000
  H   H18       1.0  0.3663541375324968  0.14326052576103626  0.6925450827476141  1.0000
  H   H19       1.0  0.614780662687032  0.7571306529105899  0.7569551257060709  1.0000
  H   H20       1.0  0.3852146821070193  0.24287173762489536  0.2430479930986351  1.0000
  H   H21       1.0  0.5866410566794117  0.8343065583572127  0.9529895672656746  1.0000
  H   H22       1.0  0.4133554596929514  0.16570513092838723  0.047008263309798765  1.0000
  H   H23       1.0  0.3272624862033524  0.9239227410450115  0.0490757577791498  1.0000
  H   H24       1.0  0.6727340191302602  0.07607964561842813  0.9509271663756564  1.0000
  H   H25       1.0  0.1259499387629504  0.8523519775636715  0.7758248131406872  1.0000
  H   H26       1.0  0.8740419367586653  0.1476457729788693  0.22418229080741267  1.0000
  C   C1        1.0  0.8717883949911992  0.0101464190921021  0.7584483216080856  1.0000
  C   C2        1.0  0.1282057253537232  0.9898548135306202  0.24155263812988884  1.0000
  C   C3        1.0  0.868192343722221  0.047316140646259414  0.6362723173400511  1.0000
  C   C4        1.0  0.13180755114222356  0.9526839102354573  0.36372702423981446  1.0000
  C   C5        1.0  0.9559360443069025  0.1724862676207408  0.5603840316066808  1.0000
  C   C6        1.0  0.044064962293497  0.8275102916506046  0.4396148894054973  1.0000
  C   C7        1.0  0.0425267819474655  0.2592688903918728  0.6108239420352176  1.0000
  C   C8        1.0  0.9574765484917476  0.7407299867909176  0.38917331628233154  1.0000
  C   C9        1.0  0.0343231264293138  0.21723650731933475  0.7359681530751203  1.0000
  C   C10       1.0  0.9656779007964004  0.7827623773095527  0.2640303489462426  1.0000
  C   C11       1.0  0.1865079985749389  0.4281926200789883  0.42155016981869403  1.0000
  C   C12       1.0  0.813499843443708  0.5718015923904788  0.5784428758608158  1.0000
  C   C13       1.0  0.3104824725571191  0.5523678225636958  0.38460170591396536  1.0000
  C   C14       1.0  0.6895242323069725  0.4476310447909101  0.615389842029785  1.0000
  C   C15       1.0  0.3875861901286655  0.5977909387404452  0.2642566226859201  1.0000
  C   C16       1.0  0.6124206095829762  0.40221257843528957  0.735736650488235  1.0000
  C   C17       1.0  0.5065087910581383  0.7079070908254439  0.23521127450698734  1.0000
  C   C18       1.0  0.49349809798168554  0.2920964248603468  0.7647862706872459  1.0000
  C   C19       1.0  0.5424209873245758  0.7701857937882083  0.3254863113189614  1.0000
  C   C20       1.0  0.4575789845217884  0.22981890721263207  0.6745139010872946  1.0000
  C   C21       1.0  0.45671946310839934  0.7199036270206705  0.44285094181981316  1.0000
  C   C22       1.0  0.543281561357631  0.28009293195267304  0.5571488335963863  1.0000
  C   C23       1.0  0.4901664495211834  0.7868329413977054  0.5422505812703875  1.0000
  C   C24       1.0  0.5098345948440866  0.21315780298981227  0.4577536592389251  1.0000
  C   C25       1.0  0.3724281990476753  0.8030227485221175  0.7502349349810444  1.0000
  C   C26       1.0  0.6275659157778718  0.19697383278952435  0.24976857154660345  1.0000
  C   C27       1.0  0.5042286803948954  0.7982192979979462  0.8001670790430423  1.0000
  C   C28       1.0  0.4957654475029967  0.20178077164800368  0.19983494459436463  1.0000
  C   C29       1.0  0.48780911495784096  0.8411348256582016  0.9094322883370651  1.0000
  C   C30       1.0  0.5121885358093863  0.158869883086723  0.09056831336899046  1.0000
  C   C31       1.0  0.3439594541646755  0.8894554726771705  0.9636963014364496  1.0000
  C   C32       1.0  0.6560382013958446  0.11054574743545231  0.036306637563868115  1.0000
  C   C33       1.0  0.23117541468064928  0.8505164334190314  0.8116660542906259  1.0000
  C   C34       1.0  0.7688175677836285  0.14948131414543303  0.18833829179552447  1.0000
  C   C35       1.0  0.17117936187672464  0.3180470064841928  0.9896534503728205  1.0000
  C   C36       1.0  0.828814881494047  0.6819600383404493  0.010349879504168812  1.0000
  S   S1        1.0  0.24361499785022286  0.48082786434512315  0.9913402059938149  1.0000
  S   S2        1.0  0.7563780155520377  0.5191733712556683  0.008663511606101737  1.0000
  N   N1        1.0  0.953130979785378  0.09426866260483993  0.807649315265742  1.0000
  N   N2        1.0  0.04686778547748819  0.9057348801852501  0.19234959247779668  1.0000
  N   N3        1.0  0.1377356949243662  0.3839368715719688  0.5440254144878054  1.0000
  N   N4        1.0  0.8622710710896085  0.6160608319119022  0.455969760567413  1.0000
  N   N5        1.0  0.34400827964115877  0.6125312176919949  0.4720340674286304  1.0000
  N   N6        1.0  0.6559938132765738  0.3874630132437177  0.5279625147124278  1.0000
  N   N7        1.0  0.3748742892075185  0.7566880266082594  0.6430967917465651  1.0000
  N   N8        1.0  0.6251209682919594  0.24330855112932437  0.35690566572716886  1.0000
  N   N9        1.0  0.2176071295939437  0.8948458400651805  0.9151857182717861  1.0000
  N   N10       1.0  0.7823893805329617  0.10515305796595704  0.08481954317728219  1.0000
  N   N11       1.0  0.12455213290542835  0.19478159627644942  0.9865643905020817  1.0000
  N   N12       1.0  0.8754385133737728  0.8052184849856304  0.013438217085017376  1.0000
  O   O1        1.0  0.13880039684714518  0.37434502523773017  0.346852905072133  1.0000
  O   O2        1.0  0.8612074781430863  0.6256468609802184  0.6531431228102348  1.0000
  O   O3        1.0  0.6101703281568902  0.8612865922817081  0.5306571768825847  1.0000
  O   O4        1.0  0.3898399915197501  0.13868900421946515  0.46935421069596117  1.0000
