data_image0
_chemical_formula_structural       Bi4H44C36S8N4Cl4
_chemical_formula_sum              "Bi4 H44 C36 S8 N4 Cl4"
_cell_length_a       8.271254816038622
_cell_length_b       8.546395145975461
_cell_length_c       17.337057221341983
_cell_angle_alpha    102.49889548409696
_cell_angle_beta     90.0003064780753
_cell_angle_gamma    90.00009816949273

_space_group_name_H-M_alt    "P 1"
_space_group_IT_number       1

loop_
  _space_group_symop_operation_xyz
  'x, y, z'

loop_
  _atom_site_type_symbol
  _atom_site_label
  _atom_site_symmetry_multiplicity
  _atom_site_fract_x
  _atom_site_fract_y
  _atom_site_fract_z
  _atom_site_occupancy
  Bi  Bi1       1.0  0.6717335105312044  0.2449973008557221  0.805108351683181  1.0000
  Bi  Bi2       1.0  0.17172412692270458  0.255010684765736  0.694887835105682  1.0000
  Bi  Bi3       1.0  0.3282687628944386  0.7550145786887157  0.1948915421274862  1.0000
  Bi  Bi4       1.0  0.8282624294014905  0.7449868108621941  0.30511108902756223  1.0000
  H   H1        1.0  0.10217735948536699  0.17260336996030648  0.0800723728575363  1.0000
  H   H2        1.0  0.6021809198424037  0.32739926589668034  0.4199289220883031  1.0000
  H   H3        1.0  0.8978261229448776  0.8273965144251321  0.9199291153197607  1.0000
  H   H4        1.0  0.3978189355654249  0.6726006205433422  0.5800719895052353  1.0000
  H   H5        1.0  0.9614815136001693  0.3100625371545789  0.1364814994898111  1.0000
  H   H6        1.0  0.46148115311412846  0.1899363501125961  0.36351973431195017  1.0000
  H   H7        1.0  0.03852075982367609  0.6899373472291116  0.8635199886857521  1.0000
  H   H8        1.0  0.5385199113033252  0.8100635342693323  0.6364817538618723  1.0000
  H   H9        1.0  0.0371690477645714  0.3455829385699473  0.045712094726667395  1.0000
  H   H10       1.0  0.5371678473933201  0.1544183079714614  0.4542894614278765  1.0000
  H   H11       1.0  0.9628320166478658  0.654415749385677  0.9542886880158221  1.0000
  H   H12       1.0  0.46283200801773455  0.8455815764087191  0.5457120267442122  1.0000
  H   H13       1.0  0.6742232490557569  0.005351389906138598  0.0487995704653201  1.0000
  H   H14       1.0  0.17422199488399306  0.49465025871503343  0.4512012257434606  1.0000
  H   H15       1.0  0.3257790243680886  0.9946484944775515  0.9512019177102361  1.0000
  H   H16       1.0  0.8257766515177919  0.505352026755382  0.5487993669753664  1.0000
  H   H17       1.0  0.75796567748322  0.1181000986967149  0.13816495103451132  1.0000
  H   H18       1.0  0.2579668499174446  0.3819005987218773  0.3618348034266675  1.0000
  H   H19       1.0  0.2420341779195923  0.8818985913169969  0.8618352551276942  1.0000
  H   H20       1.0  0.7420354235017541  0.6181004882676502  0.638165660444578  1.0000
  H   H21       1.0  0.8677946672848902  0.9526457255055687  0.08190032027989957  1.0000
  H   H22       1.0  0.3677958714413306  0.5473545865198373  0.4181005656981895  1.0000
  H   H23       1.0  0.13220639713077278  0.0473529603902065  0.9181010390411403  1.0000
  H   H24       1.0  0.6322051929714688  0.4526465004679352  0.5818998981713221  1.0000
  H   H25       1.0  0.9319957570442909  0.9485135288779103  0.8086798216540814  1.0000
  H   H26       1.0  0.43198959715655144  0.5514825171224513  0.6913183694602554  1.0000
  H   H27       1.0  0.06800893437410588  0.05148276829019951  0.1913189736523861  1.0000
  H   H28       1.0  0.5680042132110472  0.44851617494232693  0.3086812601147244  1.0000
  H   H29       1.0  0.10234463111275717  0.7627187120613853  0.7113735647125309  1.0000
  H   H30       1.0  0.6023380995576629  0.7372763788002316  0.7886231040466569  1.0000
  H   H31       1.0  0.8976636873234014  0.2372787856579848  0.2886247828733772  1.0000
  H   H32       1.0  0.397658128812715  0.262719920415435  0.21137511466912431  1.0000
  H   H33       1.0  0.0826442822586628  0.7639683233585469  0.568312672172908  1.0000
  H   H34       1.0  0.5826429749058305  0.7360363043760996  0.931683241159689  1.0000
  H   H35       1.0  0.9173555731316296  0.2360327739266808  0.4316849088021186  1.0000
  H   H36       1.0  0.4173556714812816  0.2639647908475311  0.0683149163921541  1.0000
  H   H37       1.0  0.8896402463770555  0.949071388777355  0.5226319431656208  1.0000
  H   H38       1.0  0.3896409105166896  0.5509365232277118  0.9773662618104099  1.0000
  H   H39       1.0  0.11035477298119636  0.05092971262053679  0.47736448464537057  1.0000
  H   H40       1.0  0.6103589448818382  0.4490657684239848  0.022632601174507282  1.0000
  H   H41       1.0  0.7233920069852217  0.1362515432847715  0.6189019597201266  1.0000
  H   H42       1.0  0.22339094436465248  0.3637529804107871  0.8810986013600299  1.0000
  H   H43       1.0  0.2766054304130349  0.863748341091899  0.3810995284484946  1.0000
  H   H44       1.0  0.7766064930325242  0.6362505035440265  0.11890212020985297  1.0000
  C   C1        1.0  0.8146691183795481  0.17707983516114467  0.9637789994403504  1.0000
  C   C2        1.0  0.31467017219056  0.32291895908547014  0.5362217558334308  1.0000
  C   C3        1.0  0.1853331550439421  0.822917650190391  0.03622280760819051  1.0000
  C   C4        1.0  0.6853308922190209  0.6770821299621445  0.4637781314575308  1.0000
  C   C5        1.0  0.9994318370469554  0.2524857209100588  0.0763708759746038  1.0000
  C   C6        1.0  0.49943104239392955  0.2475168720101593  0.4236308532651734  1.0000
  C   C7        1.0  0.0005716453832888999  0.7475141634753868  0.9236306122026862  1.0000
  C   C8        1.0  0.5005700220253074  0.7524842108579293  0.5763707637614388  1.0000
  C   C9        1.0  0.7865570754742846  0.0526281251233556  0.07807702868935709  1.0000
  C   C10       1.0  0.28655782758833936  0.4473726491350832  0.4219245375361993  1.0000
  C   C11       1.0  0.21344398894495237  0.9473729577447328  0.9219245883372551  1.0000
  C   C12       1.0  0.713444445830852  0.5526284378544443  0.5780759263350461  1.0000
  C   C13       1.0  0.816489623652863  0.0548760505942525  0.7207943602281192  1.0000
  C   C14       1.0  0.31648756717032694  0.445123949479992  0.7792059525385113  1.0000
  C   C15       1.0  0.1835066047321874  0.9451214388681988  0.2792062936546528  1.0000
  C   C16       1.0  0.6835062431976339  0.5548771416169345  0.2207933581634975  1.0000
  C   C17       1.0  0.9228408104855672  0.9489521287154119  0.7459786224819709  1.0000
  C   C18       1.0  0.4228389778341252  0.5510498851988924  0.7540196100582222  1.0000
  C   C19       1.0  0.07716025391255242  0.0510477680255761  0.25401940622055724  1.0000
  C   C20       1.0  0.5771596685662317  0.44895360081751085  0.24598053493484434  1.0000
  C   C21       1.0  0.019073067335057196  0.8445307943657594  0.6913235483503115  1.0000
  C   C22       1.0  0.5190714498965788  0.6554688486544789  0.8086733969191827  1.0000
  C   C23       1.0  0.9809292060623065  0.15546430843237152  0.3086739649428054  1.0000
  C   C24       1.0  0.48092719649697807  0.3445322424494676  0.1913259137897612  1.0000
  C   C25       1.0  0.008550636884464797  0.8457504175425112  0.6110279740648821  1.0000
  C   C26       1.0  0.5085438699382009  0.6542515918888867  0.888969198713724  1.0000
  C   C27       1.0  0.9914504275215278  0.15424827453279016  0.388971655520514  1.0000
  C   C28       1.0  0.491453567442157  0.3457471043008411  0.1110292777093633  1.0000
  C   C29       1.0  0.9004672500459847  0.9497032557857066  0.5853876695261276  1.0000
  C   C30       1.0  0.4004647934330733  0.5502974946761156  0.9146103699701698  1.0000
  C   C31       1.0  0.09952776932801295  0.05029543628082678  0.4146119600505926  1.0000
  C   C32       1.0  0.5995302259445053  0.4497035943627239  0.0853895173121231  1.0000
  C   C33       1.0  0.8051619909195651  0.05439236870007849  0.6400514831507352  1.0000
  C   C34       1.0  0.30515841999184795  0.445608794906576  0.8599495025458311  1.0000
  C   C35       1.0  0.19483423746548567  0.945605120762373  0.3599491707320297  1.0000
  C   C36       1.0  0.6948353903825504  0.5543922920706665  0.1400509613132712  1.0000
  S   S1        1.0  0.6515568735072532  0.0701127453510111  0.9172545698279252  1.0000
  S   S2        1.0  0.15155501141792627  0.42988557732710586  0.582745140890637  1.0000
  S   S3        1.0  0.34844781792365603  0.9298811445455825  0.08274685066572826  1.0000
  S   S4        1.0  0.8484472620005618  0.5701215082727132  0.4172542375088923  1.0000
  S   S5        1.0  0.9102566329462078  0.30665980089845135  0.9147563861855375  1.0000
  S   S6        1.0  0.4102580034649321  0.19333927296305115  0.5852440667527574  1.0000
  S   S7        1.0  0.08974322245303058  0.6933364921429472  0.0852435622710956  1.0000
  S   S8        1.0  0.5897442699531934  0.8066654136046195  0.4147556305197497  1.0000
  N   N1        1.0  0.864588621571009  0.16075486251698115  0.0348865411916464  1.0000
  N   N2        1.0  0.36458966349040617  0.3392461424394071  0.46511409575138174  1.0000
  N   N3        1.0  0.1354136518578457  0.839246218293013  0.9651156524152499  1.0000
  N   N4        1.0  0.6354114009177394  0.6607561471542027  0.5348853438138121  1.0000
  Cl  Cl1       1.0  0.3931380819627605  0.045472627294117295  0.7552127697816503  1.0000
  Cl  Cl2       1.0  0.8931387022318729  0.4545216008552231  0.7447876952094887  1.0000
  Cl  Cl3       1.0  0.6068617734464964  0.954526058599903  0.24478858953765575  1.0000
  Cl  Cl4       1.0  0.10685994415774049  0.5454746942442695  0.2552116766668604  1.0000
