data_image0
_chemical_formula_structural       Cu2H16C12Br2N4
_chemical_formula_sum              "Cu2 H16 C12 Br2 N4"
_cell_length_a       6.599878866512805
_cell_length_b       8.512170946618525
_cell_length_c       8.199718619292721
_cell_angle_alpha    69.97403105253889
_cell_angle_beta     73.29085393620939
_cell_angle_gamma    70.10045392314062

_space_group_name_H-M_alt    "P 1"
_space_group_IT_number       1

loop_
  _space_group_symop_operation_xyz
  'x, y, z'

loop_
  _atom_site_type_symbol
  _atom_site_label
  _atom_site_symmetry_multiplicity
  _atom_site_fract_x
  _atom_site_fract_y
  _atom_site_fract_z
  _atom_site_occupancy
  Cu  Cu1       1.0  0.6638346516792524  0.34136889756100436  0.6457180040994142  1.0000
  Cu  Cu2       1.0  0.33617450119376713  0.6586457257918424  0.3542978498390211  1.0000
  H   H1        1.0  0.07602873400522717  0.2813101040778109  0.3963734883686099  1.0000
  H   H2        1.0  0.923955587312328  0.718711111196555  0.6036167207502671  1.0000
  H   H3        1.0  0.3089109482983331  0.6084034525939045  0.7551755227302477  1.0000
  H   H4        1.0  0.6911123504248237  0.3916003673202014  0.24483358784207354  1.0000
  H   H5        1.0  0.8663011020822393  0.1259807473204475  0.9309915539110843  1.0000
  H   H6        1.0  0.13371738167864314  0.87404032313993  0.06896102791076685  1.0000
  H   H7        1.0  0.9221182909663383  0.15012265830017674  0.12154905451859577  1.0000
  H   H8        1.0  0.0778592690103821  0.8497979629908129  0.8784574043915111  1.0000
  H   H9        1.0  0.028413381165037797  0.2642373874919954  0.9023027695981863  1.0000
  H   H10       1.0  0.9716090302858831  0.7357364460755847  0.09776783376013029  1.0000
  H   H11       1.0  0.6045247219889873  0.0174425421261475  0.8691582881252413  1.0000
  H   H12       1.0  0.3955134409848425  0.9824950581073325  0.13086104707256388  1.0000
  H   H13       1.0  0.6203019300901289  0.8223416896099708  0.8219553529897746  1.0000
  H   H14       1.0  0.37961642405509366  0.17769628505047314  0.17794475719004757  1.0000
  H   H15       1.0  0.4675887057939362  0.030305338711947592  0.7081342812645557  1.0000
  H   H16       1.0  0.5323917044772416  0.9697900118981692  0.2918680955121288  1.0000
  C   C1        1.0  0.8165077348548165  0.9815991182059491  0.6262110487339495  1.0000
  C   C2        1.0  0.18342620361855919  0.0184003344908845  0.3738021637812137  1.0000
  C   C3        1.0  0.04229390739345719  0.15477860952332637  0.44195635109409165  1.0000
  C   C4        1.0  0.9577054993682664  0.8452430388286417  0.5580043661965487  1.0000
  C   C5        1.0  0.3936111332729552  0.5605509348709885  0.8660734200965687  1.0000
  C   C6        1.0  0.6064154858070621  0.4394426927677415  0.13394967946593533  1.0000
  C   C7        1.0  0.6844555561202981  0.3645384593662087  0.9933199790514988  1.0000
  C   C8        1.0  0.3155723536406185  0.6354292907271883  0.006706418395346208  1.0000
  C   C9        1.0  0.8863306900682274  0.21744087446938212  0.9885186263067068  1.0000
  C   C10       1.0  0.11368385252033152  0.7825350844554322  0.011515297036908075  1.0000
  C   C11       1.0  0.6168246323780691  0.959625435586041  0.7643592453336364  1.0000
  C   C12       1.0  0.3831416818635134  0.040395838866530184  0.2356109724941148  1.0000
  Br  Br1       1.0  0.7255045421345656  0.6137123960973624  0.4076524255297682  1.0000
  Br  Br2       1.0  0.27453807139655595  0.3862673147819109  0.5923365864373407  1.0000
  N   N1        1.0  0.8593200450568546  0.13984688854025512  0.5672746572026668  1.0000
  N   N2        1.0  0.1406693682533486  0.860183048139902  0.4327024856704467  1.0000
  N   N3        1.0  0.5747224442762615  0.4262462366237117  0.8574328176002904  1.0000
  N   N4        1.0  0.4253134724137482  0.5737331985523538  0.1426055223276349  1.0000
