data_image0
_chemical_formula_structural       Zn4H42C82S6N4O34
_chemical_formula_sum              "Zn4 H42 C82 S6 N4 O34"
_cell_length_a       13.224503943928893
_cell_length_b       13.786519174387307
_cell_length_c       28.505709707320754
_cell_angle_alpha    90.72106908807642
_cell_angle_beta     89.89933109008113
_cell_angle_gamma    89.8577849044311

_space_group_name_H-M_alt    "P 1"
_space_group_IT_number       1

loop_
  _space_group_symop_operation_xyz
  'x, y, z'

loop_
  _atom_site_type_symbol
  _atom_site_label
  _atom_site_symmetry_multiplicity
  _atom_site_fract_x
  _atom_site_fract_y
  _atom_site_fract_z
  _atom_site_occupancy
  Zn  Zn1       1.0  0.5092692467401038  0.4132699749125877  0.49693481126038813  1.0000
  Zn  Zn2       1.0  0.48962924934444635  0.6110619282725765  0.5014122091724926  1.0000
  Zn  Zn3       1.0  0.509038278134703  0.5872544767039755  0.0368328009043495  1.0000
  Zn  Zn4       1.0  0.4906074041537209  0.38951012818482417  0.0325390951128526  1.0000
  H   H1        1.0  0.4093490524143419  0.26702754698354175  0.5560979053318249  1.0000
  H   H2        1.0  0.3419623038666231  0.11290383209856711  0.5933228616810879  1.0000
  H   H3        1.0  0.6266165809428302  0.25703208831948393  0.45207995296399156  1.0000
  H   H4        1.0  0.5945061319201699  0.7584098217169171  0.4464653146770061  1.0000
  H   H5        1.0  0.6741269645591075  0.9127020815770024  0.4141262999590153  1.0000
  H   H6        1.0  0.3976046928875974  0.7674665292296654  0.5587989186711724  1.0000
  H   H7        1.0  0.5026521492333204  0.622608891520791  0.18960769605511268  1.0000
  H   H8        1.0  0.5027771373742099  0.3121088833058893  0.17787127695612528  1.0000
  H   H9        1.0  0.5043090438820812  0.2977971838347244  0.2650441748974472  1.0000
  H   H10       1.0  0.5037294004756346  0.37740896929241796  0.3441109029902591  1.0000
  H   H11       1.0  0.5024385655391655  0.6879189476258889  0.3559431968654749  1.0000
  H   H12       1.0  0.5034170867423527  0.7022690113486191  0.26878163339856087  1.0000
  H   H13       1.0  0.4872194854123819  0.6719136296513143  0.6542746205922327  1.0000
  H   H14       1.0  0.48661636580876433  0.751911466020438  0.7323389544454952  1.0000
  H   H15       1.0  0.4942793254903748  0.36216859099543813  0.6416211738675555  1.0000
  H   H16       1.0  0.4872830385850122  0.32799991169376597  0.879680937203808  1.0000
  H   H17       1.0  0.48551781533385713  0.24804643308979019  0.8016685040077858  1.0000
  H   H18       1.0  0.4966477917714016  0.6375512402058519  0.8923291312388456  1.0000
  H   H19       1.0  0.8373060249623235  0.3718709254682652  0.4948327945117298  1.0000
  H   H20       1.0  0.8028318005592183  0.6814629442350082  0.502575687119396  1.0000
  H   H21       1.0  0.9903949270380963  0.7024991191781711  0.5018146706328677  1.0000
  H   H22       1.0  0.1624785572811405  0.6294223924125932  0.49961625361515866  1.0000
  H   H23       1.0  0.1977073635016282  0.3200251828870577  0.4938831984187359  1.0000
  H   H24       1.0  0.010312749673048002  0.2986325952430917  0.4930715535903331  1.0000
  H   H25       1.0  0.4090207442464902  0.7345063743294276  0.9779897568676502  1.0000
  H   H26       1.0  0.3426450539476704  0.8890958354241861  0.9407701620890518  1.0000
  H   H27       1.0  0.6274497001360186  0.7423848916632706  0.08111522566908748  1.0000
  H   H28       1.0  0.5960488076132578  0.24139799732342482  0.0874597166576336  1.0000
  H   H29       1.0  0.6762442178661913  0.08624415074290681  0.11922030309390408  1.0000
  H   H30       1.0  0.3991036889810786  0.23391605715600156  0.975454555853986  1.0000
  H   H31       1.0  0.8367973266216282  0.6290414958507711  0.039847495953921494  1.0000
  H   H32       1.0  0.8044188785298872  0.3194229067125888  0.0320672906801818  1.0000
  H   H33       1.0  0.9921196447164462  0.2985813381990426  0.03307690722902379  1.0000
  H   H34       1.0  0.1636048320842107  0.3718961004885699  0.0348619594037345  1.0000
  H   H35       1.0  0.19689495956708916  0.6813779835013065  0.04017259838159499  1.0000
  H   H36       1.0  0.0093496522645395  0.7025404468754812  0.04157601747209579  1.0000
  H   H37       1.0  0.21856056960436382  0.8000490001961114  0.5798980318272982  1.0000
  H   H38       1.0  0.6615049054243299  0.23487103017235003  0.3691106648450172  1.0000
  H   H39       1.0  0.332205685839412  0.8198515721332527  0.8379086848699726  1.0000
  H   H40       1.0  0.3305613471798026  0.18042644628217633  0.6964168487475887  1.0000
  H   H41       1.0  0.21961273122219183  0.2019919056607691  0.9551135395186845  1.0000
  H   H42       1.0  0.6634166239968522  0.7640585017654614  0.1639333781525991  1.0000
  C   C1        1.0  0.49269407522829306  0.5227024001194991  0.5911883842081096  1.0000
  C   C2        1.0  0.3027012795422195  0.4883719282448098  0.4978973867558949  1.0000
  C   C3        1.0  0.5033828729867835  0.523952806651522  0.4070957034563277  1.0000
  C   C4        1.0  0.6976530505103681  0.514569467111798  0.4990677591678363  1.0000
  C   C5        1.0  0.49412257330408943  0.4772398944732288  0.9427141640918535  1.0000
  C   C6        1.0  0.30295571075127725  0.5130072787580957  0.03587225213832569  1.0000
  C   C7        1.0  0.5026322564427659  0.4760132671845199  0.12671615623468568  1.0000
  C   C8        1.0  0.6981365476829922  0.4862116508255951  0.0351766855270554  1.0000
  C   C9        1.0  0.4552380233013337  0.2202747298468708  0.5333625095566672  1.0000
  C   C10       1.0  0.4505375365544495  0.11899730613452421  0.5356716809243166  1.0000
  C   C11       1.0  0.3866451347617925  0.070309716442388  0.5683250036118463  1.0000
  C   C12       1.0  0.5763732131613821  0.21390997803768388  0.4737038119102407  1.0000
  C   C13       1.0  0.5759839497041385  0.11225920923039467  0.47170254693172337  1.0000
  C   C14       1.0  0.6354262430113307  0.05390294931596171  0.43952742151051877  1.0000
  C   C15       1.0  0.553534815250906  0.8051919283516681  0.471169316380795  1.0000
  C   C16       1.0  0.5630182696424059  0.9062861823484167  0.4708934831624631  1.0000
  C   C17       1.0  0.6286680455739527  0.9549650344799403  0.43896654957517695  1.0000
  C   C18       1.0  0.4398210959322242  0.8109639662444721  0.5339189504436064  1.0000
  C   C19       1.0  0.44065154682174057  0.9127057653175754  0.5361918332370763  1.0000
  C   C20       1.0  0.38192917488866124  0.9712624463590342  0.5686291070752459  1.0000
  C   C21       1.0  0.5105577474368062  0.0639284472542982  0.5035643743357879  1.0000
  C   C22       1.0  0.5044986018258798  0.9612131993809288  0.5036954984939683  1.0000
  C   C23       1.0  0.5043799768566828  0.5521811036343537  0.20664229402663634  1.0000
  C   C24       1.0  0.5040865848372391  0.3763877572846612  0.20044916168493634  1.0000
  C   C25       1.0  0.5047222243100579  0.368826322608541  0.24850452045846788  1.0000
  C   C26       1.0  0.5051986326247473  0.4531838917189646  0.2776347826907112  1.0000
  C   C27       1.0  0.5051094250103887  0.4478834403476526  0.32711988773662876  1.0000
  C   C28       1.0  0.5040064036272085  0.6236268080272892  0.3333686483047629  1.0000
  C   C29       1.0  0.5042705181620663  0.6312222059670988  0.2853091050570312  1.0000
  C   C30       1.0  0.5048963757559193  0.5469212934230754  0.2561334308504897  1.0000
  C   C31       1.0  0.5041005658177582  0.4689543401242062  0.17906288812344678  1.0000
  C   C32       1.0  0.5046903212338094  0.5310657525220038  0.3547372185834661  1.0000
  C   C33       1.0  0.4885577872485314  0.6013910836547467  0.6711490819266928  1.0000
  C   C34       1.0  0.488531914833608  0.5955176142239155  0.720218288399536  1.0000
  C   C35       1.0  0.48781032273542735  0.6812318979537154  0.7490646948657654  1.0000
  C   C36       1.0  0.491040438211499  0.4257666994960162  0.6644941250876499  1.0000
  C   C37       1.0  0.4892793385980739  0.4163432501404358  0.71336807696796  1.0000
  C   C38       1.0  0.4875062588095886  0.324252720904795  0.7370285811527849  1.0000
  C   C39       1.0  0.4889740325785397  0.3984908883015946  0.8627969312326796  1.0000
  C   C40       1.0  0.4884682055702426  0.40440793135353204  0.813728187410099  1.0000
  C   C41       1.0  0.486891085764924  0.31868978565907463  0.7849057229088527  1.0000
  C   C42       1.0  0.49277227210307467  0.5740608497978172  0.8694353525820373  1.0000
  C   C43       1.0  0.49049081873585726  0.5835182675004518  0.820582056705227  1.0000
  C   C44       1.0  0.488923888333204  0.6756253691463884  0.7969482802943446  1.0000
  C   C45       1.0  0.49053876285358194  0.5169529799934196  0.6436470840097213  1.0000
  C   C46       1.0  0.48892805014694574  0.5026118654900885  0.7420505807610951  1.0000
  C   C47       1.0  0.4917834676623229  0.48289275403298865  0.8902759171945788  1.0000
  C   C48       1.0  0.4892154228880798  0.49730189739594266  0.7918895001739441  1.0000
  C   C49       1.0  0.8716907563544181  0.443678632956285  0.4964708005768798  1.0000
  C   C50       1.0  0.8534479080574116  0.6191097251187117  0.5007156712130579  1.0000
  C   C51       1.0  0.9567029678896047  0.6302850607080471  0.5004681011440866  1.0000
  C   C52       1.0  0.021804195627723302  0.5482146748161157  0.4985322010212981  1.0000
  C   C53       1.0  0.1281944691256172  0.557560737284561  0.4986732569344382  1.0000
  C   C54       1.0  0.14705463818261677  0.38242209014883605  0.4952789257638202  1.0000
  C   C55       1.0  0.043734612985098  0.37092613567605076  0.4948088265568486  1.0000
  C   C56       1.0  0.9782325642580432  0.4528600847916309  0.4965571056797415  1.0000
  C   C57       1.0  0.810133386354245  0.5250252886302532  0.498651134114901  1.0000
  C   C58       1.0  0.19024158912142752  0.4766888912987  0.4973073803788494  1.0000
  C   C59       1.0  0.4554767152409198  0.7808100608135649  0.0005022297511275009  1.0000
  C   C60       1.0  0.4514950884930328  0.8821149606587895  0.9980997739799802  1.0000
  C   C61       1.0  0.3876391339741403  0.931327247225532  0.9656303329210019  1.0000
  C   C62       1.0  0.5772132428736895  0.7859916715324289  0.05967994054328329  1.0000
  C   C63       1.0  0.5774050454336858  0.8876551212521874  0.061648870643033093  1.0000
  C   C64       1.0  0.6372421208718464  0.945460465595936  0.09369037655508808  1.0000
  C   C65       1.0  0.5551716687900097  0.19493315604693617  0.06273180787873398  1.0000
  C   C66       1.0  0.5648251409794725  0.093780695060218  0.0627713709325022  1.0000
  C   C67       1.0  0.6305920991033531  0.044445344144755  0.09443884480808148  1.0000
  C   C68       1.0  0.4414132191730431  0.1900833289151365  0.0001716696637715002  1.0000
  C   C69       1.0  0.44227818961888943  0.08839409559627139  0.9977356343255648  1.0000
  C   C70       1.0  0.38326594469197767  0.0304088721449673  0.9654023797461445  1.0000
  C   C71       1.0  0.5120186570652976  0.9366222147975947  0.030002874648452894  1.0000
  C   C72       1.0  0.5062286938208942  0.0393798859311687  0.029995267346755793  1.0000
  C   C73       1.0  0.8716712255440697  0.557273743063618  0.038171537200810186  1.0000
  C   C74       1.0  0.8546523053039863  0.3818077839997683  0.0339693723211241  1.0000
  C   C75       1.0  0.9579698710765284  0.3707528152126471  0.0343747330650146  1.0000
  C   C76       1.0  0.022465848627419405  0.4529507624601051  0.0362024638935381  1.0000
  C   C77       1.0  0.1288994365716576  0.44374102863595505  0.0358461520433906  1.0000
  C   C78       1.0  0.14665483957266903  0.6189173225036769  0.03895857470012488  1.0000
  C   C79       1.0  0.043236099922488294  0.6302817618413812  0.0397253600771137  1.0000
  C   C80       1.0  0.9782683487902801  0.5482565836322095  0.038144004483768895  1.0000
  C   C81       1.0  0.8106888886655811  0.4758418116745702  0.03585885922813498  1.0000
  C   C82       1.0  0.1904489946485128  0.5246793813597748  0.03688165680279099  1.0000
  S   S1        1.0  0.3009882903986778  0.9175530553477602  0.6113037536812056  1.0000
  S   S2        1.0  0.7239059342106842  0.1073582135579656  0.40005095784471206  1.0000
  S   S3        1.0  0.48983324585106663  0.7879047131328534  0.8287347788321853  1.0000
  S   S4        1.0  0.4881500535895995  0.21178907740408454  0.7053679190293138  1.0000
  S   S5        1.0  0.302011105570287  0.0846912110146718  0.9230549457250915  1.0000
  S   S6        1.0  0.7258592504306948  0.8911169019428726  0.1327818808760952  1.0000
  N   N1        1.0  0.5160522270774949  0.2646355615475144  0.5028404041035798  1.0000
  N   N2        1.0  0.4934635850174587  0.7605552483313502  0.5019183179085616  1.0000
  N   N3        1.0  0.5162391669000712  0.7358393827198028  0.030832893754954693  1.0000
  N   N4        1.0  0.4950443875179856  0.2400022687917271  0.032149127315882695  1.0000
  O   O1        1.0  0.5034206203365913  0.4433097617555788  0.568511872592907  1.0000
  O   O2        1.0  0.48374503282654757  0.6064414026866913  0.5732701299022978  1.0000
  O   O3        1.0  0.33832620039360956  0.574276640783971  0.49950659038552186  1.0000
  O   O4        1.0  0.35503212564963604  0.4105234296950401  0.49682267433894367  1.0000
  O   O5        1.0  0.49709288810492314  0.6040028068189259  0.4298785441628325  1.0000
  O   O6        1.0  0.5082963761867774  0.43989644606425327  0.42507380861523797  1.0000
  O   O7        1.0  0.6617985239353743  0.42894283925628673  0.4957474290652469  1.0000
  O   O8        1.0  0.645333831670456  0.592114589174713  0.5028153703313194  1.0000
  O   O9        1.0  0.5046821792074497  0.5566517335012193  0.965331907063337  1.0000
  O   O10       1.0  0.4854028401719646  0.39356210903757477  0.9607089765905669  1.0000
  O   O11       1.0  0.33909027857266955  0.4271147039738495  0.03428183338917279  1.0000
  O   O12       1.0  0.35486049542056713  0.590888968909013  0.0366020179157402  1.0000
  O   O13       1.0  0.49692739889403725  0.39587810931351447  0.104002928285567  1.0000
  O   O14       1.0  0.5069410729899246  0.5600107280769892  0.10867252802889737  1.0000
  O   O15       1.0  0.6616894550501584  0.5718036451631434  0.03847358085482  1.0000
  O   O16       1.0  0.6463189280921141  0.4086412669172362  0.0312929570488052  1.0000
  O   O17       1.0  0.21444012489816802  0.870868146250956  0.5778067542588302  1.0000
  O   O18       1.0  0.2540463729371467  0.9943343244734211  0.6377775868099105  1.0000
  O   O19       1.0  0.3529819979615425  0.838634243095953  0.6336613645715443  1.0000
  O   O20       1.0  0.6488895255236429  0.16516728418936572  0.36521307745064735  1.0000
  O   O21       1.0  0.769613648463732  0.030574781410877005  0.37315138741139  1.0000
  O   O22       1.0  0.7831885740804693  0.17846717422640526  0.42519689047900744  1.0000
  O   O23       1.0  0.38227408068970437  0.7857989158407646  0.8569826329632161  1.0000
  O   O24       1.0  0.4850327287883188  0.8661300050281258  0.7958999720095362  1.0000
  O   O25       1.0  0.5647782691270749  0.7850547252935202  0.865096068625938  1.0000
  O   O26       1.0  0.38059549409149446  0.21440472596571422  0.6773090893643497  1.0000
  O   O27       1.0  0.48323426335342384  0.133725310139468  0.7382934123761016  1.0000
  O   O28       1.0  0.5631254774080149  0.21405596618968303  0.6688906541121042  1.0000
  O   O29       1.0  0.2154259897771311  0.1311441449379558  0.956879847670997  1.0000
  O   O30       1.0  0.25519555488995843  0.0082200688200373  0.896541364495995  1.0000
  O   O31       1.0  0.3536153586411928  0.16375468575630953  0.9007464665938654  1.0000
  O   O32       1.0  0.650895015410981  0.8338441089051898  0.1678219606145817  1.0000
  O   O33       1.0  0.7721950228266224  0.9673710936380574  0.15958513637428237  1.0000
  O   O34       1.0  0.7845955038409188  0.8196069205876596  0.10735285707344387  1.0000
