data_image0
_chemical_formula_structural       Zn2H20C52N4O12F8
_chemical_formula_sum              "Zn2 H20 C52 N4 O12 F8"
_cell_length_a       13.979007847102043
_cell_length_b       15.343827288309111
_cell_length_c       23.71810083267833
_cell_angle_alpha    90.17639533233461
_cell_angle_beta     89.9432422583172
_cell_angle_gamma    90.2051397336028

_space_group_name_H-M_alt    "P 1"
_space_group_IT_number       1

loop_
  _space_group_symop_operation_xyz
  'x, y, z'

loop_
  _atom_site_type_symbol
  _atom_site_label
  _atom_site_symmetry_multiplicity
  _atom_site_fract_x
  _atom_site_fract_y
  _atom_site_fract_z
  _atom_site_occupancy
  Zn  Zn1       1.0  0.4012151111001572  0.49977205063427727  0.5000520522833085  1.0000
  Zn  Zn2       1.0  0.5984974170138317  0.500346134360548  0.500001775105055  1.0000
  H   H1        1.0  0.5741875784169252  0.7087091621880077  0.05364392683718929  1.0000
  H   H2        1.0  0.4258696225440631  0.29093560852466277  0.9463393862289493  1.0000
  H   H3        1.0  0.7516576155161444  0.5338800312955457  0.585088974647391  1.0000
  H   H4        1.0  0.2472616501661022  0.37015513326936406  0.4738938669107283  1.0000
  H   H5        1.0  0.7515694692144097  0.46661282898521955  0.41487317475539226  1.0000
  H   H6        1.0  0.24831127827557967  0.6296149061709428  0.526084051607107  1.0000
  H   H7        1.0  0.5740853812476346  0.7086570514571449  0.9469676841648534  1.0000
  H   H8        1.0  0.4260333537033035  0.2909805632719084  0.052981452264177185  1.0000
  H   H9        1.0  0.6544810733987277  0.49737091190672084  0.7865262155535999  1.0000
  H   H10       1.0  0.6547395873271853  0.49963796860284043  0.21340335692354268  1.0000
  H   H11       1.0  0.6580038230845916  0.49891739987623396  0.6808260367248379  1.0000
  H   H12       1.0  0.6579995056969281  0.49788710845668044  0.31908227389470056  1.0000
  H   H13       1.0  0.3512788403903216  0.5010056181865536  0.6770308350806217  1.0000
  H   H14       1.0  0.35126345730993347  0.5014850889084314  0.3230634964615646  1.0000
  H   H15       1.0  0.34697444146158324  0.5023235119550195  0.782993084026337  1.0000
  H   H16       1.0  0.3472126562098127  0.5002835595605576  0.21712755824066923  1.0000
  H   H17       1.0  0.36138008409244554  0.7806344052105273  0.5453883888751321  1.0000
  H   H18       1.0  0.6316432166585743  0.22565304940453493  0.5428964448071126  1.0000
  H   H19       1.0  0.36152070255034363  0.21853036039286167  0.45475823175909363  1.0000
  H   H20       1.0  0.6317104512519052  0.7753605757708044  0.45707031864542796  1.0000
  C   C1        1.0  0.49407596091734973  0.6699098102532658  0.5005905099857982  1.0000
  C   C2        1.0  0.49404335346223155  0.3301871076828887  0.49953309661986367  1.0000
  C   C3        1.0  0.588435253888953  0.4985406050142202  0.7621882865517262  1.0000
  C   C4        1.0  0.5886342058584474  0.49926479914276445  0.2377834904235741  1.0000
  C   C5        1.0  0.5902896434058958  0.4993915528307582  0.7035475027645358  1.0000
  C   C6        1.0  0.5903090669192254  0.49861662425563935  0.2964301022405422  1.0000
  C   C7        1.0  0.5046658551284509  0.5002307597815444  0.6729117331753968  1.0000
  C   C8        1.0  0.5046331459513668  0.49947533735459604  0.327133269075503  1.0000
  C   C9        1.0  0.4170321327889255  0.5007126285573732  0.7016027853377906  1.0000
  C   C10       1.0  0.4170754049795988  0.5005719937522456  0.2984715077819614  1.0000
  C   C11       1.0  0.41472321282045493  0.5012263321945695  0.7602596729698163  1.0000
  C   C12       1.0  0.4149346084552762  0.5003414881849223  0.23981836168351825  1.0000
  C   C13       1.0  0.5005955916283753  0.4998790739531741  0.7901111255479305  1.0000
  C   C14       1.0  0.5008546098267033  0.499879557892875  0.20989968201103434  1.0000
  C   C15       1.0  0.42522842611950296  0.9044784942943735  0.5251972310409129  1.0000
  C   C16       1.0  0.5732831404884849  0.0987336651905792  0.523478765516188  1.0000
  C   C17       1.0  0.4252999866018073  0.09513036293706988  0.47472164517517257  1.0000
  C   C18       1.0  0.5733725795647546  0.9019074031989193  0.4763607773596091  1.0000
  C   C19       1.0  0.42116705354942513  0.8142844767297175  0.5256095590875204  1.0000
  C   C20       1.0  0.5734141179262906  0.18903260109627945  0.5235901385983153  1.0000
  C   C21       1.0  0.4212890836866166  0.18529288579296116  0.4744336466136189  1.0000
  C   C22       1.0  0.5734360924804138  0.8116077830750116  0.4763598075457693  1.0000
  C   C23       1.0  0.49614803627849824  0.7675992044094284  0.5008878417924477  1.0000
  C   C24       1.0  0.49616197546686186  0.23251948305305348  0.4991345575363437  1.0000
  C   C25       1.0  0.5001204818166799  0.9520148093631277  0.5004394816121192  1.0000
  C   C26       1.0  0.5001079092023062  0.04808033190123238  0.4994446739872273  1.0000
  C   C27       1.0  0.5061381862812055  0.5007179253837535  0.6097901954186681  1.0000
  C   C28       1.0  0.5060234192073665  0.49922369069683004  0.3902520170128411  1.0000
  C   C29       1.0  0.8934651164541877  0.5193160540076818  0.5482507756363332  1.0000
  C   C30       1.0  0.10580654727937139  0.4264824472893948  0.4845964033501885  1.0000
  C   C31       1.0  0.8934295358540965  0.4805674085551672  0.4517061382473385  1.0000
  C   C32       1.0  0.10645451661834222  0.5732078890216813  0.5153227882584375  1.0000
  C   C33       1.0  0.7941514976577865  0.5193221135755977  0.5476513312312221  1.0000
  C   C34       1.0  0.20514915165141187  0.4273473087333882  0.4850106740965642  1.0000
  C   C35       1.0  0.7941051270649949  0.48103413831609027  0.45230619035146447  1.0000
  C   C36       1.0  0.2057858730312887  0.5723658250766092  0.5149880226673814  1.0000
  C   C37       1.0  0.9471178387498828  0.4999071708231923  0.49997354834002994  1.0000
  C   C38       1.0  0.052458938578155305  0.499875489429911  0.49996407937655346  1.0000
  C   C39       1.0  0.4719362927063955  0.4220385189195994  0.12172392477063447  1.0000
  C   C40       1.0  0.5267347248492341  0.5780921530645531  0.8782922916418483  1.0000
  C   C41       1.0  0.5269583094853445  0.5781993392190827  0.12194642250872079  1.0000
  C   C42       1.0  0.47156899494077464  0.4219360841282693  0.8779863620984755  1.0000
  C   C43       1.0  0.526573469940594  0.5766195962487828  0.059408843611969096  1.0000
  C   C44       1.0  0.4719716368343256  0.4234748102433841  0.9405285370323779  1.0000
  C   C45       1.0  0.49923278041512026  0.5000968595395391  0.030020600545263697  1.0000
  C   C46       1.0  0.49915788007628253  0.5000442711094734  0.9699392152338929  1.0000
  C   C47       1.0  0.472132491499039  0.4235548253177512  0.059189744310820885  1.0000
  C   C48       1.0  0.5264326231412754  0.5765495302384522  0.9408003413530678  1.0000
  C   C49       1.0  0.553322713201247  0.6508345429045831  0.02981402496806139  1.0000
  C   C50       1.0  0.4460202992970963  0.34904164173600083  0.9701494768508919  1.0000
  C   C51       1.0  0.5532535830936851  0.6507908033463536  0.9706100360283613  1.0000
  C   C52       1.0  0.4460930099893972  0.3490899661659199  0.029359793022685193  1.0000
  N   N1        1.0  0.4993775147567803  0.5001558610949955  0.14901135042821068  1.0000
  N   N2        1.0  0.4990954919190003  0.5000441731017061  0.8509898105224846  1.0000
  N   N3        1.0  0.7468064312234972  0.5002969688349169  0.4999687001979893  1.0000
  N   N4        1.0  0.2528667892748118  0.49981446318477657  0.5000210472656832  1.0000
  O   O1        1.0  0.4147474093937121  0.6329891831254314  0.5125261838503119  1.0000
  O   O2        1.0  0.5717003978047615  0.36928902745945885  0.5117924013351425  1.0000
  O   O3        1.0  0.4147463782972522  0.366640472836501  0.4876859506454564  1.0000
  O   O4        1.0  0.5717236236723409  0.6312450144662167  0.4883229475027021  1.0000
  O   O5        1.0  0.42769287440022197  0.4841622465215352  0.5846043861953019  1.0000
  O   O6        1.0  0.5855812006862281  0.4826494920118449  0.4142904918234222  1.0000
  O   O7        1.0  0.42761856289504874  0.5155874238482525  0.41549147273504156  1.0000
  O   O8        1.0  0.5857545455933179  0.5177415195843124  0.5857051683523621  1.0000
  O   O9        1.0  0.4497619709839  0.35713580478579127  0.1490256152174254  1.0000
  O   O10       1.0  0.5493494584542304  0.6428711759605859  0.8510089062557852  1.0000
  O   O11       1.0  0.5496268607313584  0.6429787290736756  0.14944110141499317  1.0000
  O   O12       1.0  0.4492008286480528  0.3571049513688038  0.8504502253766474  1.0000
  F   F1        1.0  0.35371000093410027  0.94975634451945  0.5507923322086582  1.0000
  F   F2        1.0  0.6468844031689971  0.05658789214627549  0.5489662615299976  1.0000
  F   F3        1.0  0.35387591121538253  0.04943408597246451  0.4490829108886486  1.0000
  F   F4        1.0  0.6469604708359  0.9445637720631265  0.45078497377282634  1.0000
  F   F5        1.0  0.9395228404683564  0.536704193829678  0.5970504954311122  1.0000
  F   F6        1.0  0.05953978237995021  0.35241127581391407  0.4700998025416751  1.0000
  F   F7        1.0  0.9394436062590616  0.4628154172790317  0.4029390329946167  1.0000
  F   F8        1.0  0.06070452452779309  0.6472671107711391  0.5298450304628516  1.0000
