data_image0
_chemical_formula_structural       Co4H24C30O20
_chemical_formula_sum              "Co4 H24 C30 O20"
_cell_length_a       7.586614899772771
_cell_length_b       10.68621302193425
_cell_length_c       11.085324762140795
_cell_angle_alpha    99.0524682453282
_cell_angle_beta     111.38747985211405
_cell_angle_gamma    97.4160711404866

_space_group_name_H-M_alt    "P 1"
_space_group_IT_number       1

loop_
  _space_group_symop_operation_xyz
  'x, y, z'

loop_
  _atom_site_type_symbol
  _atom_site_label
  _atom_site_symmetry_multiplicity
  _atom_site_fract_x
  _atom_site_fract_y
  _atom_site_fract_z
  _atom_site_occupancy
  Co  Co1       1.0  0.54080844613609  0.3628010926554737  0.02852109538456924  1.0000
  Co  Co2       1.0  0.45933689144413836  0.6363878058461337  0.9715267483695341  1.0000
  Co  Co3       1.0  0.18417757668706966  0.4802828409881954  0.12438431638715738  1.0000
  Co  Co4       1.0  0.8138850278198788  0.5184133950855383  0.874915773849324  1.0000
  H   H1        1.0  0.328212555971156  0.9823685264584939  0.04897064552478274  1.0000
  H   H2        1.0  0.671905366721461  0.0176914485732524  0.9510043390952703  1.0000
  H   H3        1.0  0.9324762397073625  0.7776634453834672  0.18283512110250646  1.0000
  H   H4        1.0  0.068653991661634  0.2220909431357185  0.8176330609370125  1.0000
  H   H5        1.0  0.035224664771867295  0.19442868504837924  0.250984152171938  1.0000
  H   H6        1.0  0.9644435174180754  0.8051434413734525  0.7491573971546615  1.0000
  H   H7        1.0  0.5234732244386605  0.011918796406064304  0.3106534880503631  1.0000
  H   H8        1.0  0.47727030278623056  0.9871915723199437  0.6898337246023942  1.0000
  H   H9        1.0  0.49461396309079925  0.18504218995417426  0.47804961548975905  1.0000
  H   H10       1.0  0.5056360100063912  0.8141268808440428  0.5221573014654908  1.0000
  H   H11       1.0  0.1070154946893069  0.33583510754995416  0.623134864926925  1.0000
  H   H12       1.0  0.8928180002510825  0.664559170593229  0.3765886968038927  1.0000
  H   H13       1.0  0.13731839096539025  0.16148461194656247  0.4629774250853345  1.0000
  H   H14       1.0  0.8631028041035831  0.838651065371998  0.537163761594421  1.0000
  H   H15       1.0  0.34579076341633896  0.19273878761379853  0.7861177753255432  1.0000
  H   H16       1.0  0.6530330599923244  0.8078583566341564  0.21382018754999882  1.0000
  H   H17       1.0  0.465122678732996  0.3113093984809652  0.7610873605688937  1.0000
  H   H18       1.0  0.533792252331956  0.6894793600605453  0.23934625152381978  1.0000
  H   H19       1.0  0.8449891040282935  0.46787500232830587  0.2635087988070453  1.0000
  H   H20       1.0  0.1555503026990976  0.5333381993164964  0.7355384069177475  1.0000
  H   H21       1.0  0.6833807441855129  0.3871063950720313  0.29675395900921603  1.0000
  H   H22       1.0  0.3190167738632965  0.6121681337370789  0.7026694438809855  1.0000
  H   H23       1.0  0.7774322521277881  0.5727553029211022  0.0836303086584067  1.0000
  H   H24       1.0  0.2217719415473951  0.4311873701138111  0.9159074245511577  1.0000
  C   C1        1.0  0.2908493826782318  0.2257587781454689  0.1405066047396986  1.0000
  C   C2        1.0  0.7093927067396208  0.7744026385101463  0.8605080149505753  1.0000
  C   C3        1.0  0.1974043762134841  0.10033233935465802  0.1548560781226556  1.0000
  C   C4        1.0  0.8025971487484469  0.8995893948323612  0.845318417657616  1.0000
  C   C5        1.0  0.23088106833222335  0.9832573610228151  0.10073690598222375  1.0000
  C   C6        1.0  0.7693562817254715  0.016747743375695706  0.8993266171180352  1.0000
  C   C7        1.0  0.13352150834595025  0.8665962992993459  0.10947465258689705  1.0000
  C   C8        1.0  0.8669662358661652  0.1332821527845169  0.8905432627216711  1.0000
  C   C9        1.0  0.1562635198643676  0.7414422690729126  0.04177032644805219  1.0000
  C   C10       1.0  0.8429540247559115  0.2582845492963699  0.9570372377025862  1.0000
  C   C11       1.0  0.008537894579539785  0.8679285542097119  0.17619794340872363  1.0000
  C   C12       1.0  0.9924020151304942  0.13184273534294988  0.8241768690218052  1.0000
  C   C13       1.0  0.9750511430574276  0.9855525409608036  0.22846038198431984  1.0000
  C   C14       1.0  0.025583722205972496  0.014108119566685697  0.7719279924795616  1.0000
  C   C15       1.0  0.0662628215070882  0.1020084503029608  0.2169100414607072  1.0000
  C   C16       1.0  0.9337068485443608  0.8976905641966512  0.783236824631146  1.0000
  C   C17       1.0  0.8303536788834404  0.0786025160834427  0.37427275354738737  1.0000
  C   C18       1.0  0.17024730850710057  0.9210305750426643  0.6260567291655477  1.0000
  C   C19       1.0  0.6500569348443719  0.08357349346950121  0.3800264198441639  1.0000
  C   C20       1.0  0.35046816459401237  0.915798682968344  0.6202989042484292  1.0000
  C   C21       1.0  0.6343215958380312  0.180722483516341  0.4726970390761025  1.0000
  C   C22       1.0  0.3659338447930267  0.8186761754608298  0.5274337132995868  1.0000
  C   C23       1.0  0.7975838942587287  0.2745943841615953  0.5594475236407987  1.0000
  C   C24       1.0  0.20240131387909335  0.7251433721262472  0.4404406240891204  1.0000
  C   C25       1.0  0.9776528306465335  0.2668389475727223  0.55335113360767  1.0000
  C   C26       1.0  0.022431608723444157  0.7332041699094204  0.44656047095511997  1.0000
  C   C27       1.0  0.9956593969423578  0.1684204501007116  0.4631755616811972  1.0000
  C   C28       1.0  0.004716087387258563  0.8315308180859022  0.5369759111078309  1.0000
  C   C29       1.0  0.786136971495125  0.37383676914319613  0.6644304272694085  1.0000
  C   C30       1.0  0.21341356213685708  0.6258069673478772  0.3353334338614218  1.0000
  O   O1        1.0  0.3933965072315288  0.22115999749615162  0.07179428521287426  1.0000
  O   O2        1.0  0.6103237611263879  0.7798383294003985  0.9315925345294431  1.0000
  O   O3        1.0  0.2598122297008628  0.3294882829323029  0.1974861427460723  1.0000
  O   O4        1.0  0.7381227747826458  0.6704667833582292  0.8022379042157297  1.0000
  O   O5        1.0  0.2681190854497898  0.74551704293507  0.9807556825736228  1.0000
  O   O6        1.0  0.7294514281119432  0.25435195453511034  0.016897970527693887  1.0000
  O   O7        1.0  0.05848017457611825  0.6354681148201207  0.04788693850136378  1.0000
  O   O8        1.0  0.9407906387537252  0.3644464632305215  0.9514919361463896  1.0000
  O   O9        1.0  0.83343332160819  0.9775569634980741  0.28075777265146945  1.0000
  O   O10       1.0  0.16741277935847165  0.022005682641122303  0.7197909673423553  1.0000
  O   O11       1.0  0.6374623474821703  0.36567800538743  0.6933934331211944  1.0000
  O   O12       1.0  0.36222970245157177  0.6331156045277953  0.3065986667831098  1.0000
  O   O13       1.0  0.9328821993963741  0.46686595690480454  0.7338194402151216  1.0000
  O   O14       1.0  0.06596383408602689  0.5333945318751317  0.265624071952189  1.0000
  O   O15       1.0  0.6752441286740519  0.5282691653227546  0.9977483420375108  1.0000
  O   O16       1.0  0.3242162408820305  0.4737663358266674  0.0023699840610973224  1.0000
  O   O17       1.0  0.3872670400081545  0.28713452281158436  0.8115794013575766  1.0000
  O   O18       1.0  0.6114918737072799  0.71348960266549  0.18870851417978685  1.0000
  O   O19       1.0  0.703338023643461  0.44444376765479643  0.2408562991734869  1.0000
  O   O20       1.0  0.29719986106755397  0.5550426475140923  0.7582447848817112  1.0000
