data_image0
_chemical_formula_structural       Co2H32C36N4O12
_chemical_formula_sum              "Co2 H32 C36 N4 O12"
_cell_length_a       7.344492289706834
_cell_length_b       10.421641650880288
_cell_length_c       11.295194854903773
_cell_angle_alpha    90.01135227589467
_cell_angle_beta     89.98858668309065
_cell_angle_gamma    91.54764757468988

_space_group_name_H-M_alt    "P 1"
_space_group_IT_number       1

loop_
  _space_group_symop_operation_xyz
  'x, y, z'

loop_
  _atom_site_type_symbol
  _atom_site_label
  _atom_site_symmetry_multiplicity
  _atom_site_fract_x
  _atom_site_fract_y
  _atom_site_fract_z
  _atom_site_occupancy
  Co  Co1       1.0  0.2518539630301646  0.2500470585792128  0.27977509598467515  1.0000
  Co  Co2       1.0  0.7518632398424357  0.7500617762574961  0.7202430251912234  1.0000
  H   H1        1.0  0.3681193898605386  0.4347570166134884  0.0857447045817636  1.0000
  H   H2        1.0  0.13656451972644854  0.0699053171435366  0.0870183403339624  1.0000
  H   H3        1.0  0.6365735394208513  0.569978641792595  0.9129147776354853  1.0000
  H   H4        1.0  0.8681274119855402  0.9347893513195445  0.9143360896392849  1.0000
  H   H5        1.0  0.8435140174595972  0.34896636136403464  0.8651419044244975  1.0000
  H   H6        1.0  0.6494111363371929  0.14608377195512648  0.8658988944280777  1.0000
  H   H7        1.0  0.14918275884816268  0.6459593282822167  0.1340460364451275  1.0000
  H   H8        1.0  0.3433471121787903  0.8488226062448803  0.1348835240667015  1.0000
  H   H9        1.0  0.5539733961871675  0.4178412489323193  0.31087989751438977  1.0000
  H   H10       1.0  0.9480458539060167  0.0835050671767164  0.3119869654656569  1.0000
  H   H11       1.0  0.44807202012898983  0.5835587264364577  0.6879901713969331  1.0000
  H   H12       1.0  0.054070652315871805  0.9177364174239172  0.6891884898989602  1.0000
  H   H13       1.0  0.38069382539162433  0.43983874363456715  0.8634617779418859  1.0000
  H   H14       1.0  0.12175226649794271  0.06341838725033001  0.8649079337700131  1.0000
  H   H15       1.0  0.6217390564182994  0.5633816519576487  0.13501799536265927  1.0000
  H   H16       1.0  0.8806921041893858  0.9398243649009074  0.1366235809754244  1.0000
  H   H17       1.0  0.5417120512131675  0.2866246664447587  0.6970191256545772  1.0000
  H   H18       1.0  0.9604571460867246  0.21551611605711685  0.6978539649051355  1.0000
  H   H19       1.0  0.46045703248368136  0.7154593225057865  0.3022370006108375  1.0000
  H   H20       1.0  0.041680331978781716  0.7866238605252109  0.302881558548833  1.0000
  H   H21       1.0  0.3588400739081692  0.4775291699241463  0.3406008365425278  1.0000
  H   H22       1.0  0.14366778391287482  0.025506303981735798  0.3438479393552925  1.0000
  H   H23       1.0  0.6437656103372332  0.5255971214614805  0.6561339272970483  1.0000
  H   H24       1.0  0.8589305378122275  0.9774863199381087  0.6595099835715458  1.0000
  H   H25       1.0  0.5313801683902996  0.27791722303336286  0.47624815720559605  1.0000
  H   H26       1.0  0.9698719918493451  0.2218435541699861  0.4769086268184423  1.0000
  H   H27       1.0  0.469944817026736  0.721790599871909  0.5231636322514815  1.0000
  H   H28       1.0  0.03140342680828919  0.7779423853223901  0.523656760699069  1.0000
  H   H29       1.0  0.9468477238700999  0.4425934927129092  0.05719809842874918  1.0000
  H   H30       1.0  0.5475710247356957  0.05356796083215442  0.0587496980906081  1.0000
  H   H31       1.0  0.04739990307447071  0.5535616034698378  0.941127536355438  1.0000
  H   H32       1.0  0.4466885802999983  0.9425346305764248  0.9428808764909318  1.0000
  C   C1        1.0  0.8708516330614701  0.366266273740095  0.27688972918699045  1.0000
  C   C2        1.0  0.6265178682065198  0.13082259086640852  0.2779383931184967  1.0000
  C   C3        1.0  0.1264941723053283  0.6307906462365622  0.7219917715874473  1.0000
  C   C4        1.0  0.37083542888722587  0.8662844551247986  0.7231449328727348  1.0000
  C   C5        1.0  0.18635863740456673  0.15024491257066333  0.0333932009797024  1.0000
  C   C6        1.0  0.3179658277194192  0.3541320798820138  0.0326678306129011  1.0000
  C   C7        1.0  0.8179404356457597  0.8541461832719933  0.9673857618346273  1.0000
  C   C8        1.0  0.6863540811084761  0.6502913986272034  0.9665733116165214  1.0000
  C   C9        1.0  0.4070953820847052  0.26656634952606584  0.5284748275508732  1.0000
  C   C10       1.0  0.094417419900374  0.2333175431850449  0.5288641620383955  1.0000
  C   C11       1.0  0.5944272197677307  0.7332894079663959  0.47116891913614  1.0000
  C   C12       1.0  0.9071193412605113  0.7665804651036084  0.47145066929886775  1.0000
  C   C13       1.0  0.2513948426938697  0.2514895131866909  0.8461267107256772  1.0000
  C   C14       1.0  0.751368188997354  0.7514914381900722  0.1538802178931959  1.0000
  C   C15       1.0  0.8050692648540689  0.30326424832873766  0.163897037476822  1.0000
  C   C16       1.0  0.6894088023691296  0.19382504977925658  0.16433137383405944  1.0000
  C   C17       1.0  0.18928562845440672  0.6938054431869817  0.8356318378088544  1.0000
  C   C18       1.0  0.30494029040497145  0.8032687677200913  0.8361067401723403  1.0000
  C   C19       1.0  0.1797975557390288  0.14702688508673833  0.9105034987327228  1.0000
  C   C20       1.0  0.323309143797502  0.3564732600803922  0.9097565945857226  1.0000
  C   C21       1.0  0.8232866121640896  0.8564682476109337  0.09029848278161269  1.0000
  C   C22       1.0  0.6797695481801114  0.6470447681230026  0.089446479299248  1.0000
  C   C23       1.0  0.6359291958180435  0.1389078794420513  0.0563194731268553  1.0000
  C   C24       1.0  0.8580969797892876  0.3574603804334515  0.055486783180015195  1.0000
  C   C25       1.0  0.35792036933452914  0.857417322348603  0.9445550742479082  1.0000
  C   C26       1.0  0.13575693296767352  0.6388646099443918  0.9436011634429275  1.0000
  C   C27       1.0  0.25115324778059295  0.25091400993509444  0.7155507949674345  1.0000
  C   C28       1.0  0.7511532833627966  0.7508842883520046  0.2844604854048498  1.0000
  C   C29       1.0  0.4124494045844642  0.2704337876670238  0.65132263560627  1.0000
  C   C30       1.0  0.08958608328742908  0.23083833828464156  0.6517527990648091  1.0000
  C   C31       1.0  0.5895748494089617  0.730781067794311  0.3482831293788351  1.0000
  C   C32       1.0  0.9124825373039799  0.7704244012901994  0.3486249769695462  1.0000
  C   C33       1.0  0.6921738001645467  0.191781457654308  0.9486733984494149  1.0000
  C   C34       1.0  0.8011469134723724  0.30384534399891555  0.948278686336806  1.0000
  C   C35       1.0  0.3009708080802014  0.8037471673980151  0.051732783702647084  1.0000
  C   C36       1.0  0.19200349240230707  0.6916879646046467  0.0512846595639971  1.0000
  N   N1        1.0  0.2506427356805148  0.24940260235725023  0.467683343492034  1.0000
  N   N2        1.0  0.7506904360734056  0.7494190923622597  0.532317112880058  1.0000
  N   N3        1.0  0.252824849571077  0.2523182971494294  0.0943751544948555  1.0000
  N   N4        1.0  0.7528014843395354  0.7523508403227126  0.9056644937669487  1.0000
  O   O1        1.0  0.04314542560084789  0.3775612854462338  0.2908773103579563  1.0000
  O   O2        1.0  0.45471679793865155  0.11627375272898627  0.2942552696142258  1.0000
  O   O3        1.0  0.9546945937550646  0.6162202116088691  0.7056497695894491  1.0000
  O   O4        1.0  0.5431262630525351  0.8775939165299602  0.7091641292110749  1.0000
  O   O5        1.0  0.421476420895182  0.42545204644397927  0.2827037959653609  1.0000
  O   O6        1.0  0.08077720391398198  0.07612714695135743  0.2849598072029309  1.0000
  O   O7        1.0  0.580813665059459  0.5761934306597071  0.7150357094330387  1.0000
  O   O8        1.0  0.9214958768826733  0.9253758503489635  0.7173913822961281  1.0000
  O   O9        1.0  0.754856650354192  0.40777628467084526  0.349447767692169  1.0000
  O   O10       1.0  0.7451914097944298  0.09236314804860513  0.350034883477143  1.0000
  O   O11       1.0  0.24523569340620807  0.5923528801889902  0.6499331530337074  1.0000
  O   O12       1.0  0.2548534248422598  0.9077730872807237  0.650585506108733  1.0000
