data_image0
_chemical_formula_structural       Mg6H72C90N6O24
_chemical_formula_sum              "Mg6 H72 C90 N6 O24"
_cell_length_a       6.725600880395562
_cell_length_b       46.24089652095342
_cell_length_c       46.234729073131156
_cell_angle_alpha    119.75984734942615
_cell_angle_beta     92.7583627205481
_cell_angle_gamma    92.80288547802898

_space_group_name_H-M_alt    "P 1"
_space_group_IT_number       1

loop_
  _space_group_symop_operation_xyz
  'x, y, z'

loop_
  _atom_site_type_symbol
  _atom_site_label
  _atom_site_symmetry_multiplicity
  _atom_site_fract_x
  _atom_site_fract_y
  _atom_site_fract_z
  _atom_site_occupancy
  Mg  Mg1       1.0  0.4231643534208588  0.6696479521814709  0.31165414550443427  1.0000
  Mg  Mg2       1.0  0.6922946915462376  0.3301640261942397  0.6881536303288911  1.0000
  Mg  Mg3       1.0  0.11127300403259008  0.6883121854037101  0.3578459102919497  1.0000
  Mg  Mg4       1.0  0.004375232559041832  0.31186454561802185  0.6421614270684586  1.0000
  Mg  Mg5       1.0  0.7533661002991252  0.6421249707902277  0.330327280562571  1.0000
  Mg  Mg6       1.0  0.36242588179415247  0.35785849716958046  0.6698342454849212  1.0000
  H   H1        1.0  0.5846292803996108  0.07637800768598883  0.5757213074949163  1.0000
  H   H2        1.0  0.19177613634089855  0.040320926019362005  0.5438822136479189  1.0000
  H   H3        1.0  0.2847607006270678  0.0388315585305463  0.5795603129580584  1.0000
  H   H4        1.0  0.37850420446875427  0.9891707246446302  0.5306521097563461  1.0000
  H   H5        1.0  0.5975521097373715  0.015377214282445106  0.5515840228668694  1.0000
  H   H6        1.0  0.5775197277063668  0.037185702073522016  0.5105186861864156  1.0000
  H   H7        1.0  0.3682546204992719  0.008458553580133804  0.48904250562501533  1.0000
  H   H8        1.0  0.57772503369565  0.9609837179546259  0.4787295456942928  1.0000
  H   H9        1.0  0.7873247898530594  0.989790149003767  0.4996961488398245  1.0000
  H   H10       1.0  0.7761512908428828  0.008105490698319801  0.4574680902785957  1.0000
  H   H11       1.0  0.552905375796009  0.9827821027088182  0.43752257703315  1.0000
  H   H12       1.0  0.9551402853587307  0.9560716429726174  0.44366224443437147  1.0000
  H   H13       1.0  0.8583984300766548  0.957554165740746  0.4081536203776327  1.0000
  H   H14       1.0  0.5565216063676105  0.9215338334246825  0.4136447398230135  1.0000
  H   H15       1.0  0.9080571637883494  0.8409543609040852  0.41046354082410375  1.0000
  H   H16       1.0  0.1762414992455136  0.8311185378130334  0.38074432324398805  1.0000
  H   H17       1.0  0.36758896499089394  0.8840444389979967  0.402194807846769  1.0000
  H   H18       1.0  0.1632020936017825  0.7685934940623157  0.3598275025173693  1.0000
  H   H19       1.0  0.8887185053258976  0.7810276624125906  0.39462539349395354  1.0000
  H   H20       1.0  0.2197987551632608  0.15730271019767633  0.5832212415013488  1.0000
  H   H21       1.0  0.9524323453825332  0.16862154255036907  0.6130262450860613  1.0000
  H   H22       1.0  0.7684263230325711  0.11460497523260221  0.5883094990360291  1.0000
  H   H23       1.0  0.9573052286598838  0.23138598368371535  0.6372666565272455  1.0000
  H   H24       1.0  0.23130752894264364  0.21828705176623947  0.6025677029665389  1.0000
  H   H25       1.0  0.009030681260405649  0.4242439813563694  0.5006909721920894  1.0000
  H   H26       1.0  0.648460372685591  0.4563020114160352  0.4967596185075324  1.0000
  H   H27       1.0  0.7047270320041434  0.42058751947585193  0.4595413790924924  1.0000
  H   H28       1.0  0.8478987921917992  0.4693789311659273  0.45863385908380394  1.0000
  H   H29       1.0  0.0458364882186402  0.44838605985187036  0.46383428136987703  1.0000
  H   H30       1.0  0.0675846913944014  0.48952780914844857  0.5267244124964209  1.0000
  H   H31       1.0  0.8803842690882392  0.5110757769104737  0.5194654919464057  1.0000
  H   H32       1.0  0.10052555356330134  0.52116765158128  0.48217437903544197  1.0000
  H   H33       1.0  0.2886837802376617  0.5001701639186961  0.4900513804102787  1.0000
  H   H34       1.0  0.3201179581441167  0.5425039992504566  0.5505580092475314  1.0000
  H   H35       1.0  0.11676109013828308  0.5624165187140308  0.5451666668519835  1.0000
  H   H36       1.0  0.5126303046572007  0.5563037674886859  0.5122233063151287  1.0000
  H   H37       1.0  0.4515646446631579  0.591786159925924  0.5492389430564303  1.0000
  H   H38       1.0  0.1437130860226361  0.5862981444085021  0.507847713928726  1.0000
  H   H39       1.0  0.49776642866447673  0.5896178437649696  0.43040828160473427  1.0000
  H   H40       1.0  0.795881340081131  0.6193875998832965  0.45049323823839427  1.0000
  H   H41       1.0  0.965775193704303  0.597831285478769  0.48185388952774844  1.0000
  H   H42       1.0  0.8033813405676752  0.6402820026134606  0.4088466698657172  1.0000
  H   H43       1.0  0.4940410188050919  0.6055023757631017  0.38634189918222717  1.0000
  H   H44       1.0  0.6374319266399625  0.41673957699936887  0.5742224145392711  1.0000
  H   H45       1.0  0.3398523397557015  0.3867980168269299  0.5554947315929014  1.0000
  H   H46       1.0  0.18051264443939638  0.41154920815032636  0.5262474696055933  1.0000
  H   H47       1.0  0.3206576394469778  0.3626212550004766  0.5941417062947283  1.0000
  H   H48       1.0  0.6296151527541698  0.3974296625069442  0.615844795669453  1.0000
  H   H49       1.0  0.5079743145162399  0.4994120654314643  0.9235741867120526  1.0000
  H   H50       1.0  0.1517316732995369  0.5035558256530734  0.9597414900196455  1.0000
  H   H51       1.0  0.2458269077602467  0.5407255346766393  0.9611842899329306  1.0000
  H   H52       1.0  0.3902083923149036  0.5415264979730168  0.010827083607310307  1.0000
  H   H53       1.0  0.582560336431051  0.5362431404410871  0.9845288430909777  1.0000
  H   H54       1.0  0.5410426279435044  0.47340573493323046  0.9627638084976412  1.0000
  H   H55       1.0  0.3604475313824906  0.4805993903156392  0.9914767390320309  1.0000
  H   H56       1.0  0.6172762387113908  0.517772414227217  0.03897922852267757  1.0000
  H   H57       1.0  0.7981778400193708  0.5099865215678394  0.010194238096943435  1.0000
  H   H58       1.0  0.7684486869504924  0.44941161417161624  0.9918410638933537  1.0000
  H   H59       1.0  0.5707631207510957  0.4548058943646396  0.01721358155358396  1.0000
  H   H60       1.0  0.9999506417543957  0.48760658816068086  0.043871490230380214  1.0000
  H   H61       1.0  0.9014239682240585  0.45061227063239073  0.04235868589784536  1.0000
  H   H62       1.0  0.6357331962311864  0.49216398545112866  0.07839034780193556  1.0000
  H   H63       1.0  0.06794555895899633  0.5694434243781287  0.15905745762012208  1.0000
  H   H64       1.0  0.3458287136158377  0.5494756520175558  0.16883604844164785  1.0000
  H   H65       1.0  0.48439885794827137  0.518001810997504  0.11593480129430142  1.0000
  H   H66       1.0  0.3948684634219149  0.5911600470001092  0.23131721062512167  1.0000
  H   H67       1.0  0.10815815553799982  0.6136204839030557  0.218976974566708  1.0000
  H   H68       1.0  0.06219501843882829  0.4259513212903202  0.8426857969734913  1.0000
  H   H69       1.0  0.7837297226187732  0.44443739898830625  0.8314305816786104  1.0000
  H   H70       1.0  0.6536512345122676  0.4736963884000432  0.8854416575886221  1.0000
  H   H71       1.0  0.7260477428322218  0.40587230857130413  0.7686571315176707  1.0000
  H   H72       1.0  0.01269976545650314  0.38437859204487523  0.7816918912433906  1.0000
  C   C1        1.0  0.34258343455292833  0.10078972193256418  0.5733621473986972  1.0000
  C   C2        1.0  0.3298672369511451  0.04127739188177771  0.5581791580455189  1.0000
  C   C3        1.0  0.4580792070052055  0.013157499050549904  0.5367221738052095  1.0000
  C   C4        1.0  0.5082589693468691  0.0125327430678723  0.504539106092551  1.0000
  C   C5        1.0  0.6463446278086521  0.9855686790401278  0.4843731926443767  1.0000
  C   C6        1.0  0.6935953422714083  0.9844891236780459  0.4518591452186629  1.0000
  C   C7        1.0  0.815852302476799  0.9556151202452697  0.4299237592544075  1.0000
  C   C8        1.0  0.79423999104786  0.8967119802335549  0.41683318523426055  1.0000
  C   C9        1.0  0.6585844070577807  0.8658537283526827  0.40657039479762624  1.0000
  C   C10       1.0  0.7478896715445985  0.8383617704363857  0.4037236708216696  1.0000
  C   C11       1.0  0.6373268497479079  0.8071899388153274  0.39159163380426093  1.0000
  C   C12       1.0  0.4271828940841974  0.8036073442263008  0.38198792070694776  1.0000
  C   C13       1.0  0.33643941357385654  0.832685663225334  0.3868646217385603  1.0000
  C   C14       1.0  0.44807301639229996  0.8627652842025384  0.39877723445162877  1.0000
  C   C15       1.0  0.32222986949633997  0.7717012566413076  0.3675774047595511  1.0000
  C   C16       1.0  0.41676506628030574  0.7432588354211946  0.3614264071785343  1.0000
  C   C17       1.0  0.6277508091174084  0.7473089006683011  0.3719830026940303  1.0000
  C   C18       1.0  0.7301383589841564  0.7787746505913306  0.38700667020610524  1.0000
  C   C19       1.0  0.7462456115246213  0.7190687732257218  0.36596053905798714  1.0000
  C   C20       1.0  0.4738493772391905  0.1324720362365142  0.5853212344194034  1.0000
  C   C21       1.0  0.3801254090961877  0.16025305141795343  0.5899940574582487  1.0000
  C   C22       1.0  0.4864184795224987  0.19203894376222053  0.6039279323888422  1.0000
  C   C23       1.0  0.6967656753838369  0.19587104349307088  0.6135040339182326  1.0000
  C   C24       1.0  0.7919852538926476  0.16663866650969797  0.6068327535429746  1.0000
  C   C25       1.0  0.6845842762470016  0.13597798250867044  0.5931452331945621  1.0000
  C   C26       1.0  0.7981761722095869  0.22812196721128697  0.6295598046835452  1.0000
  C   C27       1.0  0.7004325628668794  0.2566454918066868  0.6371814484627407  1.0000
  C   C28       1.0  0.48931504917010943  0.252458173032693  0.6266448912471463  1.0000
  C   C29       1.0  0.3900213452397097  0.22067831636086765  0.6101824702290628  1.0000
  C   C30       1.0  0.36864622182763185  0.2807501998077058  0.6336907256942511  1.0000
  C   C31       1.0  0.7698033217474249  0.4266556357161165  0.5275943687876606  1.0000
  C   C32       1.0  0.7718307479479595  0.4419393121441006  0.4833249785569365  1.0000
  C   C33       1.0  0.9215460754122234  0.4633120125674778  0.4765381194599385  1.0000
  C   C34       1.0  0.00454145920497952  0.4954920108701657  0.5080305808882031  1.0000
  C   C35       1.0  0.16321022879620284  0.5155439268783228  0.5011421673423585  1.0000
  C   C36       1.0  0.24311572715886606  0.5480768484779049  0.5325323185529385  1.0000
  C   C37       1.0  0.3871045262583693  0.5700211750564322  0.5255456922034869  1.0000
  C   C38       1.0  0.37790714789161944  0.5831496762533844  0.4797540623481069  1.0000
  C   C39       1.0  0.2522799088839209  0.5934640139786823  0.45922789370546024  1.0000
  C   C40       1.0  0.3443257597216134  0.5963560859929588  0.43458206465129495  1.0000
  C   C41       1.0  0.2458117692511835  0.6085097153193999  0.41557904594769474  1.0000
  C   C42       1.0  0.04532342493465083  0.6181205218093098  0.4216537025056867  1.0000
  C   C43       1.0  0.9498829968965908  0.6132438898662116  0.44588493325145623  1.0000
  C   C44       1.0  0.049637872075678026  0.6012813419384032  0.46399418654955593  1.0000
  C   C45       1.0  0.9545770040507693  0.6325119880486696  0.4041544503186501  1.0000
  C   C46       1.0  0.05504370832133539  0.6386141390820799  0.38178918470561757  1.0000
  C   C47       1.0  0.2554840260082686  0.6280633574903548  0.3752557940256552  1.0000
  C   C48       1.0  0.3430489105056296  0.6130903616666714  0.3917229786510534  1.0000
  C   C49       1.0  0.3799385906102233  0.6340555456650706  0.3529978615086622  1.0000
  C   C50       1.0  0.8891970191225841  0.4146067053886357  0.5472187518722579  1.0000
  C   C51       1.0  0.7908908801158462  0.40994657027577136  0.5703548755526314  1.0000
  C   C52       1.0  0.8832684908895416  0.39599086484355445  0.5881719750594102  1.0000
  C   C53       1.0  0.08394421092896213  0.38637855847663627  0.5823737365744108  1.0000
  C   C54       1.0  0.18570199817273905  0.39301798990781833  0.5597634945750444  1.0000
  C   C55       1.0  0.09195563020379197  0.40673412137466897  0.5428249718383997  1.0000
  C   C56       1.0  0.1692064927792956  0.3703452758204406  0.5985914728401411  1.0000
  C   C57       1.0  0.06379518274958683  0.3627638459511502  0.6195362311892938  1.0000
  C   C58       1.0  0.8632665444123122  0.373316123867042  0.6259113517566635  1.0000
  C   C59       1.0  0.7805821776663963  0.389763670498354  0.6105814070082759  1.0000
  C   C60       1.0  0.7354191877850484  0.3663044101659666  0.6471798405651159  1.0000
  C   C61       1.0  0.24161460840394267  0.47252448877090814  0.8992395354004757  1.0000
  C   C62       1.0  0.2886943362091472  0.5169154762307784  0.9587371019661576  1.0000
  C   C63       1.0  0.4454508658025206  0.5236056706790962  0.986814446540187  1.0000
  C   C64       1.0  0.496409401981275  0.49205242509267333  0.9874248827514622  1.0000
  C   C65       1.0  0.6614280052223549  0.4988564599374783  0.014399727224159302  1.0000
  C   C66       1.0  0.7097141499448227  0.4674261298646203  0.01546828365124511  1.0000
  C   C67       1.0  0.860981359948717  0.47433665889937515  0.04432424973568768  1.0000
  C   C68       1.0  0.8985258367985623  0.5200504490102702  0.10328261264560724  1.0000
  C   C69       1.0  0.7936428329906705  0.5406124412599099  0.1341422447169835  1.0000
  C   C70       1.0  0.9103506088790353  0.565277679167089  0.16164085078560225  1.0000
  C   C71       1.0  0.8308179758490939  0.5843422450176876  0.19279593106367107  1.0000
  C   C72       1.0  0.6241826524414974  0.5783035902782103  0.19635647570343204  1.0000
  C   C73       1.0  0.5045193349214971  0.5540506107747021  0.16728066947739265  1.0000
  C   C74       1.0  0.5861872971916143  0.5358775371029694  0.1372142525733367  1.0000
  C   C75       1.0  0.5508463119986686  0.5958377682924976  0.22823646742387652  1.0000
  C   C76       1.0  0.6735820106480903  0.6182153559709748  0.2566876152073832  1.0000
  C   C77       1.0  0.8805659583840466  0.6247367904187372  0.2526524317363369  1.0000
  C   C78       1.0  0.9518112468582277  0.6082430389701161  0.22121086680856195  1.0000
  C   C79       1.0  0.027193692428390672  0.6469911972764352  0.2809009883386083  1.0000
  C   C80       1.0  0.34115724717268153  0.45285016190772626  0.8675421017293559  1.0000
  C   C81       1.0  0.2195845366122029  0.4297803211970574  0.8397444646618129  1.0000
  C   C82       1.0  0.2941544090051665  0.4119476677592432  0.8079627931714911  1.0000
  C   C83       1.0  0.5007672860173713  0.41767283570169406  0.8041469790179576  1.0000
  C   C84       1.0  0.6252335926761392  0.44022667319060105  0.8333954723381043  1.0000
  C   C85       1.0  0.5484228161695414  0.45717358371242517  0.8640538135881571  1.0000
  C   C86       1.0  0.5700595908732425  0.4014420777596471  0.7719080245540584  1.0000
  C   C87       1.0  0.4438535890862739  0.380514159120807  0.7433755307290185  1.0000
  C   C88       1.0  0.23678221028566787  0.37420496498437933  0.7475509204254963  1.0000
  C   C89       1.0  0.16913082225660508  0.38957403719266653  0.779314551607783  1.0000
  C   C90       1.0  0.08789607258371035  0.35290901432898647  0.7192596888785161  1.0000
  N   N1        1.0  0.435208276806847  0.0738373684608788  0.5699063082850486  1.0000
  N   N2        1.0  0.7061928336000636  0.9235492531468739  0.418996406245306  1.0000
  N   N3        1.0  0.8656559873050326  0.43016148666737297  0.5040912002626428  1.0000
  N   N4        1.0  0.2880287298478877  0.5809586487807722  0.5044562039454519  1.0000
  N   N5        1.0  0.36118164124668783  0.4960945751026457  0.9261551687168535  1.0000
  N   N6        1.0  0.7835091266453349  0.4954454691130794  0.07640518186904909  1.0000
  O   O1        1.0  0.9238125283435183  0.7242516823714027  0.37922712188632357  1.0000
  O   O2        1.0  0.6679971398257933  0.688996577747389  0.3457802001419026  1.0000
  O   O3        1.0  0.3134884070904392  0.7130790937389407  0.34572819768516905  1.0000
  O   O4        1.0  0.1906970973120323  0.2756645232810087  0.6205912413948127  1.0000
  O   O5        1.0  0.44570620194575383  0.3107770921045231  0.6543983495427171  1.0000
  O   O6        1.0  0.8018687403629843  0.2869591314743333  0.6540797749355676  1.0000
  O   O7        1.0  0.1588024827225425  0.09936654501478873  0.5674202424371302  1.0000
  O   O8        1.0  0.9777384610492988  0.8975844101034983  0.4226236159897996  1.0000
  O   O9        1.0  0.5442325581509664  0.6207872695099114  0.3449095168451495  1.0000
  O   O10       1.0  0.32191639393674626  0.6542088793662587  0.3430717291592132  1.0000
  O   O11       1.0  0.9672946479187206  0.6542617729298429  0.36726491949300333  1.0000
  O   O12       1.0  0.5706007235005403  0.3794141786304835  0.6551911723440044  1.0000
  O   O13       1.0  0.7915466470890922  0.3456070637430671  0.6565204882297097  1.0000
  O   O14       1.0  0.14826765041605947  0.3459021845278444  0.6329893254079693  1.0000
  O   O15       1.0  0.5920797066866116  0.43264180089230575  0.5322031619716585  1.0000
  O   O16       1.0  0.5555602559826556  0.5773560278339859  0.474758877381774  1.0000
  O   O17       1.0  0.19963293642235422  0.6550911376980085  0.27573447413826835  1.0000
  O   O18       1.0  0.9789170160389844  0.6568923086057907  0.3109713147841902  1.0000
  O   O19       1.0  0.6003209901229314  0.6327466308340136  0.2868579467362623  1.0000
  O   O20       1.0  0.9149718820481997  0.3449048067067225  0.7243503870158748  1.0000
  O   O21       1.0  0.13505914009284942  0.34350886460790525  0.689220684493357  1.0000
  O   O22       1.0  0.5150918345302102  0.3670280909774206  0.713064022392139  1.0000
  O   O23       1.0  0.05937851332232214  0.46791674313670484  0.9007071889704792  1.0000
  O   O24       1.0  0.08124789719627057  0.5249431833656858  0.10244075971893112  1.0000
