data_image0
_chemical_formula_structural       Zn4H54C75N20
_chemical_formula_sum              "Zn4 H54 C75 N20"
_cell_length_a       20.469279756739517
_cell_length_b       18.618295570339153
_cell_length_c       21.473215357985357
_cell_angle_alpha    99.3183448562411
_cell_angle_beta     111.1539979117481
_cell_angle_gamma    115.39285031123228

_space_group_name_H-M_alt    "P 1"
_space_group_IT_number       1

loop_
  _space_group_symop_operation_xyz
  'x, y, z'

loop_
  _atom_site_type_symbol
  _atom_site_label
  _atom_site_symmetry_multiplicity
  _atom_site_fract_x
  _atom_site_fract_y
  _atom_site_fract_z
  _atom_site_occupancy
  Zn  Zn1       1.0  0.8780467619510901  0.9147544897855799  0.5071077615670633  1.0000
  Zn  Zn2       1.0  0.12986047887932978  0.13165633771295407  0.4969444162527524  1.0000
  Zn  Zn3       1.0  0.08708888858608077  0.9995332660690086  0.5877957144222847  1.0000
  Zn  Zn4       1.0  0.9244693054347903  0.030273075151001208  0.390597010924921  1.0000
  H   H1        1.0  0.868047216891398  0.9003297558690307  0.6591907687860256  1.0000
  H   H2        1.0  0.24057897196396277  0.08916811572068183  0.45789178878049347  1.0000
  H   H3        1.0  0.08651191922333373  0.8373076732572219  0.5415599889750666  1.0000
  H   H4        1.0  0.9114811221987649  0.9439455370155799  0.24854178464302368  1.0000
  H   H5        1.0  0.17754534366205377  0.10723644557596405  0.35714728144397156  1.0000
  H   H6        1.0  0.8402301804471789  0.7254370820906575  0.5166451947543464  1.0000
  H   H7        1.0  0.7545969456873608  0.8915269098673452  0.23705903477781484  1.0000
  H   H8        1.0  0.26857239679458894  0.0012762589466106416  0.634911714155784  1.0000
  H   H9        1.0  0.6175531353759708  0.18216975825609452  0.5163370286332524  1.0000
  H   H10       1.0  0.7177767808915333  0.15637587974299563  0.495947404089577  1.0000
  H   H11       1.0  0.702251781404108  0.9989169252709406  0.6229867215486992  1.0000
  H   H12       1.0  0.14611988694745287  0.30846608353049026  0.575126972110489  1.0000
  H   H13       1.0  0.602099384878464  0.024619450497610405  0.6433094177700128  1.0000
  H   H14       1.0  0.551744879352718  0.1005741837032447  0.6843306188743838  1.0000
  H   H15       1.0  0.41884905516322135  0.07658585961998907  0.6712113086978916  1.0000
  H   H16       1.0  0.3463887382226075  0.07401635517673813  0.45537171308260577  1.0000
  H   H17       1.0  0.47909952724553756  0.09863560122234828  0.4688690862112566  1.0000
  H   H18       1.0  0.12764105075010693  0.55070143881391  0.6362263082964077  1.0000
  H   H19       1.0  0.13906743583135037  0.42493083388957603  0.6119851611573566  1.0000
  H   H20       1.0  0.8854556535783117  0.26190369224015353  0.5598129434828819  1.0000
  H   H21       1.0  0.8747491898735473  0.38882580150198726  0.5851631265193048  1.0000
  H   H22       1.0  0.8605758008213867  0.46776829772300504  0.516702565459056  1.0000
  H   H23       1.0  0.09949714938957747  0.13682912856823046  0.7059822795129803  1.0000
  H   H24       1.0  0.8469071046428382  0.5827867401559604  0.48288790018379046  1.0000
  H   H25       1.0  0.09694578783660292  0.7689864974685181  0.6484283228326646  1.0000
  H   H26       1.0  0.11067908826288429  0.6541532823515087  0.6832571944330822  1.0000
  H   H27       1.0  0.21744861035119814  0.23776935163934354  0.839194120532639  1.0000
  H   H28       1.0  0.301326286336888  0.3550051457786412  0.9605395833838841  1.0000
  H   H29       1.0  0.5175598967480468  0.49476160623139276  0.1463102388577511  1.0000
  H   H30       1.0  0.6503104777010051  0.6140701001363313  0.253001915021258  1.0000
  H   H31       1.0  0.2675379758581116  0.426062583578606  0.7414908000849749  1.0000
  H   H32       1.0  0.4782227898107578  0.6773654342116519  0.06580216277906471  1.0000
  H   H33       1.0  0.3503464005620883  0.5429156957034994  0.863647012789542  1.0000
  H   H34       1.0  0.7116343629176213  0.03784542884289272  0.4149988706931396  1.0000
  H   H35       1.0  0.6078404401538364  0.7970496020288851  0.17367168806597277  1.0000
  H   H36       1.0  0.930624552397667  0.9658246102843864  0.14112766376256772  1.0000
  H   H37       1.0  0.8500114036693915  0.7500541827476896  0.8255513288259309  1.0000
  H   H38       1.0  0.8517558619039745  0.7853348025525761  0.718555739223035  1.0000
  H   H39       1.0  0.15326276927163462  0.9682291903073765  0.2569619287181056  1.0000
  H   H40       1.0  0.1147793766984506  0.9095857751707899  0.945492076248705  1.0000
  H   H41       1.0  0.14415331045193366  0.9078622342048636  0.13965234364133752  1.0000
  H   H42       1.0  0.11741538881408789  0.9453179139369114  0.8397042735470918  1.0000
  H   H43       1.0  0.28187386970283507  0.3160201532114046  0.6625807475484605  1.0000
  H   H44       1.0  0.8334692389302845  0.009325131010825745  0.6128146489114455  1.0000
  H   H45       1.0  0.8807754527701022  0.14570850640866698  0.4822032876763486  1.0000
  H   H46       1.0  0.11452615418832578  0.9478526793907208  0.7299425197286026  1.0000
  H   H47       1.0  0.7501968684495991  0.7435109562487983  0.3733897189497384  1.0000
  H   H48       1.0  0.8399188960581226  0.8939869871152838  0.8642670221281961  1.0000
  H   H49       1.0  0.8126896711715615  0.9551445469857783  0.910290864644665  1.0000
  H   H50       1.0  0.8883799808917914  0.005968516061486232  0.8839860748968391  1.0000
  H   H51       1.0  0.9584140759465355  0.03572181002657249  0.016579500089306965  1.0000
  H   H52       1.0  0.983122433969868  0.9739239453195979  0.9694090949823178  1.0000
  H   H53       1.0  0.8668348985073208  0.8395935755784762  0.9656532367094571  1.0000
  H   H54       1.0  0.8549699911461346  0.9087645648515948  0.021423912148236593  1.0000
  C   C1        1.0  0.9293303635003056  0.9176698782127206  0.6674648837674937  1.0000
  C   C2        1.0  0.012964032440756093  0.25849900721782154  0.5457935592977492  1.0000
  C   C3        1.0  0.20350278833871727  0.25633064641314734  0.7129897552362364  1.0000
  C   C4        1.0  0.7585056820502414  0.0415995506368887  0.5288945842119758  1.0000
  C   C5        1.0  0.7635408607512771  0.791847095331278  0.3497279308275407  1.0000
  C   C6        1.0  0.23475783302475856  0.06544986146403896  0.49973198515365175  1.0000
  C   C7        1.0  0.025530336021425595  0.8215479490067495  0.5330180131202553  1.0000
  C   C8        1.0  0.9765067017727984  0.9911818821561412  0.28516392235147237  1.0000
  C   C9        1.0  0.1122759423613005  0.07309424178671972  0.3414176788611982  1.0000
  C   C10       1.0  0.8994597082031958  0.7638919566774194  0.5192155252910593  1.0000
  C   C11       1.0  0.7648268485548686  0.8672786236645113  0.2801070933637818  1.0000
  C   C12       1.0  0.08139875946382348  0.25800846101113006  0.5451463746424993  1.0000
  C   C13       1.0  0.24975120800346673  0.021865422283120526  0.5906431358601268  1.0000
  C   C14       1.0  0.7179259465481349  0.7856333529748982  0.27965721451548115  1.0000
  C   C15       1.0  0.29035921886946875  0.053435383187341805  0.5515991021521954  1.0000
  C   C16       1.0  0.9660716275093718  0.7516270335000429  0.5380658015959838  1.0000
  C   C17       1.0  0.044719762737941  0.009586655477036706  0.27455451741546  1.0000
  C   C18       1.0  0.6354632479988781  0.14131991420300252  0.5395461157826631  1.0000
  C   C19       1.0  0.6922636573283255  0.12696432977962502  0.52822575682395  1.0000
  C   C20       1.0  0.7150899757461032  0.07244165735442455  0.5552471322204794  1.0000
  C   C21       1.0  0.6853505639248069  0.04086653572828417  0.6007463639199528  1.0000
  C   C22       1.0  0.6286822424744826  0.05550969802675352  0.6122341086771357  1.0000
  C   C23       1.0  0.13886975325048206  0.17034097867414036  0.6845896357141682  1.0000
  C   C24       1.0  0.5991011104936489  0.10225722707497208  0.5788096037026306  1.0000
  C   C25       1.0  0.5065610801299129  0.09403837305374216  0.6335863054352232  1.0000
  C   C26       1.0  0.4311641915998976  0.08012014925191835  0.626056817275682  1.0000
  C   C27       1.0  0.37103564089694874  0.07126907646733117  0.561606498889887  1.0000
  C   C28       1.0  0.391510856816943  0.08094551841369937  0.5063575158467657  1.0000
  C   C29       1.0  0.4669121765976952  0.09537429676062466  0.5140806369857954  1.0000
  C   C30       1.0  0.5256400775944527  0.10020700589294063  0.5771944507144723  1.0000
  C   C31       1.0  0.07448816105428338  0.48763617167887247  0.6206440884907423  1.0000
  C   C32       1.0  0.08065827998382959  0.41599120615139656  0.606298270897092  1.0000
  C   C33       1.0  0.0113050623722231  0.33262676313326983  0.578461743215385  1.0000
  C   C34       1.0  0.7478658944265318  0.02517574231634264  0.4579583207792908  1.0000
  C   C35       1.0  0.9387744446061532  0.32511337374020144  0.57576336366251  1.0000
  C   C36       1.0  0.9327098217260569  0.3969922330951406  0.5901439684130808  1.0000
  C   C37       1.0  0.9987394457391544  0.4793371689791997  0.6079327327483951  1.0000
  C   C38       1.0  0.9122445569256568  0.5340648967945469  0.5470319890498344  1.0000
  C   C39       1.0  0.9046588057882515  0.5988701889103824  0.5275014208443948  1.0000
  C   C40       1.0  0.9720825410548599  0.6840095045554905  0.5611689180188506  1.0000
  C   C41       1.0  0.0454136014074749  0.7024708836120441  0.6187113649522189  1.0000
  C   C42       1.0  0.05287763360658459  0.6376571546976139  0.6384484672297149  1.0000
  C   C43       1.0  0.9873855999110006  0.5513388527392354  0.6010458491568615  1.0000
  C   C44       1.0  0.6395620465180939  0.7141679684116299  0.22008748991776622  1.0000
  C   C45       1.0  0.23131817137424804  0.26148064072867083  0.6616877329604449  1.0000
  C   C46       1.0  0.5889766902128599  0.730659899941813  0.1670142225897493  1.0000
  C   C47       1.0  0.5162647377039844  0.6646485789077019  0.10745314739028082  1.0000
  C   C48       1.0  0.491028359774397  0.5788928278780363  0.0994044823847844  1.0000
  C   C49       1.0  0.5384134084800889  0.5616460682377138  0.1536269545204191  1.0000
  C   C50       1.0  0.6120835359520385  0.6283722306858198  0.21292187587292943  1.0000
  C   C51       1.0  0.29286073205032176  0.36951664422876024  0.912081617344988  1.0000
  C   C52       1.0  0.24640747250304423  0.30474239262785124  0.8443880991632327  1.0000
  C   C53       1.0  0.333455599517805  0.45582370731333566  0.9190276111735899  1.0000
  C   C54       1.0  0.24012574647032633  0.3238180870889878  0.7821672690128664  1.0000
  C   C55       1.0  0.27530355576821114  0.4103059589843951  0.7894257689257245  1.0000
  C   C56       1.0  0.8078140152558361  0.00960366365107747  0.5589316770577142  1.0000
  C   C57       1.0  0.3206115770316983  0.47550997348118795  0.8568914029860437  1.0000
  C   C58       1.0  0.9844710024191057  0.8716066823995163  0.772801865365622  1.0000
  C   C59       1.0  0.0586303535916812  0.9012746460502331  0.8360079840703348  1.0000
  C   C60       1.0  0.0578253634752031  0.881448051501238  0.8950931314665381  1.0000
  C   C61       1.0  0.9818193918406949  0.8300928111234926  0.8926481049272043  1.0000
  C   C62       1.0  0.9081734105510221  0.7920254860770017  0.8273006123439544  1.0000
  C   C63       1.0  0.9094739714185704  0.8127891054190995  0.7682189096970831  1.0000
  C   C64       1.0  0.967969668816025  0.9135944611530465  0.07445368733126408  1.0000
  C   C65       1.0  0.9763484355351152  0.9502215985468611  0.14109158701893418  1.0000
  C   C66       1.0  0.030321250507924394  0.897602518391473  0.07486234447410571  1.0000
  C   C67       1.0  0.9460290910307803  0.17553336005883588  0.4986477699086577  1.0000
  C   C68       1.0  0.041835901429479315  0.9711821587112442  0.20763694066144472  1.0000
  C   C69       1.0  0.10221753272237069  0.9542554849949032  0.20655307905260403  1.0000
  C   C70       1.0  0.0967433468649617  0.9194119344815168  0.14127482271164388  1.0000
  C   C71       1.0  0.055409849403375185  0.9427730937822931  0.704584908240392  1.0000
  C   C72       1.0  0.9879085506208797  0.9062121366138886  0.7172447657994212  1.0000
  C   C73       1.0  0.899871372123343  0.903334792362877  0.0074467537061622124  1.0000
  C   C74       1.0  0.9320449375195068  0.9722243705786655  0.9766824382316555  1.0000
  C   C75       1.0  0.8645080142933208  0.956103559962358  0.9049354309669579  1.0000
  N   N1        1.0  0.9595223217020177  0.957707450261808  0.6284243128258782  1.0000
  N   N2        1.0  0.16709287697309347  0.04408380017692792  0.5077724655106906  1.0000
  N   N3        1.0  0.9970919143623929  0.8727800337157563  0.5137521808224504  1.0000
  N   N4        1.0  0.0015415890596130997  0.040206630883666605  0.3524294894246082  1.0000
  N   N5        1.0  0.08611975489834828  0.09185540534000583  0.38761933917286473  1.0000
  N   N6        1.0  0.919139981610655  0.8361342912400502  0.505699209865149  1.0000
  N   N7        1.0  0.8313776751431445  0.9167597520789317  0.34564499637511387  1.0000
  N   N8        1.0  0.17685498922105578  0.016979502064181407  0.5640956515526413  1.0000
  N   N9        1.0  0.4238487644464896  0.50720482518701  0.03708497291448503  1.0000
  N   N10       1.0  0.3930918785213109  0.5263886270266058  0.9842894683133708  1.0000
  N   N11       1.0  0.9721257788827771  0.8272799488994524  0.954110602803226  1.0000
  N   N12       1.0  0.057402282481071196  0.18163918022964515  0.5006089635116453  1.0000
  N   N13       1.0  0.038611166986612516  0.8750116921732813  0.013726964129375595  1.0000
  N   N14       1.0  0.12944508480939018  0.12812516906685537  0.6215741146399836  1.0000
  N   N15       1.0  0.7860768792365747  0.9862062640792788  0.4455855750789651  1.0000
  N   N16       1.0  0.18762484712168964  0.18460074912879781  0.6078957231501647  1.0000
  N   N17       1.0  0.8235288856833024  0.9770263229393527  0.508341050465873  1.0000
  N   N18       1.0  0.9735219225365339  0.13046449444456693  0.47191476298208807  1.0000
  N   N19       1.0  0.03749767762275271  0.9723582807536818  0.6517402349350333  1.0000
  N   N20       1.0  0.8310112602714881  0.8712554796072356  0.38927472146033903  1.0000
