data_image0
_chemical_formula_structural       Cd2H38C58N10O20
_chemical_formula_sum              "Cd2 H38 C58 N10 O20"
_cell_length_a       9.254138829186527
_cell_length_b       10.879698881892802
_cell_length_c       14.1
_cell_angle_alpha    87.86210683221346
_cell_angle_beta     72.90959968911358
_cell_angle_gamma    84.74054095887938

_space_group_name_H-M_alt    "P 1"
_space_group_IT_number       1

loop_
  _space_group_symop_operation_xyz
  'x, y, z'

loop_
  _atom_site_type_symbol
  _atom_site_label
  _atom_site_symmetry_multiplicity
  _atom_site_fract_x
  _atom_site_fract_y
  _atom_site_fract_z
  _atom_site_occupancy
  Cd  Cd1       1.0  0.2547228295691966  0.1802552198871936  0.4559698461426862  1.0000
  Cd  Cd2       1.0  0.7452708663942857  0.819747478102599  0.544031221197308  1.0000
  H   H1        1.0  0.5709867723080108  0.0792393731176873  0.6889964167691716  1.0000
  H   H2        1.0  0.42901426212456767  0.9207688633758482  0.31100378492309494  1.0000
  H   H3        1.0  0.8371344733397308  0.5300966552756918  0.9123819695339962  1.0000
  H   H4        1.0  0.16286638917738824  0.4699023503782698  0.0876178218035832  1.0000
  H   H5        1.0  0.142956212322666  0.0775879759169271  0.2765010675636859  1.0000
  H   H6        1.0  0.857040779336657  0.9224156451568178  0.7234993375318837  1.0000
  H   H7        1.0  0.31517307367229114  0.0670242031022354  0.01634823711436442  1.0000
  H   H8        1.0  0.6848276929844986  0.9329757256356785  0.9836529645818572  1.0000
  H   H9        1.0  0.6585181602717967  0.2866138766052728  0.8367838847786473  1.0000
  H   H10       1.0  0.3414845798414632  0.7133888213845196  0.16321969344488713  1.0000
  H   H11       1.0  0.4882528552777573  0.3460761759240469  0.15130525629607663  1.0000
  H   H12       1.0  0.511746589139662  0.6539255989817861  0.8486975657321665  1.0000
  H   H13       1.0  0.5639179967470651  0.28669603107753266  0.30104856691074394  1.0000
  H   H14       1.0  0.43608541438847226  0.7133002053245577  0.6989550678802916  1.0000
  H   H15       1.0  0.681518529793159  0.4856483165328528  0.25195887032150927  1.0000
  H   H16       1.0  0.3184801675468449  0.5143497660371495  0.748041365206035  1.0000
  H   H17       1.0  0.5518881272670059  0.6789947131115853  0.3462575746618485  1.0000
  H   H18       1.0  0.448108309035554  0.32100336945841695  0.6537388416554537  1.0000
  H   H19       1.0  0.3370231059125359  0.774813597197877  0.48067383645219053  1.0000
  H   H20       1.0  0.6629765302255349  0.22518633154004422  0.5193282925183383  1.0000
  H   H21       1.0  0.09816821667984496  0.7538032832311502  0.6170886574914718  1.0000
  H   H22       1.0  0.9018290625604521  0.24619756859072345  0.38291177184731856  1.0000
  H   H23       1.0  0.8935346129894127  0.6234278280953306  0.7106404134498449  1.0000
  H   H24       1.0  0.1064592746947284  0.3765730237265501  0.2893578331728577  1.0000
  H   H25       1.0  0.7911620121791998  0.41692194661217036  0.7393167567633655  1.0000
  H   H26       1.0  0.20883442412335268  0.583076135957839  0.2606832056532227  1.0000
  H   H27       1.0  0.9408017428998008  0.237594426102703  0.6377742742577652  1.0000
  H   H28       1.0  0.05919695444020333  0.7624036564672991  0.3622252520499316  1.0000
  H   H29       1.0  0.7863829901946884  0.6244939900667532  0.12397925705759866  1.0000
  H   H30       1.0  0.213617776462101  0.3755059386711679  0.8760198169790459  1.0000
  H   H31       1.0  0.8339507982252666  0.769759712528142  0.2452243795272581  1.0000
  H   H32       1.0  0.16605571688545948  0.2302392931258197  0.7547721938784877  1.0000
  H   H33       1.0  0.023973629155449278  0.9213411754297739  0.189237789565702  1.0000
  H   H34       1.0  0.976036469232092  0.0786559840562688  0.8107567273991237  1.0000
  H   H35       1.0  0.17072364807575008  0.941299173684449  0.009647524423755301  1.0000
  H   H36       1.0  0.8292845727156573  0.058694293465762805  0.9903453333146858  1.0000
  H   H37       1.0  0.18813895166980638  0.8267786086102406  0.8188246067731058  1.0000
  H   H38       1.0  0.8118589985927757  0.1732157816239308  0.18117091459417617  1.0000
  C   C1        1.0  0.39045586213230626  0.20326216445495507  0.09498982424438648  1.0000
  C   C2        1.0  0.6095425476267096  0.7967386873669257  0.9050089686002281  1.0000
  C   C3        1.0  0.3890594379654572  0.1406899952818677  0.010846097622589907  1.0000
  C   C4        1.0  0.6109435897287767  0.8593099334560466  0.9891532495250104  1.0000
  C   C5        1.0  0.4849236032918681  0.1711757660768782  0.9178293602235004  1.0000
  C   C6        1.0  0.5150802673401103  0.8288269319129143  0.08216974462643381  1.0000
  C   C7        1.0  0.5827936596643896  0.2648530953807438  0.9091961438990739  1.0000
  C   C8        1.0  0.4172101151072595  0.7351505256930082  0.09080578974922562  1.0000
  C   C9        1.0  0.5840090836274285  0.3281231160260276  0.9937589497769181  1.0000
  C   C10       1.0  0.41599252596710556  0.6718795819637648  0.006242718841498611  1.0000
  C   C11       1.0  0.48738194486918457  0.2967761078982605  0.08586749802825012  1.0000
  C   C12       1.0  0.5126163690295087  0.7032256670075725  0.9141369604941616  1.0000
  C   C13       1.0  0.2961639932343942  0.1725502380902526  0.19612895584437953  1.0000
  C   C14       1.0  0.7038330942852511  0.8274524598995399  0.803872166552118  1.0000
  C   C15       1.0  0.48035727850234616  0.098761675744214  0.8308200562073935  1.0000
  C   C16       1.0  0.5196445228128397  0.9012391760776667  0.16917808247387  1.0000
  C   C17       1.0  0.6863185415604888  0.42694017680771884  0.9943186796343327  1.0000
  C   C18       1.0  0.31368051941562664  0.5730652904339522  0.005684819289484703  1.0000
  C   C19       1.0  0.512131376968064  0.3715856011017848  0.3401872739948005  1.0000
  C   C20       1.0  0.487868546750981  0.6284115583842578  0.6598177160983809  1.0000
  C   C21       1.0  0.577345212063271  0.48405322745352924  0.3129339040749671  1.0000
  C   C22       1.0  0.42265358113705526  0.5159439320325205  0.6870663395336507  1.0000
  C   C23       1.0  0.5059647884542571  0.5893512607039284  0.3641473931119421  1.0000
  C   C24       1.0  0.4940360740628547  0.4106477449500332  0.6358516890057758  1.0000
  C   C25       1.0  0.3699299621675962  0.5812253526221626  0.4421012517842585  1.0000
  C   C26       1.0  0.6300686393120783  0.41877365303179914  0.5579003941019351  1.0000
  C   C27       1.0  0.2899186975185941  0.6858855348576256  0.49885810142162507  1.0000
  C   C28       1.0  0.7100799998214099  0.3141125477123765  0.501143552545642  1.0000
  C   C29       1.0  0.15907267546297982  0.6742786771704559  0.5737581498210674  1.0000
  C   C30       1.0  0.8409261177373467  0.3257184823155868  0.4262428030074119  1.0000
  C   C31       1.0  0.0954720705384773  0.5578704054022623  0.5957286834637756  1.0000
  C   C32       1.0  0.904528696118312  0.4421295233356589  0.4042710997927303  1.0000
  C   C33       1.0  0.9558104598943301  0.5437066051515913  0.6684489243192219  1.0000
  C   C34       1.0  0.04418588054790008  0.45629240050237035  0.3315510300162999  1.0000
  C   C35       1.0  0.8982996346459018  0.4295875815990939  0.6836002427368371  1.0000
  C   C36       1.0  0.10170000149216918  0.5704123471388273  0.3164004677939758  1.0000
  C   C37       1.0  0.9811283455324329  0.32950866504690174  0.6269099380951317  1.0000
  C   C38       1.0  0.018871386465967484  0.67049034060706  0.3730907805167548  1.0000
  C   C39       1.0  0.17105158605330928  0.451904982450266  0.5409230656925175  1.0000
  C   C40       1.0  0.8289491806034802  0.5480949462876482  0.4590795544434203  1.0000
  C   C41       1.0  0.31234525369295335  0.4634306087491353  0.4638400008606993  1.0000
  C   C42       1.0  0.6876565476222324  0.5365702430727382  0.5361631023595735  1.0000
  C   C43       1.0  0.9972764874266175  0.0070366690113914  0.4453030470204028  1.0000
  C   C44       1.0  0.002724566811153299  0.9929604904746512  0.5547010157984644  1.0000
  C   C45       1.0  0.49736483102036283  0.03925691456337431  0.5457028154271555  1.0000
  C   C46       1.0  0.5026249940853234  0.9607503988462087  0.45430028411054474  1.0000
  C   C47       1.0  0.9509091988306296  0.7046213699519797  0.0006482264194218601  1.0000
  C   C48       1.0  0.04908846385097119  0.295375789534063  0.9993515260237942  1.0000
  C   C49       1.0  0.8684215983704816  0.6932711296051225  0.10124826760453236  1.0000
  C   C50       1.0  0.1315802988050336  0.3067287991327987  0.8987498791578048  1.0000
  C   C51       1.0  0.8969210073303701  0.7732185081185534  0.16667557941388372  1.0000
  C   C52       1.0  0.10308211622418638  0.2267804975354082  0.8333209389353584  1.0000
  C   C53       1.0  0.005106258353812596  0.86151148869574  0.1345501660705253  1.0000
  C   C54       1.0  0.9949005443378952  0.13848474770634311  0.865445013138718  1.0000
  C   C55       1.0  0.08748505417818819  0.8739638912883835  0.03563796737351771  1.0000
  C   C56       1.0  0.9125183569573491  0.1260323451137069  0.9643564475593678  1.0000
  C   C57       1.0  0.05720265558715446  0.7941595907884321  0.9694710075353046  1.0000
  C   C58       1.0  0.9427974598525494  0.2058357225296987  0.030523360422144173  1.0000
  N   N1        1.0  0.38418594598334715  0.36152767829604227  0.4129002921787119  1.0000
  N   N2        1.0  0.6158114291172792  0.6384722504418718  0.5871044005602928  1.0000
  N   N3        1.0  0.11282352962800962  0.3404795178870401  0.5575642686288802  1.0000
  N   N4        1.0  0.8871782716871763  0.6595213339348335  0.44243670693181525  1.0000
  N   N5        1.0  0.9493401000230078  0.642253202333606  0.9173298055175821  1.0000
  N   N6        1.0  0.05065756265859278  0.3577439571524366  0.0826678192660566  1.0000
  N   N7        1.0  0.04573668343198989  0.6873892386251157  0.8390665454814724  1.0000
  N   N8        1.0  0.9542623014889884  0.31260607469301505  0.1609308774098608  1.0000
  N   N9        1.0  0.11112530398163047  0.7785022406938182  0.8692402467641429  1.0000
  N   N10       1.0  0.8888737767996774  0.221492149540353  0.13075576576854794  1.0000
  O   O1        1.0  0.39817844381254736  0.0135684110977934  0.8387761562231546  1.0000
  O   O2        1.0  0.6018297571736682  0.986436133059911  0.161221351026974  1.0000
  O   O3        1.0  0.5747816442216376  0.13514318377859522  0.7452482002924654  1.0000
  O   O4        1.0  0.425224199866804  0.8648622834630686  0.25475186264506533  1.0000
  O   O5        1.0  0.7681646181582096  0.4637149186081828  0.9050892646190719  1.0000
  O   O6        1.0  0.23183756659827987  0.5362822408778598  0.0949096156063405  1.0000
  O   O7        1.0  0.6921140631987583  0.4694029619570231  0.07284594060023859  1.0000
  O   O8        1.0  0.3078829284605646  0.5306006591167289  0.9271537552754695  1.0000
  O   O9        1.0  0.30942677462366663  0.2247109433017016  0.2696530929601408  1.0000
  O   O10       1.0  0.6905738003124711  0.7752908316041314  0.7303495110136495  1.0000
  O   O11       1.0  0.19912771121254735  0.0879791320314851  0.20196760348233772  1.0000
  O   O12       1.0  0.8008680540677275  0.9120254121262195  0.7980337208064655  1.0000
  O   O13       1.0  0.41268092138077606  0.13765951064794282  0.5626375009074707  1.0000
  O   O14       1.0  0.587305991470373  0.8623431873418499  0.4373677116386574  1.0000
  O   O15       1.0  0.5838453978888083  0.9974863711204449  0.5978359272408795  1.0000
  O   O16       1.0  0.4161511144688816  0.0025218653730974  0.4021630190096133  1.0000
  O   O17       1.0  0.08716388410644528  0.0815950833783603  0.3908490764643844  1.0000
  O   O18       1.0  0.9128359437522774  0.9184029991916419  0.6091523594484302  1.0000
  O   O19       1.0  0.9085217767351851  0.9472853731517007  0.4169495620151267  1.0000
  O   O20       1.0  0.0914803121609822  0.0527127094183015  0.58305356544836  1.0000
