data_image0
_chemical_formula_structural       Hf6H56C80N12O32
_chemical_formula_sum              "Hf6 H56 C80 N12 O32"
_cell_length_a       18.282639808843488
_cell_length_b       22.47538265213106
_cell_length_c       22.493157551127226
_cell_angle_alpha    93.66591943791158
_cell_angle_beta     89.9490701596227
_cell_angle_gamma    89.92978112094055

_space_group_name_H-M_alt    "P 1"
_space_group_IT_number       1

loop_
  _space_group_symop_operation_xyz
  'x, y, z'

loop_
  _atom_site_type_symbol
  _atom_site_label
  _atom_site_symmetry_multiplicity
  _atom_site_fract_x
  _atom_site_fract_y
  _atom_site_fract_z
  _atom_site_occupancy
  Hf  Hf1       1.0  0.9947502410638621  0.9883678445126377  0.08443335484545142  1.0000
  Hf  Hf2       1.0  0.995282204283079  0.0942244800389531  0.9714962740564845  1.0000
  Hf  Hf3       1.0  0.9936296218041109  0.8676561968874026  0.9746872991515193  1.0000
  Hf  Hf4       1.0  0.9943628603685325  0.9710824127064938  0.8632838971531813  1.0000
  Hf  Hf5       1.0  0.8613648240998658  0.9809227932794685  0.9734028057935549  1.0000
  Hf  Hf6       1.0  0.12740845350518273  0.9797276442704185  0.972669188915319  1.0000
  H   H1        1.0  0.10262285114755801  0.06991852878019239  0.06313897575432752  1.0000
  H   H2        1.0  0.890668931143317  0.06552113205378159  0.8824216272419109  1.0000
  H   H3        1.0  0.10097759383045711  0.8887692132934575  0.8820525241906625  1.0000
  H   H4        1.0  0.8866243241906633  0.8965884493131001  0.05921208403538711  1.0000
  H   H5        1.0  0.9453243353484879  0.17906183436356568  0.9081335889044126  1.0000
  H   H6        1.0  0.04634613800402581  0.02440349921688069  0.7701555795525438  1.0000
  H   H7        1.0  0.9552370471304313  0.8848003450405241  0.7837227208542928  1.0000
  H   H8        1.0  0.9926131448466651  0.8409412075104896  0.8520959540314904  1.0000
  H   H9        1.0  0.0355994858992474  0.7957811868417437  0.05648396834718741  1.0000
  H   H10       1.0  0.9963541705288465  0.8678570962183799  0.10536951301726562  1.0000
  H   H11       1.0  0.9549826655066339  0.07394760921874878  0.1639643334435306  1.0000
  H   H12       1.0  0.9930557544451446  0.11892958191418049  0.094640612172249  1.0000
  H   H13       1.0  0.03344955912878329  0.7847960000940403  0.8820660065100867  1.0000
  H   H14       1.0  0.9518217095416971  0.9017086920670538  0.16116254538810182  1.0000
  H   H15       1.0  0.03271271177236909  0.17565713582854411  0.06465965645942622  1.0000
  H   H16       1.0  0.9603014800301608  0.0201169996430224  0.7560421274035463  1.0000
  H   H17       1.0  0.41914785009364414  0.8113157284106478  0.9550678562168291  1.0000
  H   H18       1.0  0.29158981029302566  0.6543811485875465  0.9786417330536993  1.0000
  H   H19       1.0  0.17676829133774422  0.715871461898459  0.9807523779898304  1.0000
  H   H20       1.0  0.3047950709297638  0.8727863065177814  0.9577055271877842  1.0000
  H   H21       1.0  0.6984114539567512  0.6573826249844572  0.9749290510730763  1.0000
  H   H22       1.0  0.565334099416333  0.8129456502091583  0.9582725853795395  1.0000
  H   H23       1.0  0.6779055321905999  0.876224537657862  0.958822231303465  1.0000
  H   H24       1.0  0.8114965451147144  0.7210107181971853  0.9748974383764095  1.0000
  H   H25       1.0  0.2883178209265084  0.3030362507550847  0.9624825370728163  1.0000
  H   H26       1.0  0.4216982565088045  0.1506327864777219  0.9931837265696972  1.0000
  H   H27       1.0  0.3099991912700659  0.08605415849270057  0.9907683205265344  1.0000
  H   H28       1.0  0.1760199385999712  0.23800455836646245  0.9605382034449832  1.0000
  H   H29       1.0  0.6972057475659028  0.3028028099741746  0.9753164629336412  1.0000
  H   H30       1.0  0.5618329146741559  0.1483440385184167  0.9887689038486018  1.0000
  H   H31       1.0  0.6735022709776216  0.08356579942018529  0.9881661731461053  1.0000
  H   H32       1.0  0.8094222149248723  0.23785035754424652  0.9762893494281287  1.0000
  H   H33       1.0  0.6122516014312254  0.5358529456775116  0.9761318755545574  1.0000
  H   H34       1.0  0.37768151036485165  0.5365940423981216  0.967918123108362  1.0000
  H   H35       1.0  0.3767138367020451  0.42509650783794234  0.9697441151797721  1.0000
  H   H36       1.0  0.6112840155444773  0.4242911807074493  0.9780964611366089  1.0000
  H   H37       1.0  0.4261607803465353  0.9694616752276133  0.8047098501460895  1.0000
  H   H38       1.0  0.2933723005593976  0.9818170115683742  0.6487394923287155  1.0000
  H   H39       1.0  0.18036236584218557  0.9828207114556946  0.7121784143462478  1.0000
  H   H40       1.0  0.3135202537215633  0.9713971807011175  0.8682051313925714  1.0000
  H   H41       1.0  0.8144831654483157  0.9766030717003957  0.7096532573897393  1.0000
  H   H42       1.0  0.6821478833241771  0.9561219006890695  0.8647707027830976  1.0000
  H   H43       1.0  0.5691999688794952  0.9577401216822353  0.8019821214673402  1.0000
  H   H44       1.0  0.7012897338968713  0.9792387092265358  0.6469544984022876  1.0000
  H   H45       1.0  0.4234934390041333  0.9879952578796247  0.13965815696234782  1.0000
  H   H46       1.0  0.2902882805349165  0.9775552990577978  0.29593232310339357  1.0000
  H   H47       1.0  0.17720898590605572  0.9760862017491405  0.23221818807900976  1.0000
  H   H48       1.0  0.31095039963897614  0.9859995104648362  0.07638338685591611  1.0000
  H   H49       1.0  0.6979664366187136  0.9820473208648934  0.2983799953710715  1.0000
  H   H50       1.0  0.5682554712841181  0.9992571913373283  0.14144053218668523  1.0000
  H   H51       1.0  0.6823131525609442  0.0008553277067875001  0.07987364787312863  1.0000
  H   H52       1.0  0.8124432749783851  0.9841962669917167  0.23675818838714952  1.0000
  H   H53       1.0  0.6117367559080479  0.9869174023560916  0.41606962620449656  1.0000
  H   H54       1.0  0.3774348681720596  0.9753293965865166  0.4167431368671829  1.0000
  H   H55       1.0  0.37856118856419135  0.9731181235555441  0.5282275000618314  1.0000
  H   H56       1.0  0.6129711717404901  0.9841314451085665  0.5274624023408805  1.0000
  C   C1        1.0  0.4943082175496727  0.9828525072946094  0.3443581062638971  1.0000
  C   C2        1.0  0.4322740355877245  0.9840536325510953  0.2569007203540892  1.0000
  C   C3        1.0  0.5570837389003813  0.9875740703473921  0.25764549175766405  1.0000
  C   C4        1.0  0.49650065132955484  0.9767929005663447  0.5998772193254709  1.0000
  C   C5        1.0  0.5595813734874185  0.9719520176066185  0.6864275392603646  1.0000
  C   C6        1.0  0.4348752188638656  0.9746360963886717  0.6875127789001  1.0000
  C   C7        1.0  0.4933414968941037  0.35248417533399123  0.9755091769960489  1.0000
  C   C8        1.0  0.5548911387796593  0.265020357656006  0.9800730414666248  1.0000
  C   C9        1.0  0.43009255367062593  0.2657299852114789  0.9778957364647457  1.0000
  C   C10       1.0  0.49501193920328035  0.6084215660777587  0.970531584629427  1.0000
  C   C11       1.0  0.4317151731924582  0.6951802786882268  0.9672432143755786  1.0000
  C   C12       1.0  0.5565289969322934  0.6960484773012681  0.9673929839802542  1.0000
  C   C13       1.0  0.8193106073312466  0.9907245759612022  0.1139491702175519  1.0000
  C   C14       1.0  0.172642456742679  0.11728546107586617  0.9739269458644559  1.0000
  C   C15       1.0  0.8127808041125987  0.11613811251575606  0.9790658282952125  1.0000
  C   C16       1.0  0.17244995917028658  0.9808290740167465  0.1098275876641139  1.0000
  C   C17       1.0  0.1687586145014492  0.8387330288980263  0.9723015954540417  1.0000
  C   C18       1.0  0.819455934004381  0.9683740774247125  0.8321354973546136  1.0000
  C   C19       1.0  0.1752775031996876  0.9774324335953609  0.8348103366300422  1.0000
  C   C20       1.0  0.8161969821704388  0.8432366005826493  0.9688825914849348  1.0000
  C   C21       1.0  0.3658275411391614  0.7909387692031942  0.9605606098069689  1.0000
  C   C22       1.0  0.36234623301552205  0.7292725423238122  0.9669361446371882  1.0000
  C   C23       1.0  0.2938182909786634  0.7022591980275479  0.9737818672048277  1.0000
  C   C24       1.0  0.23002363600630824  0.736537389134213  0.9749834314943516  1.0000
  C   C25       1.0  0.23400303860209695  0.7982769631983544  0.9696263496067278  1.0000
  C   C26       1.0  0.30259565748831824  0.824886524799929  0.9619971416704802  1.0000
  C   C27       1.0  0.6945054656743537  0.7053586958799157  0.9711114507574267  1.0000
  C   C28       1.0  0.6248927712630419  0.7313480471765104  0.9666303429274452  1.0000
  C   C29       1.0  0.6194061044305242  0.7932299757561339  0.9617479835581764  1.0000
  C   C30       1.0  0.6817148215775787  0.8282111646881064  0.9619137301164571  1.0000
  C   C31       1.0  0.7513035878413846  0.8024691867346974  0.966759258495806  1.0000
  C   C32       1.0  0.7572917428273698  0.74066984741696  0.9710539499793572  1.0000
  C   C33       1.0  0.29244550114834306  0.2555246534345557  0.968979006792502  1.0000
  C   C34       1.0  0.3617626275325918  0.2305148501280739  0.9778186202835643  1.0000
  C   C35       1.0  0.3677119129198445  0.1692461551207884  0.9861112188075583  1.0000
  C   C36       1.0  0.3060726616924825  0.13362359691319628  0.9848378161830028  1.0000
  C   C37       1.0  0.2368746866463667  0.15835616569228253  0.9755695633400594  1.0000
  C   C38       1.0  0.23020890074516134  0.21957123151917554  0.9679893369211076  1.0000
  C   C39       1.0  0.6926655831090686  0.2547842636759015  0.9785128154836119  1.0000
  C   C40       1.0  0.6227867640621055  0.22929246936292458  0.9817785074271869  1.0000
  C   C41       1.0  0.6162960182460537  0.16739624620481658  0.9859975570364627  1.0000
  C   C42       1.0  0.6780050993858922  0.13163500718923873  0.9857911190724736  1.0000
  C   C43       1.0  0.7478548592109675  0.1568514064097002  0.9818373705425432  1.0000
  C   C44       1.0  0.7548088215133363  0.2187277556157952  0.9788313281875819  1.0000
  C   C45       1.0  0.5610394223862445  0.5111195892109207  0.9747726838202269  1.0000
  C   C46       1.0  0.49499933714927385  0.5428390244757819  0.9719550358929681  1.0000
  C   C47       1.0  0.42845764527911  0.5114995197863975  0.9701605104703862  1.0000
  C   C48       1.0  0.4279216487161078  0.4498231726093778  0.9711233316390137  1.0000
  C   C49       1.0  0.493971049191309  0.4180907995522957  0.9739801563104609  1.0000
  C   C50       1.0  0.5605073202143771  0.4493973067034887  0.9757983561902182  1.0000
  C   C51       1.0  0.37207461031186984  0.9725196754469396  0.7850289409308147  1.0000
  C   C52       1.0  0.3666008239741386  0.9755200024484125  0.7229966426481911  1.0000
  C   C53       1.0  0.2971352469281001  0.9794793969526909  0.6968707254605208  1.0000
  C   C54       1.0  0.23440774088770405  0.9803043305852484  0.7322986305607702  1.0000
  C   C55       1.0  0.24022909172965973  0.9775082126647093  0.7942410855270198  1.0000
  C   C56       1.0  0.30978816573809104  0.9735840890130943  0.8201153455231776  1.0000
  C   C57       1.0  0.7605400817988085  0.9724333887884098  0.7296674687234416  1.0000
  C   C58       1.0  0.7549220757020622  0.9665090979034262  0.7912019355101876  1.0000
  C   C59       1.0  0.6855794782272683  0.9607500471565159  0.8169997325538392  1.0000
  C   C60       1.0  0.6231957509392458  0.9617679501185779  0.7823286736718771  1.0000
  C   C61       1.0  0.628318454561338  0.9689504260444084  0.7208653948468966  1.0000
  C   C62       1.0  0.6976547774918701  0.9738303457491708  0.6946511493546623  1.0000
  C   C63       1.0  0.3694173845061997  0.9852964710063502  0.159499978782037  1.0000
  C   C64       1.0  0.3639016553963685  0.982907201141124  0.22161926617925332  1.0000
  C   C65       1.0  0.29427543487022945  0.9794584795619058  0.2477649377134413  1.0000
  C   C66       1.0  0.23149266692809084  0.9785709687705546  0.21241141433777952  1.0000
  C   C67       1.0  0.23749524509652534  0.9809205136555617  0.1504541935365395  1.0000
  C   C68       1.0  0.3071408373845231  0.9842109188044856  0.12450286921931311  1.0000
  C   C69       1.0  0.6951734574619408  0.9863836113689644  0.2504713460805448  1.0000
  C   C70       1.0  0.6261522700198584  0.9902227903583595  0.2234838333698548  1.0000
  C   C71       1.0  0.6219583993414233  0.9960465844794725  0.1617890127379056  1.0000
  C   C72       1.0  0.6850057488439562  0.9970154534838755  0.12778736717205422  1.0000
  C   C73       1.0  0.7540873256637822  0.9923390473324926  0.15438018925397048  1.0000
  C   C74       1.0  0.7587522072912449  0.9875335507399539  0.2161337321506096  1.0000
  C   C75       1.0  0.5611014466309997  0.9837404104101494  0.4411685458884237  1.0000
  C   C76       1.0  0.4945473768393001  0.9811962782486814  0.409891317441165  1.0000
  C   C77       1.0  0.4286183485021908  0.9773107656438  0.441510856459253  1.0000
  C   C78       1.0  0.42924932541951927  0.9760868996817108  0.5031423198450896  1.0000
  C   C79       1.0  0.4958150833544934  0.9785008483101337  0.5343956367584541  1.0000
  C   C80       1.0  0.5617601296184844  0.98228649664253  0.5027443456989076  1.0000
  N   N1        1.0  0.42907356964031607  0.9818275635615237  0.3164481296283626  1.0000
  N   N2        1.0  0.4949206176104468  0.9872533622589402  0.22599254906546662  1.0000
  N   N3        1.0  0.5597981616681125  0.9853621480035741  0.31709514547613793  1.0000
  N   N4        1.0  0.5621784718664388  0.9749239787982302  0.6270212556896269  1.0000
  N   N5        1.0  0.4974822546094657  0.971589036725611  0.718222252763198  1.0000
  N   N6        1.0  0.4313768242876534  0.9769568226781118  0.6280728470389861  1.0000
  N   N7        1.0  0.55850399548833  0.32452788412329175  0.9775749562440766  1.0000
  N   N8        1.0  0.49220610978441937  0.23426475557117502  0.9808212255285441  1.0000
  N   N9        1.0  0.4276034996807709  0.3252230274672741  0.9749824656654911  1.0000
  N   N10       1.0  0.4293668124344663  0.6357355984373712  0.9696849056942656  1.0000
  N   N11       1.0  0.4937089976428197  0.726949962032215  0.9654934947270136  1.0000
  N   N12       1.0  0.5601126085590024  0.636519796889935  0.9700307093661069  1.0000
  O   O1        1.0  0.8841839087947463  0.9901582158415893  0.13562309311586773  1.0000
  O   O2        1.0  0.803852508533133  0.9887320342170582  0.05869862365391752  1.0000
  O   O3        1.0  0.10834033436471201  0.1389185086554363  0.9771721853953184  1.0000
  O   O4        1.0  0.188771685538569  0.06174989796647879  0.9702559587216939  1.0000
  O   O5        1.0  0.8766329236332735  0.13753902726536893  0.9819434977925854  1.0000
  O   O6        1.0  0.7972660014790804  0.06027848851336159  0.9721418599625481  1.0000
  O   O7        1.0  0.10799103843918796  0.9814915470581553  0.13088898650541844  1.0000
  O   O8        1.0  0.18885280322374598  0.9812706029615866  0.054371124524266214  1.0000
  O   O9        1.0  0.9955640662785045  0.069500928056037  0.13608374774577925  1.0000
  O   O10       1.0  0.9954312952699244  0.9051572173582726  0.136833078269774  1.0000
  O   O11       1.0  0.9920506936051369  0.14797267528456357  0.0595149521928064  1.0000
  O   O12       1.0  0.9905747481255673  0.15785177648270826  0.9143284276064281  1.0000
  O   O13       1.0  0.9382623853075956  0.0300860633027327  0.019338678462204908  1.0000
  O   O14       1.0  0.07037398134871609  0.045748763935343106  0.037349082952189916  1.0000
  O   O15       1.0  0.10369519914892321  0.8170373240492594  0.9721804669505406  1.0000
  O   O16       1.0  0.1842021956110997  0.8938795118619894  0.9737506998965488  1.0000
  O   O17       1.0  0.884516224969815  0.9675761686905061  0.8104968423970575  1.0000
  O   O18       1.0  0.8039856200083692  0.9718997684680986  0.88723651842615  1.0000
  O   O19       1.0  0.11051704016464471  0.9800068091609758  0.8135744583570813  1.0000
  O   O20       1.0  0.19016837133629852  0.9730516468515303  0.8896719166023815  1.0000
  O   O21       1.0  0.8806815087505769  0.8220118701694188  0.9682188423582688  1.0000
  O   O22       1.0  0.7999242297862565  0.8989130509477119  0.972576486253715  1.0000
  O   O23       1.0  0.9917208575798924  0.8114763339911734  0.8874754953343  1.0000
  O   O24       1.0  0.9943778856890905  0.8228327506281445  0.05382956055265001  1.0000
  O   O25       1.0  0.9967132793670996  0.8893081349540496  0.8106608099124415  1.0000
  O   O26       1.0  0.9967416591990103  0.0331160157214185  0.7856755572242309  1.0000
  O   O27       1.0  0.06915600558095751  0.9127896740528738  0.9084697745808158  1.0000
  O   O28       1.0  0.9375041946801662  0.9299864408866721  0.9261218834482393  1.0000
  O   O29       1.0  0.04998315347016561  0.9354713753615298  0.01885061956460279  1.0000
  O   O30       1.0  0.9225517023014902  0.04184410372239711  0.9060153272478146  1.0000
  O   O31       1.0  0.9193385534831507  0.9204559139886188  0.03656801060984802  1.0000
  O   O32       1.0  0.0522843523434773  0.02554510677902749  0.9246699561438518  1.0000
