data_image0
_chemical_formula_structural       Zn2H32C24S2N8O8
_chemical_formula_sum              "Zn2 H32 C24 S2 N8 O8"
_cell_length_a       6.055221088968035
_cell_length_b       10.656864026640864
_cell_length_c       12.771602341452635
_cell_angle_alpha    114.29028624272661
_cell_angle_beta     103.77194384547286
_cell_angle_gamma    89.98725068085079

_space_group_name_H-M_alt    "P 1"
_space_group_IT_number       1

loop_
  _space_group_symop_operation_xyz
  'x, y, z'

loop_
  _atom_site_type_symbol
  _atom_site_label
  _atom_site_symmetry_multiplicity
  _atom_site_fract_x
  _atom_site_fract_y
  _atom_site_fract_z
  _atom_site_occupancy
  Zn  Zn1       1.0  0.5000065193582088  2.5366297081011025e-06  0.5000014954877302  1.0000
  Zn  Zn2       1.0  0.49999300583271367  0.5000025235443317  0.49999794361460215  1.0000
  H   H1        1.0  0.0319358857066234  0.15318647182532175  0.005828307131054134  1.0000
  H   H2        1.0  0.526417659575543  0.3464543123014181  0.9948187310351602  1.0000
  H   H3        1.0  0.9680848529816686  0.8467844604778348  0.994160722982514  1.0000
  H   H4        1.0  0.4735765300536415  0.6535487210238741  0.005181300209599724  1.0000
  H   H5        1.0  0.024388249983601916  0.23930024987163284  0.8517396498410721  1.0000
  H   H6        1.0  0.672182101461246  0.2603085239155831  0.14893321336779056  1.0000
  H   H7        1.0  0.9756230390344102  0.7606841861656974  0.14825757930326952  1.0000
  H   H8        1.0  0.32781495268140753  0.7396914251762255  0.8510676626822831  1.0000
  H   H9        1.0  0.34268179780948327  0.9534824508723148  0.8217210749171646  1.0000
  H   H10       1.0  0.020633387531610543  0.5463739950797192  0.177857786406797  1.0000
  H   H11       1.0  0.6573173267989532  0.04651957216335491  0.17828072953468432  1.0000
  H   H12       1.0  0.9793613128044072  0.4536320996585842  0.8221394177366934  1.0000
  H   H13       1.0  0.8300583451823299  0.20775166066106723  0.6481240587949773  1.0000
  H   H14       1.0  0.6812652538715299  0.2922236227019254  0.35233893798648114  1.0000
  H   H15       1.0  0.16994605577083632  0.7922607525415375  0.351884180469874  1.0000
  H   H16       1.0  0.3187245816387758  0.7077835558356612  0.6476627896957513  1.0000
  H   H17       1.0  0.5722154444325724  0.25877431852212146  0.6529229948508617  1.0000
  H   H18       1.0  0.41862510535342784  0.24118943179583144  0.34749967211773486  1.0000
  H   H19       1.0  0.4277867362806517  0.7412350217059328  0.34708709493016016  1.0000
  H   H20       1.0  0.5813606155328798  0.7588136264201567  0.652502560040624  1.0000
  H   H21       1.0  0.21337784997524523  0.0968452463246265  0.6273008372417835  1.0000
  H   H22       1.0  0.0854405466371588  0.4032480276164137  0.3725941012476072  1.0000
  H   H23       1.0  0.7866293979529928  0.9031640642670808  0.37270667264192553  1.0000
  H   H24       1.0  0.9145502765409432  0.5967550377180544  0.6274086993863437  1.0000
  H   H25       1.0  0.2025400258840477  0.9388743976981999  0.6254077626032031  1.0000
  H   H26       1.0  0.07638662320231052  0.5611464478668893  0.374270412530514  1.0000
  H   H27       1.0  0.7974577413547409  0.061129666969556205  0.3745922299870089  1.0000
  H   H28       1.0  0.9236197976302876  0.43885862769568024  0.6257277486010652  1.0000
  H   H29       1.0  0.6919087914761805  0.006695116567094302  0.9894239089846624  1.0000
  H   H30       1.0  0.20280686075665952  0.49293375196311473  0.010569748203195783  1.0000
  H   H31       1.0  0.30810399591645427  0.9932882676801358  0.010571566010135331  1.0000
  H   H32       1.0  0.7971939295389419  0.5070682366905573  0.9894290973676052  1.0000
  C   C1        1.0  0.6884381860810292  0.047533592679606315  0.9237169471619001  1.0000
  C   C2        1.0  0.2647110702198887  0.4521918086851712  0.07638548102179499  1.0000
  C   C3        1.0  0.31157059935619463  0.9524559899735298  0.07627938899381817  1.0000
  C   C4        1.0  0.7352870754899499  0.5478143367423203  0.9236160375715701  1.0000
  C   C5        1.0  0.6795971626788528  0.147929288944006  0.752458357595984  1.0000
  C   C6        1.0  0.4263928663029972  0.3518100293818307  0.24777467219689706  1.0000
  C   C7        1.0  0.32040785826904994  0.8520675830327987  0.24754393173499523  1.0000
  C   C8        1.0  0.5735962210343999  0.6481929968249817  0.7522247905722711  1.0000
  C   C9        1.0  0.879214454556184  0.128397864387594  0.9324414878393699  1.0000
  C   C10       1.0  0.4466626075849121  0.37124565559427936  0.06796481077361706  1.0000
  C   C11       1.0  0.12080645818505087  0.8715834509640248  0.06755340861160174  1.0000
  C   C12       1.0  0.5533406491859125  0.6287605061404024  0.9320380633885679  1.0000
  C   C13       1.0  0.8740356423777342  0.17861741253402394  0.8466891749372112  1.0000
  C   C14       1.0  0.5268427818558763  0.3209778320321206  0.15374536891427948  1.0000
  C   C15       1.0  0.1259775410243336  0.8213680708503547  0.15330940024718853  1.0000
  C   C16       1.0  0.47314780385613625  0.6790241423845913  0.8462523397053305  1.0000
  C   C17       1.0  0.4877659813484527  0.06526577917017562  0.7430912837737155  1.0000
  C   C18       1.0  0.24402600769230529  0.4345875629287475  0.25686411751968313  1.0000
  C   C19       1.0  0.5122437000070407  0.9347383112960657  0.2569108223527864  1.0000
  C   C20       1.0  0.7559647453322497  0.5654154288960597  0.74313238636843  1.0000
  C   C21       1.0  0.4925384660180754  0.017194739722846502  0.8299944929554146  1.0000
  C   C22       1.0  0.16220514858503074  0.48264103189162477  0.1698752140247636  1.0000
  C   C23       1.0  0.5074703173903501  0.9828041993819383  0.17000812717598293  1.0000
  C   C24       1.0  0.837797155594771  0.5173692798009953  0.8301297355586217  1.0000
  S   S1        1.0  0.8345192157238943  0.7499399874569975  0.4998815510078034  1.0000
  S   S2        1.0  0.16547988257696747  0.25006200801255574  0.5001178921643616  1.0000
  N   N1        1.0  0.6719033625408956  0.18094275436770602  0.654058521181263  1.0000
  N   N2        1.0  0.5171191483185709  0.3189939395836704  0.3463285139992608  1.0000
  N   N3        1.0  0.3280982110043881  0.81906342337156  0.3459457376755213  1.0000
  N   N4        1.0  0.4828667223418961  0.681010117663007  0.6536709392411384  1.0000
  N   N5        1.0  0.3099279666270576  0.019652991987193502  0.6358676344124704  1.0000
  N   N6        1.0  0.17332541969695112  0.48037641146194693  0.3639535946632721  1.0000
  N   N7        1.0  0.690076823595149  0.9803521547122076  0.36413663397308255  1.0000
  N   N8        1.0  0.8266640218327198  0.5196193114868349  0.6360387488536788  1.0000
  O   O1        1.0  0.9298336744568161  0.7717682601057163  0.4106241182507306  1.0000
  O   O2        1.0  0.019475650423913752  0.7282165799871622  0.5891974510339753  1.0000
  O   O3        1.0  0.07015919490829252  0.22822749515484028  0.5893709655296393  1.0000
  O   O4        1.0  0.9805198547577592  0.27177500931086485  0.4107941726305955  1.0000
  O   O5        1.0  0.7255183433464509  0.8737486609816114  0.5655331632279472  1.0000
  O   O6        1.0  0.6598232667516514  0.6260698589526826  0.4341797769883089  1.0000
  O   O7        1.0  0.27450421145716325  0.12626067096553586  0.43447605208253764  1.0000
  O   O8        1.0  0.3401555964349825  0.3739424910914053  0.5658232586188917  1.0000
