data_image0
_chemical_formula_structural       Zn2H16C24N16
_chemical_formula_sum              "Zn2 H16 C24 N16"
_cell_length_a       7.079181488294925
_cell_length_b       9.676514816348663
_cell_length_c       10.443319008807745
_cell_angle_alpha    110.04793212744505
_cell_angle_beta     104.13299805545758
_cell_angle_gamma    103.49684258169641

_space_group_name_H-M_alt    "P 1"
_space_group_IT_number       1

loop_
  _space_group_symop_operation_xyz
  'x, y, z'

loop_
  _atom_site_type_symbol
  _atom_site_label
  _atom_site_symmetry_multiplicity
  _atom_site_fract_x
  _atom_site_fract_y
  _atom_site_fract_z
  _atom_site_occupancy
  Zn  Zn1       1.0  0.8966611171711774  0.11222707568872176  0.10274439809676039  1.0000
  Zn  Zn2       1.0  0.10333983232224142  0.8877731221381422  0.8972513972470894  1.0000
  H   H1        1.0  0.861155855462762  0.07210629792376008  0.3867112259467476  1.0000
  H   H2        1.0  0.1388395867074904  0.9278916667785563  0.6132791269114647  1.0000
  H   H3        1.0  0.0813231428969416  0.28420767721665635  0.9187129399180664  1.0000
  H   H4        1.0  0.9186724396661956  0.7158021718308446  0.08128312831939169  1.0000
  H   H5        1.0  0.32483839905194134  0.5504680123774363  0.979704397760038  1.0000
  H   H6        1.0  0.6751521338814328  0.4495491148482954  0.020304646876205496  1.0000
  H   H7        1.0  0.013713024420781041  0.23982274403530116  0.65509267874328  1.0000
  H   H8        1.0  0.986288381181424  0.7601667438891081  0.3448997873583224  1.0000
  H   H9        1.0  0.4472393905752197  0.7287445335420981  0.6884213514252764  1.0000
  H   H10       1.0  0.552764620061019  0.27124133132657136  0.3115837957828234  1.0000
  H   H11       1.0  0.5280394576137154  0.8146893894052737  0.5034289550679034  1.0000
  H   H12       1.0  0.4719707029780408  0.1853058203932463  0.49658112766069  1.0000
  H   H13       1.0  0.258562912702807  0.519885330428046  0.7470166604184101  1.0000
  H   H14       1.0  0.7414434197647353  0.4801052193848461  0.2529826958929959  1.0000
  H   H15       1.0  0.4905228011512789  0.7478757318028924  0.24001504276524338  1.0000
  H   H16       1.0  0.509476240083714  0.2521292835641589  0.7599944192414725  1.0000
  C   C1        1.0  0.971812106676424  0.19108903246276293  0.4310342621809157  1.0000
  C   C2        1.0  0.028181909420083983  0.8089089732315384  0.5689587426693024  1.0000
  C   C3        1.0  0.15497498855381753  0.3725729905346994  0.031080522899372874  1.0000
  C   C4        1.0  0.8450220601926329  0.6274368255375007  0.9689224779990226  1.0000
  C   C5        1.0  0.14880281003837573  0.3883539779297179  0.3809310144916722  1.0000
  C   C6        1.0  0.851190115338909  0.6116476274650537  0.6190677434965224  1.0000
  C   C7        1.0  0.1974731277328061  0.43704248142181257  0.27365083399946855  1.0000
  C   C8        1.0  0.8025324253043065  0.5629552219900444  0.7263516258041064  1.0000
  C   C9        1.0  0.29312653049873916  0.5215812082032514  0.06600104766134511  1.0000
  C   C10       1.0  0.7068693573320528  0.4784262653968411  0.9340048486853902  1.0000
  C   C11       1.0  0.05922027285905779  0.28708188021159486  0.5819676893649941  1.0000
  C   C12       1.0  0.9407711321823056  0.7129138191925576  0.4180251121338188  1.0000
  C   C13       1.0  0.33702788565905445  0.5907557954240942  0.319180934281512  1.0000
  C   C14       1.0  0.662982051894353  0.40924773439942885  0.6808250534233053  1.0000
  C   C15       1.0  0.24226816861385456  0.49397280534766697  0.5306109222016885  1.0000
  C   C16       1.0  0.7577273297098017  0.506025170578013  0.4693928491706457  1.0000
  C   C17       1.0  0.38012387952691273  0.6488955883910917  0.572715548883636  1.0000
  C   C18       1.0  0.6198695420687342  0.3510953151179236  0.4272894645152546  1.0000
  C   C19       1.0  0.4247154430329515  0.6958382080907981  0.4706037308049957  1.0000
  C   C20       1.0  0.5752875932111934  0.30416313601351413  0.5294071341285544  1.0000
  C   C21       1.0  0.19214822043425525  0.43903027651899856  0.6315760854052784  1.0000
  C   C22       1.0  0.8078481074614885  0.5609664839719669  0.368422647838038  1.0000
  C   C23       1.0  0.383615815005271  0.6311889227416142  0.20981468733082653  1.0000
  C   C24       1.0  0.6163791951219507  0.36881975667316164  0.7901847455613975  1.0000
  N   N1        1.0  0.8407014098090355  0.985555507596096  0.8799571326622907  1.0000
  N   N2        1.0  0.15930934929453852  0.014446805189379595  0.12004189998292962  1.0000
  N   N3        1.0  0.10828155859032756  0.3316295556742829  0.1318733758377419  1.0000
  N   N4        1.0  0.8917217728987693  0.6683753391218301  0.868131005588829  1.0000
  N   N5        1.0  0.6393169501392535  0.20948169486610616  0.06719502605205462  1.0000
  N   N6        1.0  0.3606951768745005  0.7905146371598092  0.9328013723074164  1.0000
  N   N7        1.0  0.014435171696334185  0.2407387960765063  0.333786320775765  1.0000
  N   N8        1.0  0.9855519932325688  0.75926296206282  0.666209626666337  1.0000
  N   N9        1.0  0.4731548639538872  0.14361023749650303  0.9742248164404544  1.0000
  N   N10       1.0  0.5268362017219913  0.856381902397487  0.02576392544709457  1.0000
  N   N11       1.0  0.3057842359262465  0.08155996471319327  0.8815226369873415  1.0000
  N   N12       1.0  0.6942265271882846  0.9184423488739453  0.11847735412317209  1.0000
  N   N13       1.0  0.7936936126385773  0.028232621949605588  0.7847631072787918  1.0000
  N   N14       1.0  0.2063162386745602  0.9717649624946528  0.21523618887523097  1.0000
  N   N15       1.0  0.7486872570320883  0.06617194260591927  0.6900406864554185  1.0000
  N   N16       1.0  0.2513208488966043  0.9338221273285043  0.3099619944058247  1.0000
