data_image0
_chemical_formula_structural       Ag4H48C28S28O12F12
_chemical_formula_sum              "Ag4 H48 C28 S28 O12 F12"
_cell_length_a       11.387828922885289
_cell_length_b       12.07722731906816
_cell_length_c       12.907561105927162
_cell_angle_alpha    89.99974605981932
_cell_angle_beta     107.93844825886453
_cell_angle_gamma    90.00035344626114

_space_group_name_H-M_alt    "P 1"
_space_group_IT_number       1

loop_
  _space_group_symop_operation_xyz
  'x, y, z'

loop_
  _atom_site_type_symbol
  _atom_site_label
  _atom_site_symmetry_multiplicity
  _atom_site_fract_x
  _atom_site_fract_y
  _atom_site_fract_z
  _atom_site_occupancy
  Ag  Ag1       1.0  0.7291852573512898  0.2431460995202173  0.17132109444359855  1.0000
  Ag  Ag2       1.0  0.7708164718144134  0.7431435335655219  0.8286757959754427  1.0000
  Ag  Ag3       1.0  0.2708155321812882  0.7568496958075814  0.8286722472008281  1.0000
  Ag  Ag4       1.0  0.22918064250485054  0.25684646568310404  0.1713328192218668  1.0000
  H   H1        1.0  0.6027412255083179  0.2638466680879148  0.8739341605589814  1.0000
  H   H2        1.0  0.8972569329584489  0.7638473359319704  0.1260663248108855  1.0000
  H   H3        1.0  0.3972503420518835  0.7361557512375897  0.12606442927668843  1.0000
  H   H4        1.0  0.10274294319560792  0.2361559114133271  0.8739360661683833  1.0000
  H   H5        1.0  0.4441205709258825  0.2960374035831279  0.859877542084405  1.0000
  H   H6        1.0  0.05588043288462789  0.7960368471255066  0.1401224726870325  1.0000
  H   H7        1.0  0.5558700704330662  0.703964187742997  0.14011769778842628  1.0000
  H   H8        1.0  0.9441203638569533  0.2039622602042783  0.8598778435641066  1.0000
  H   H9        1.0  0.8666336342171164  0.42794998476303187  0.04177372726902456  1.0000
  H   H10       1.0  0.6333672929060299  0.9279501459960142  0.9582260534439583  1.0000
  H   H11       1.0  0.1333616261299966  0.5720491225505382  0.9582266380749334  1.0000
  H   H12       1.0  0.36663350543081924  0.07204730532087208  0.0417758127229177  1.0000
  H   H13       1.0  0.8162755677292708  0.3107891667110607  0.9534715084525589  1.0000
  H   H14       1.0  0.6837256230921156  0.810788969002438  0.046528829375915834  1.0000
  H   H15       1.0  0.18372246001743522  0.689210768617066  0.046528057387121194  1.0000
  H   H16       1.0  0.316276099048423  0.1892101383239506  0.9534740618823605  1.0000
  H   H17       1.0  0.3711637903398213  0.3904507712827295  0.011047954258685903  1.0000
  H   H18       1.0  0.12883866697125512  0.8904532447219038  0.9889512883121513  1.0000
  H   H19       1.0  0.6288388531928605  0.6095458520355591  0.9889536372260751  1.0000
  H   H20       1.0  0.8711639757707843  0.10954669061668908  0.01104952821147977  1.0000
  H   H21       1.0  0.47582571768514736  0.4302521209234483  0.1414922284499553  1.0000
  H   H22       1.0  0.024177887394714003  0.9302529470959655  0.858507934931339  1.0000
  H   H23       1.0  0.5241769258498651  0.5697453303994564  0.8585093630337185  1.0000
  H   H24       1.0  0.9758219879523865  0.06974781623731018  0.14149368109440275  1.0000
  H   H25       1.0  0.6791084529229964  0.976302992932183  0.37346094624543735  1.0000
  H   H26       1.0  0.8208955112782874  0.4762973132356976  0.6265355834098046  1.0000
  H   H27       1.0  0.320892340639695  0.02370356644650679  0.6265362701688063  1.0000
  H   H28       1.0  0.1791052822494521  0.52369682607371  0.3734616330207104  1.0000
  H   H29       1.0  0.573580199104896  0.025066434159512593  0.24920095414349672  1.0000
  H   H30       1.0  0.9264249170446917  0.525060174022009  0.7507969834077173  1.0000
  H   H31       1.0  0.42642336265036823  0.9749384692180455  0.7507962377265047  1.0000
  H   H32       1.0  0.07357587888294151  0.47493396528190596  0.2492025578931418  1.0000
  H   H33       1.0  0.857072851913891  0.09258713150972402  0.49921239311343873  1.0000
  H   H34       1.0  0.6429252642246226  0.5925886859501259  0.5007872412031632  1.0000
  H   H35       1.0  0.1429260988342094  0.9074136318251147  0.5007874228619471  1.0000
  H   H36       1.0  0.35707368652580845  0.4074129053893357  0.4992125747711357  1.0000
  H   H37       1.0  0.8929935232272899  0.2308980235878124  0.47043908933875406  1.0000
  H   H38       1.0  0.607006292631823  0.730900888880889  0.529558882804878  1.0000
  H   H39       1.0  0.10700819650870132  0.7690994277348367  0.5295614770513453  1.0000
  H   H40       1.0  0.39299173511955143  0.2691007024564769  0.4704406830326278  1.0000
  H   H41       1.0  0.9762768205597399  0.927893932184247  0.29193331586959204  1.0000
  H   H42       1.0  0.5237241070442096  0.427892761940214  0.7080672399487896  1.0000
  H   H43       1.0  0.023723053178116498  0.0721035191342096  0.7080667502469283  1.0000
  H   H44       1.0  0.47627761269410485  0.572105517387051  0.29193332644022973  1.0000
  H   H45       1.0  0.9037838047777029  0.9192118446665417  0.3968082684878453  1.0000
  H   H46       1.0  0.5962152279739215  0.4192115926015275  0.6031918098040663  1.0000
  H   H47       1.0  0.09621699356380022  0.08078726265958379  0.6031935976768567  1.0000
  H   H48       1.0  0.4037837227671943  0.5807866867194632  0.3968080061745739  1.0000
  C   C1        1.0  0.5325270937437168  0.26778518244760363  0.9159251113337633  1.0000
  C   C2        1.0  0.9674692400805754  0.7677831454928917  0.08407408848980685  1.0000
  C   C3        1.0  0.4674644722235469  0.7322197208954221  0.08407192858508239  1.0000
  C   C4        1.0  0.03252786226251911  0.23221513382940628  0.915922902344903  1.0000
  C   C5        1.0  0.8938562968802303  0.3476220826851134  0.016926819499005378  1.0000
  C   C6        1.0  0.6061432584155498  0.8476227959298227  0.9830760213742807  1.0000
  C   C7        1.0  0.10613988567064332  0.6523786806416183  0.98307302102279  1.0000
  C   C8        1.0  0.39385846532491803  0.1523763113928993  0.01692841979756568  1.0000
  C   C9        1.0  0.45464279414932224  0.36784798827955706  0.07683271648632232  1.0000
  C   C10       1.0  0.0453595375660782  0.8678494595592595  0.9231681352219427  1.0000
  C   C11       1.0  0.5453607747869782  0.6321502910445601  0.9231714500034089  1.0000
  C   C12       1.0  0.9546421821768973  0.13215047577724448  0.07683243116489538  1.0000
  C   C13       1.0  0.6704544303195022  0.0264733745135075  0.3004226127579202  1.0000
  C   C14       1.0  0.8295488469460395  0.5264659653550721  0.6995740458780446  1.0000
  C   C15       1.0  0.32954728784451254  0.973534012868221  0.699576403705592  1.0000
  C   C16       1.0  0.17045102358263622  0.473528173952239  0.3004229204156772  1.0000
  C   C17       1.0  0.8624520541063135  0.14955815851732268  0.4343314013189358  1.0000
  C   C18       1.0  0.6375473056284023  0.6495610305205304  0.5656683338604297  1.0000
  C   C19       1.0  0.13754689662548003  0.85043680878519  0.5656684146640459  1.0000
  C   C20       1.0  0.362451645126697  0.35044221682817067  0.434331482111702  1.0000
  C   C21       1.0  0.9105085912144447  0.9678531612434539  0.32680756879796047  1.0000
  C   C22       1.0  0.5894944080496316  0.46785171066680664  0.67319415755221  1.0000
  C   C23       1.0  0.0894940531275239  0.032146774091472693  0.6731947976392476  1.0000
  C   C24       1.0  0.4105073116910135  0.5321473966650812  0.32680640883572215  1.0000
  C   C25       1.0  0.8541996043607086  0.6267439786620626  0.36740937106424815  1.0000
  C   C26       1.0  0.6458051641846794  0.1267463598725342  0.6325911497561665  1.0000
  C   C27       1.0  0.1458048819842261  0.3732576126954468  0.6325896208604507  1.0000
  C   C28       1.0  0.35419471036711775  0.8732560594717994  0.3674096913106268  1.0000
  S   S1        1.0  0.5854120449416483  0.367874986886818  0.02524056494513621  1.0000
  S   S2        1.0  0.9145876219286961  0.867877533685167  0.9747598979898627  1.0000
  S   S3        1.0  0.4145841368022687  0.6321232924278914  0.974758500623125  1.0000
  S   S4        1.0  0.08541040502038301  0.13212322964941586  0.025238892891948698  1.0000
  S   S5        1.0  0.5192536200821182  0.1290006965443453  0.962040970358828  1.0000
  S   S6        1.0  0.9807400851714406  0.6290022671365562  0.0379565429082263  1.0000
  S   S7        1.0  0.4807434854654958  0.8709992387798593  0.0379591203008474  1.0000
  S   S8        1.0  0.0192560973794329  0.37099849619017533  0.9620432976135689  1.0000
  S   S9        1.0  0.9322634026391227  0.2614415317833547  0.13770495097707416  1.0000
  S   S10       1.0  0.5677375120891527  0.7614417654068575  0.8622970660623184  1.0000
  S   S11       1.0  0.06773831550392372  0.7385584035568086  0.862294065496201  1.0000
  S   S12       1.0  0.4322614418518286  0.23855651390680063  0.1377058497434547  1.0000
  S   S13       1.0  0.7622242702660175  0.9686842938641149  0.22235021154720871  1.0000
  S   S14       1.0  0.7377824216609171  0.46867907131475306  0.7776486383934583  1.0000
  S   S15       1.0  0.2377820644839304  0.03131978150594251  0.777651605518166  1.0000
  S   S16       1.0  0.26222021866957596  0.5313167240062453  0.22234985326524992  1.0000
  S   S17       1.0  0.7059347343090324  0.16933149793482724  0.3429354186980476  1.0000
  S   S18       1.0  0.7940665786726697  0.669326567664143  0.6570608901722039  1.0000
  S   S19       1.0  0.2940642140531509  0.8306742334332213  0.6570620724004784  1.0000
  S   S20       1.0  0.20593329666510843  0.3306708836506473  0.34294072585787927  1.0000
  S   S21       1.0  0.9767431998390919  0.10198894009877792  0.37412497710521114  1.0000
  S   S22       1.0  0.52326143499824  0.6019900342487005  0.6258810332761371  1.0000
  S   S23       1.0  0.023256676303312  0.8980101672234253  0.6258774138794863  1.0000
  S   S24       1.0  0.47673659354843784  0.39800990107759304  0.37411930752032424  1.0000
  S   S25       1.0  0.7733730944531843  0.5543449840798614  0.2371492730883275  1.0000
  S   S26       1.0  0.726625729481377  0.0543455627473932  0.7628507115662801  1.0000
  S   S27       1.0  0.22662954509598165  0.44565743527991936  0.7628484436049163  1.0000
  S   S28       1.0  0.2733723014651943  0.9456543725734077  0.23715195410053275  1.0000
  O   O1        1.0  0.7656928290059142  0.6391477346560706  0.1543955861091035  1.0000
  O   O2        1.0  0.7343129339368133  0.13914962225045707  0.8456067022626854  1.0000
  O   O3        1.0  0.23431719854725946  0.3608588247343717  0.8456080064569705  1.0000
  O   O4        1.0  0.265689712814364  0.8608536250974551  0.15439798904052543  1.0000
  O   O5        1.0  0.8563286476829506  0.46242429361916465  0.2367263689764131  1.0000
  O   O6        1.0  0.6436678680493699  0.9624270937174159  0.763281370202904  1.0000
  O   O7        1.0  0.1436749132653574  0.5375781257463714  0.7632700479400614  1.0000
  O   O8        1.0  0.35632832411040033  0.0375769816058096  0.23672776979595517  1.0000
  O   O9        1.0  0.6549070884896508  0.5236985004659404  0.2507177764903262  1.0000
  O   O10       1.0  0.8450897161801337  0.023695692448015393  0.7492810132365622  1.0000
  O   O11       1.0  0.345095551054861  0.47630226288460153  0.7492799402050919  1.0000
  O   O12       1.0  0.15490739096041753  0.9763017588586747  0.25072062733993056  1.0000
  F   F1        1.0  0.7869262626754576  0.7138274709888109  0.3850529301519359  1.0000
  F   F2        1.0  0.7130780729176891  0.21383032704945035  0.614947112359758  1.0000
  F   F3        1.0  0.21307729986578752  0.28617246435920407  0.6149450366813626  1.0000
  F   F4        1.0  0.2869236484228851  0.7861687802787644  0.38505500394173714  1.0000
  F   F5        1.0  0.8744617487747635  0.5563278379679558  0.45310328012436685  1.0000
  F   F6        1.0  0.6255472361113449  0.0563296790173879  0.546896351010794  1.0000
  F   F7        1.0  0.1255445827706723  0.44367458140018795  0.5468954371160423  1.0000
  F   F8        1.0  0.37445448283632743  0.9436719123301814  0.45310344041709544  1.0000
  F   F9        1.0  0.965975767808864  0.6668263538244403  0.3663574623160458  1.0000
  F   F10       1.0  0.5340283016938159  0.16682890787151897  0.6336411534321799  1.0000
  F   F11       1.0  0.034025947934281896  0.3331735815212227  0.6336392292868782  1.0000
  F   F12       1.0  0.4659724950570805  0.833173511476744  0.366359162814618  1.0000
