data_image0
_chemical_formula_structural       Er4Cr4H16C24N4O24
_chemical_formula_sum              "Er4 Cr4 H16 C24 N4 O24"
_cell_length_a       6.592736115002139
_cell_length_b       6.98394903100227
_cell_length_c       18.981858723005523
_cell_angle_alpha    89.99993525783947
_cell_angle_beta     89.99994197526236
_cell_angle_gamma    89.99993087200312

_space_group_name_H-M_alt    "P 1"
_space_group_IT_number       1

loop_
  _space_group_symop_operation_xyz
  'x, y, z'

loop_
  _atom_site_type_symbol
  _atom_site_label
  _atom_site_symmetry_multiplicity
  _atom_site_fract_x
  _atom_site_fract_y
  _atom_site_fract_z
  _atom_site_occupancy
  Er  Er1       1.0  0.38379579112132944  0.8578908541798286  0.2241532512682696  1.0000
  Er  Er2       1.0  0.11620856036928022  0.14211325907559313  0.7241540070803794  1.0000
  Er  Er3       1.0  0.6162169704345218  0.3578912827976665  0.27584635594188  1.0000
  Er  Er4       1.0  0.8837817502379012  0.6421135072167344  0.7758468108498562  1.0000
  Cr  Cr1       1.0  0.8306223176529386  0.8778863528573453  0.2796846123139431  1.0000
  Cr  Cr2       1.0  0.6693809421314256  0.1221227209417322  0.7796858848222499  1.0000
  Cr  Cr3       1.0  0.16939041956491252  0.3778831893514151  0.2203134061187058  1.0000
  Cr  Cr4       1.0  0.3306093928037511  0.6221266630979443  0.7203191559773997  1.0000
  H   H1        1.0  0.40810522159060264  0.1660920018858434  0.954373766279467  1.0000
  H   H2        1.0  0.0918969324888295  0.8339028139526053  0.4543736485146539  1.0000
  H   H3        1.0  0.5918911271102874  0.6660918726986013  0.5456259880325688  1.0000
  H   H4        1.0  0.9081022068873706  0.33389930506750426  0.0456238614069946  1.0000
  H   H5        1.0  0.4844921100171078  0.13758792904936004  0.08380885585519589  1.0000
  H   H6        1.0  0.015508105913134802  0.86240945549703  0.5838093468160892  1.0000
  H   H7        1.0  0.5155103019899913  0.6375881859921935  0.41619031622516184  1.0000
  H   H8        1.0  0.9844895206126126  0.3624118779005769  0.916188745334054  1.0000
  H   H9        1.0  0.8863204924281121  0.8071730884612905  0.9893195480980451  1.0000
  H   H10       1.0  0.6136791139846238  0.19282388736869654  0.48931863594894753  1.0000
  H   H11       1.0  0.1136787181606209  0.3071734982549826  0.5106812011348865  1.0000
  H   H12       1.0  0.3863186803148296  0.6928226787863495  0.010681566781634897  1.0000
  H   H13       1.0  0.9791208906841858  0.7974205767738879  0.1172895478473421  1.0000
  H   H14       1.0  0.5208798155531653  0.20257897225775426  0.6172887311019295  1.0000
  H   H15       1.0  0.020882843560819698  0.2974228196401756  0.3827106113497294  1.0000
  H   H16       1.0  0.4791180055466527  0.7025808071794444  0.8827120616616426  1.0000
  C   C1        1.0  0.10577664593355253  0.9643698797558143  0.8841676722726035  1.0000
  C   C2        1.0  0.39422571569281223  0.03562801517619361  0.38416778187493605  1.0000
  C   C3        1.0  0.8942208564687278  0.4643633083335672  0.6158319579012428  1.0000
  C   C4        1.0  0.6057813709018235  0.5356276540388407  0.1158324862767159  1.0000
  C   C5        1.0  0.1440777646856546  0.9828349355009964  0.9618544690449794  1.0000
  C   C6        1.0  0.35592285046072897  0.017156993680295305  0.4618535459812064  1.0000
  C   C7        1.0  0.8559181984085242  0.4828386710894462  0.5381462070796701  1.0000
  C   C8        1.0  0.6440751576981539  0.5171553933314925  0.0381451494032774  1.0000
  C   C9        1.0  0.3088960311685653  0.08477698128712767  0.9891559579196851  1.0000
  C   C10       1.0  0.19110753690512888  0.9152177278417711  0.4891562987197561  1.0000
  C   C11       1.0  0.691106483810522  0.5847754085916178  0.5108433034150224  1.0000
  C   C12       1.0  0.8088899866531775  0.4152173077343663  0.0108427578157233  1.0000
  C   C13       1.0  0.35203883424413357  0.06751307602272051  0.06081746741759989  1.0000
  C   C14       1.0  0.14796296647867993  0.9324815153494157  0.5608173564533558  1.0000
  C   C15       1.0  0.6479621462487872  0.5675159681202048  0.4391822606454951  1.0000
  C   C16       1.0  0.8520345747421701  0.4324825933829288  0.9391807065340103  1.0000
  C   C17       1.0  0.018974879381843803  0.8830705667532683  0.0085848520834517  1.0000
  C   C18       1.0  0.4810255589323376  0.1169270485726699  0.5085849650173911  1.0000
  C   C19       1.0  0.981027233774519  0.3830698987978352  0.4914147446493047  1.0000
  C   C20       1.0  0.5189693328027049  0.6169242068953055  0.9914148097572664  1.0000
  C   C21       1.0  0.0703464688339395  0.8770222732030039  0.0795141469656286  1.0000
  C   C22       1.0  0.42965375979467524  0.12297655637672732  0.5795126947443593  1.0000
  C   C23       1.0  0.9296556516821398  0.37702474784607903  0.4204865059212892  1.0000
  C   C24       1.0  0.5703426413947669  0.6229767347187404  0.9204870775116802  1.0000
  N   N1        1.0  0.23882726267946455  0.9608615196614282  0.10509484068388282  1.0000
  N   N2        1.0  0.2611759239646574  0.0391386632906432  0.6050945354310286  1.0000
  N   N3        1.0  0.7611808230575007  0.4608614100732496  0.39490472367215546  1.0000
  N   N4        1.0  0.7388190624673143  0.5391401509727914  0.8949052717172137  1.0000
  O   O1        1.0  0.0382130199929165  0.8022353192339865  0.8644083250652272  1.0000
  O   O2        1.0  0.46178636640935633  0.19775834075628745  0.36440781693693947  1.0000
  O   O3        1.0  0.961777095683999  0.30223433401031496  0.635591372587008  1.0000
  O   O4        1.0  0.5382250732676681  0.6977665907267224  0.13559080327926407  1.0000
  O   O5        1.0  0.1428407464574519  0.10559360555357243  0.844370372078103  1.0000
  O   O6        1.0  0.3571602160047363  0.8944001159112319  0.3443690834885231  1.0000
  O   O7        1.0  0.8571526422470298  0.6055971179841324  0.6556315146875136  1.0000
  O   O8        1.0  0.6428464338182779  0.39440517712909445  0.1556305085270466  1.0000
  O   O9        1.0  0.6859693000885444  0.6824726486184575  0.275296277476258  1.0000
  O   O10       1.0  0.8140339726692574  0.3175350067882762  0.7752979453010623  1.0000
  O   O11       1.0  0.3140421582050266  0.18247073093156974  0.22470129546616846  1.0000
  O   O12       1.0  0.1859530907354383  0.8175376762099803  0.7247033264398084  1.0000
  O   O13       1.0  0.6782931097355843  0.0438454801433892  0.24042469499257627  1.0000
  O   O14       1.0  0.8217087492926255  0.956163714103127  0.7404250407289297  1.0000
  O   O15       1.0  0.3217200341437661  0.5438407213510745  0.2595739892825435  1.0000
  O   O16       1.0  0.17827966216440672  0.45616328323389865  0.7595788074108896  1.0000
  O   O17       1.0  0.04429333999978981  0.8467526411026683  0.2359888235858421  1.0000
  O   O18       1.0  0.4557094596766262  0.1532557314059915  0.7359905106403771  1.0000
  O   O19       1.0  0.9557194351167199  0.3467527009978967  0.2640102614411646  1.0000
  O   O20       1.0  0.5442823541815898  0.6532578527417812  0.7640129367458428  1.0000
  O   O21       1.0  0.8744643548277297  0.9371993515465181  0.3597399769418743  1.0000
  O   O22       1.0  0.6255432187531654  0.06280804479325751  0.8597418161608131  1.0000
  O   O23       1.0  0.1255483101830848  0.43719648594715477  0.1402574899866309  1.0000
  O   O24       1.0  0.3744517388601309  0.5628064528340319  0.6402616688687813  1.0000
