data_image0
_chemical_formula_structural       Zn2B2H24C26N16O4
_chemical_formula_sum              "Zn2 B2 H24 C26 N16 O4"
_cell_length_a       8.584586094894993
_cell_length_b       10.629935757926882
_cell_length_c       9.834399490261129
_cell_angle_alpha    99.59914690509612
_cell_angle_beta     105.85786452303466
_cell_angle_gamma    96.9755609184584

_space_group_name_H-M_alt    "P 1"
_space_group_IT_number       1

loop_
  _space_group_symop_operation_xyz
  'x, y, z'

loop_
  _atom_site_type_symbol
  _atom_site_label
  _atom_site_symmetry_multiplicity
  _atom_site_fract_x
  _atom_site_fract_y
  _atom_site_fract_z
  _atom_site_occupancy
  Zn  Zn1       1.0  0.7777117952872742  0.3234633223565169  0.2687646840934548  1.0000
  Zn  Zn2       1.0  0.22227921305580614  0.6765225020875433  0.7312108429182158  1.0000
  B   B1        1.0  0.14281600842156908  0.1885352438453722  0.8866411673042335  1.0000
  B   B2        1.0  0.8571834534689985  0.8114688873671126  0.11336322340941514  1.0000
  H   H1        1.0  0.4566124892421114  0.3537728762470708  0.03490037746519194  1.0000
  H   H2        1.0  0.5433832694794916  0.6462410253019756  0.9651057742583973  1.0000
  H   H3        1.0  0.18919233452218256  0.016685133835878205  0.0941857623550959  1.0000
  H   H4        1.0  0.8108087222776917  0.9833199574598414  0.9058151502868128  1.0000
  H   H5        1.0  0.1190634681056366  0.45872974622467677  0.9042802943999034  1.0000
  H   H6        1.0  0.8809494651773875  0.5412751739143644  0.09572881638791848  1.0000
  H   H7        1.0  0.05880779455484492  0.22798951295366982  0.1540653349747743  1.0000
  H   H8        1.0  0.941200348422157  0.7720047902510245  0.8459345320558284  1.0000
  H   H9        1.0  0.3318490294231041  0.9854339243854043  0.869662440037736  1.0000
  H   H10       1.0  0.6681499020443126  0.014570181647059102  0.13035604851605592  1.0000
  H   H11       1.0  0.6312402293254707  0.31664385046862986  0.8856627533293064  1.0000
  H   H12       1.0  0.36876803096443206  0.6833718253286777  0.11434803571043521  1.0000
  H   H13       1.0  0.491078191397385  0.0867971808203052  0.3075586430582291  1.0000
  H   H14       1.0  0.5089264757348531  0.9132069035123821  0.6924369430508079  1.0000
  H   H15       1.0  0.8382076144334716  0.2593560395708963  0.7223311214498337  1.0000
  H   H16       1.0  0.1618086563521075  0.7406575862996689  0.2776804077188544  1.0000
  H   H17       1.0  0.4310759561113286  0.4332789913940188  0.6408324635915932  1.0000
  H   H18       1.0  0.5689386876704106  0.5667132637117263  0.35917588315631127  1.0000
  H   H19       1.0  0.34052469942799485  0.18801638578164415  0.6897161562159438  1.0000
  H   H20       1.0  0.6594564856295194  0.8119714760283688  0.3102744261637724  1.0000
  H   H21       1.0  0.9057982799665184  0.7957390417256183  0.5358523980777576  1.0000
  H   H22       1.0  0.0942161535638206  0.20426491827173976  0.464142697627949  1.0000
  H   H23       1.0  0.8567383599530983  0.0398700519975463  0.6485413634881567  1.0000
  H   H24       1.0  0.14326353218333315  0.9601252798115  0.35146923936620317  1.0000
  C   C1        1.0  0.4256466783952176  0.271836744857481  0.08064093275628176  1.0000
  C   C2        1.0  0.5743537968978103  0.7281703080595535  0.9193561027355769  1.0000
  C   C3        1.0  0.28865380736375107  0.09697669171314521  0.1141243696649425  1.0000
  C   C4        1.0  0.7113454992246487  0.9030303792188474  0.885871342518037  1.0000
  C   C5        1.0  0.19409029351866278  0.4200360313654627  0.8407922233694193  1.0000
  C   C6        1.0  0.8059183854595843  0.5799660337039044  0.15921322379347913  1.0000
  C   C7        1.0  0.9352228843880397  0.4938572172404108  0.5428774701045143  1.0000
  C   C8        1.0  0.06476937401250642  0.5061363294704861  0.4571170442113157  1.0000
  C   C9        1.0  0.9676165505575297  0.2401539601585371  0.05864797006806553  1.0000
  C   C10       1.0  0.03238467485368804  0.7598423713607974  0.9413544941196293  1.0000
  C   C11       1.0  0.21104006382950757  0.9670636611128886  0.7910847475119525  1.0000
  C   C12       1.0  0.7889632337793911  0.0329326217865287  0.2089274122135691  1.0000
  C   C13       1.0  0.7498660319261957  0.2865758662267909  0.9178445325028901  1.0000
  C   C14       1.0  0.25014061649443425  0.713423302347259  0.08216291861860012  1.0000
  C   C15       1.0  0.43872897900950386  0.1321360110226522  0.218779989546448  1.0000
  C   C16       1.0  0.5612736726996843  0.8678700403563016  0.781217445023728  1.0000
  C   C17       1.0  0.8503802728633757  0.2557317956531691  0.8343286192588906  1.0000
  C   C18       1.0  0.14962675056539612  0.7442741692773752  0.16568216445545403  1.0000
  C   C19       1.0  0.35478706426020057  0.40270441352623715  0.705078903672394  1.0000
  C   C20       1.0  0.6452113880934435  0.5972900176109307  0.2949194397843797  1.0000
  C   C21       1.0  0.3095533343458142  0.28078845265730484  0.726953437811744  1.0000
  C   C22       1.0  0.6904371075121388  0.7192080284066051  0.2730441655160831  1.0000
  C   C23       1.0  0.9885733496249713  0.8724276720108577  0.620722447840663  1.0000
  C   C24       1.0  0.011436299177439902  0.12757340773679723  0.3792830820802635  1.0000
  C   C25       1.0  0.9623450523784172  0.9926050652746172  0.67690310228933  1.0000
  C   C26       1.0  0.0376551653212687  0.007392249767846703  0.3231002861289269  1.0000
  N   N1        1.0  0.2059584787938533  0.29239770834382034  0.8129639725441818  1.0000
  N   N2        1.0  0.7940412805047216  0.7076025320295614  0.18703879325205008  1.0000
  N   N3        1.0  0.28104775799690873  0.1866997325726203  0.025830412568353743  1.0000
  N   N4        1.0  0.7189555661284286  0.8133092243237315  0.9741687296772595  1.0000
  N   N5        1.0  0.5240430196180341  0.2416062319195191  0.19607541638796275  1.0000
  N   N6        1.0  0.4759553550335767  0.7584018261327473  0.8039192060484126  1.0000
  N   N7        1.0  0.10462657126508647  0.05251729903952201  0.7868318182212304  1.0000
  N   N8        1.0  0.8953740063081738  0.9474819488178668  0.21317505828734076  1.0000
  N   N9        1.0  0.9893487358928893  0.22521201128696336  0.9251667607114128  1.0000
  N   N10       1.0  0.010662952910770731  0.7747929232698852  0.07484304074468895  1.0000
  N   N11       1.0  0.14525971798426698  0.8574856711534764  0.6932812652654832  1.0000
  N   N12       1.0  0.8547427613499464  0.1425116042619337  0.306726783747699  1.0000
  N   N13       1.0  0.8245505120454696  0.2763817022152112  0.05816601296092478  1.0000
  N   N14       1.0  0.1754509444426446  0.7236116931817591  0.9418431157802799  1.0000
  N   N15       1.0  0.2815137173313644  0.48920843638860845  0.7773536919321984  1.0000
  N   N16       1.0  0.7184903095811563  0.510788838997577  0.22264561050405968  1.0000
  O   O1        1.0  0.8110845979297423  0.4032492933193127  0.48866590705345914  1.0000
  O   O2        1.0  0.1888771547973533  0.5967408111569911  0.5113036531884276  1.0000
  O   O3        1.0  0.9641140944572159  0.5748652609208024  0.660246815735725  1.0000
  O   O4        1.0  0.035859657971606416  0.425121804651468  0.33970808821642606  1.0000
