data_image0
_chemical_formula_structural       Cu2H12C10S8I2
_chemical_formula_sum              "Cu2 H12 C10 S8 I2"
_cell_length_a       7.5879448574809745
_cell_length_b       7.587876065860977
_cell_length_c       10.333669365299258
_cell_angle_alpha    98.69450002734978
_cell_angle_beta     98.6931562117845
_cell_angle_gamma    118.46449812375992

_space_group_name_H-M_alt    "P 1"
_space_group_IT_number       1

loop_
  _space_group_symop_operation_xyz
  'x, y, z'

loop_
  _atom_site_type_symbol
  _atom_site_label
  _atom_site_symmetry_multiplicity
  _atom_site_fract_x
  _atom_site_fract_y
  _atom_site_fract_z
  _atom_site_occupancy
  Cu  Cu1       1.0  0.9612730818688745  0.9612734074257502  0.6173129199147454  1.0000
  Cu  Cu2       1.0  0.038726646049653396  0.0387244431375819  0.3826876639255517  1.0000
  H   H1        1.0  0.45581407823355824  0.7770089919899374  0.5954282756299776  1.0000
  H   H2        1.0  0.22299295714955744  0.5441816868288143  0.4045710477446677  1.0000
  H   H3        1.0  0.5441867195174125  0.22299353590580046  0.4045700549885538  1.0000
  H   H4        1.0  0.7770089148785218  0.4558099422698731  0.595431010409314  1.0000
  H   H5        1.0  0.41619222826741975  0.912193861188797  0.738066715093723  1.0000
  H   H6        1.0  0.08781407390387126  0.5838070981249501  0.2619341326028817  1.0000
  H   H7        1.0  0.5838056424168414  0.08780555685275003  0.261931900537988  1.0000
  H   H8        1.0  0.9121890973860546  0.41619228722751  0.7380689496620151  1.0000
  H   H9        1.0  0.51186577308097  0.04109567130619499  0.6125602679395714  1.0000
  H   H10       1.0  0.9589078079524143  0.4881381811569979  0.3874424654332672  1.0000
  H   H11       1.0  0.48812783749608696  0.958900637173876  0.38743848199074904  1.0000
  H   H12       1.0  0.04109402240793965  0.5118611966086135  0.6125614320608223  1.0000
  C   C1        1.0  0.5769837196281741  0.5769907170083144  0.9819706915722437  1.0000
  C   C2        1.0  0.4230223111711878  0.423027291291298  0.018033852472207502  1.0000
  C   C3        1.0  0.7462092187890973  0.8506665100575077  0.8522191683173121  1.0000
  C   C4        1.0  0.1493356717616336  0.25378524778786027  0.14777828337651042  1.0000
  C   C5        1.0  0.2537878824938318  0.1493313804890519  0.14777628437516202  1.0000
  C   C6        1.0  0.8506606206745742  0.7462110758659151  0.8522188360954461  1.0000
  C   C7        1.0  0.5115830843671246  0.9268720725618707  0.666067295982657  1.0000
  C   C8        1.0  0.07313164901393064  0.4884121164388873  0.333933891980216  1.0000
  C   C9        1.0  0.48841558727478673  0.07312890449291132  0.33393061881331226  1.0000
  C   C10       1.0  0.9268670169612319  0.5115810646716027  0.6660679791380988  1.0000
  S   S1        1.0  0.7778336800881858  0.0322690493393409  0.7588134904307324  1.0000
  S   S2        1.0  0.9677357303667761  0.22216164399451802  0.2411861937712061  1.0000
  S   S3        1.0  0.22216688034429663  0.9677303917554668  0.24118252879885924  1.0000
  S   S4        1.0  0.032265886342329894  0.7778346706088469  0.7588124945027133  1.0000
  S   S5        1.0  0.5752529172237927  0.7999113313705166  0.9572205096319666  1.0000
  S   S6        1.0  0.20009142969346522  0.4247450774337338  0.042779345467977195  1.0000
  S   S7        1.0  0.42474684002871743  0.2000943387757844  0.04277322005475533  1.0000
  S   S8        1.0  0.7999024182020874  0.5752543178472678  0.95722171585129  1.0000
  I   I1        1.0  0.2949190878173623  0.2949109840592641  0.6129110425952717  1.0000
  I   I2        1.0  0.7050880690382186  0.7050805965912089  0.38709741407938475  1.0000
