data_image0
_chemical_formula_structural       Zn4H20C40N12O16
_chemical_formula_sum              "Zn4 H20 C40 N12 O16"
_cell_length_a       9.684385111034052
_cell_length_b       10.572707212036462
_cell_length_c       11.15709337000134
_cell_angle_alpha    90.00003436845634
_cell_angle_beta     90.00004383404213
_cell_angle_gamma    90.00029988347676

_space_group_name_H-M_alt    "P 1"
_space_group_IT_number       1

loop_
  _space_group_symop_operation_xyz
  'x, y, z'

loop_
  _atom_site_type_symbol
  _atom_site_label
  _atom_site_symmetry_multiplicity
  _atom_site_fract_x
  _atom_site_fract_y
  _atom_site_fract_z
  _atom_site_occupancy
  Zn  Zn1       1.0  0.1452768815502026  0.8832615739944106  0.6792076599160026  1.0000
  Zn  Zn2       1.0  0.35472401666534387  0.11673922320802893  0.17920811549179666  1.0000
  Zn  Zn3       1.0  0.8547237621297016  0.38326082859432387  0.820790330781229  1.0000
  Zn  Zn4       1.0  0.6452767330363613  0.6167405721286842  0.32079002900616876  1.0000
  H   H1        1.0  0.69924806928735  0.9276998946992164  0.4673103735767512  1.0000
  H   H2        1.0  0.8007515223322629  0.07229781743051693  0.967308673937005  1.0000
  H   H3        1.0  0.3007523872287905  0.42770102908188795  0.032689736470800305  1.0000
  H   H4        1.0  0.19924734934345173  0.5722996733835474  0.5326900400812706  1.0000
  H   H5        1.0  0.6628453181258109  0.9561107675234908  0.6911580972078328  1.0000
  H   H6        1.0  0.8371540302586882  0.0438867660538591  0.19115670800473347  1.0000
  H   H7        1.0  0.3371536755064071  0.4561113096215408  0.8088426228830626  1.0000
  H   H8        1.0  0.16284423911849194  0.5438886255600578  0.30884229226003174  1.0000
  H   H9        1.0  0.42592989531983966  0.936535294702054  0.7725080537702028  1.0000
  H   H10       1.0  0.0740690198868634  0.0634627253264739  0.27250918950575453  1.0000
  H   H11       1.0  0.5740689867621  0.43653597728881277  0.7274908628504947  1.0000
  H   H12       1.0  0.9259272958631328  0.563464417268186  0.22749161422878225  1.0000
  H   H13       1.0  0.2588864329844895  0.872001643622795  0.43514502429167135  1.0000
  H   H14       1.0  0.24111159288867873  0.1279983732231855  0.935146901166391  1.0000
  H   H15       1.0  0.7411126735422968  0.3720011324158108  0.06485326219191022  1.0000
  H   H16       1.0  0.758886563601621  0.6279991569915  0.5648536364156912  1.0000
  H   H17       1.0  0.6655122750756917  0.8397972190633926  0.9367892448626879  1.0000
  H   H18       1.0  0.8344872896672229  0.1602023649960032  0.43678971116760584  1.0000
  H   H19       1.0  0.3344870883381716  0.33979758952308003  0.5632096179486865  1.0000
  H   H20       1.0  0.16551370770663715  0.6602031326785536  0.0632111463784994  1.0000
  C   C1        1.0  0.6894067278556834  0.7228335762543878  0.07163467868184631  1.0000
  C   C2        1.0  0.8105935478548077  0.2771676633721611  0.5716366847005716  1.0000
  C   C3        1.0  0.3105925612485621  0.22283785127117986  0.42836531741173905  1.0000
  C   C4        1.0  0.1894116542109501  0.7771687820258819  0.9283639358575827  1.0000
  C   C5        1.0  0.6050237466912236  0.8101705355068703  0.14284228910976543  1.0000
  C   C6        1.0  0.8949765917359258  0.1898298043287312  0.6428434063306697  1.0000
  C   C7        1.0  0.39497397489968483  0.31016854931068855  0.35715596298012303  1.0000
  C   C8        1.0  0.1050270800532687  0.6898323629484794  0.8571571656467399  1.0000
  C   C9        1.0  0.5345404835086215  0.9208099480298202  0.11531272493194684  1.0000
  C   C10       1.0  0.9654598306673563  0.0791894281740824  0.6153129311567653  1.0000
  C   C11       1.0  0.46546096633117884  0.42080926430814725  0.38468917386455104  1.0000
  C   C12       1.0  0.0345401128753124  0.5791926115844603  0.8846893718587623  1.0000
  C   C13       1.0  0.5304010016218825  0.9981089313484335  0.0051926663520021  1.0000
  C   C14       1.0  0.9696002481552811  0.0018922653201301003  0.5051919360409373  1.0000
  C   C15       1.0  0.46959469314994357  0.498103609556118  0.49481196431029423  1.0000
  C   C16       1.0  0.030404417863778097  0.501895500038664  0.9948103239805451  1.0000
  C   C17       1.0  0.5049526153982313  0.8802564649434075  0.3051363370722769  1.0000
  C   C18       1.0  0.995047865974243  0.11974303399495062  0.8051356892252175  1.0000
  C   C19       1.0  0.4950465381766947  0.3802586382131993  0.194863746585284  1.0000
  C   C20       1.0  0.004953341241652301  0.619743114941308  0.6948648437657498  1.0000
  C   C21       1.0  0.48195693876922974  0.8969059242200788  0.4346153974790497  1.0000
  C   C22       1.0  0.018042119218975503  0.10309125479096788  0.9346162159772505  1.0000
  C   C23       1.0  0.5180433422662105  0.396906232658594  0.06538379914864123  1.0000
  C   C24       1.0  0.9819579605225287  0.6030931112652099  0.5653843077514795  1.0000
  C   C25       1.0  0.5969927344215621  0.9199022267428777  0.5077948960024443  1.0000
  C   C26       1.0  0.9030074850465227  0.0800951882793584  0.007793570699867303  1.0000
  C   C27       1.0  0.4030081180559435  0.41990225814252813  0.9922040113667879  1.0000
  C   C28       1.0  0.0969909906647359  0.5800977955985687  0.4922054497056721  1.0000
  C   C29       1.0  0.5777567128172266  0.9356985527804297  0.6304003033737048  1.0000
  C   C30       1.0  0.9222425820521636  0.0642989415129094  0.13039987835764322  1.0000
  C   C31       1.0  0.42224319708483904  0.4356985973777868  0.8695986127817367  1.0000
  C   C32       1.0  0.0777558036417574  0.5643004312581825  0.36959913326108323  1.0000
  C   C33       1.0  0.445197953814926  0.9258795719633285  0.6770405402955861  1.0000
  C   C34       1.0  0.0548019098931647  0.07411838634043019  0.17703987657316134  1.0000
  C   C35       1.0  0.5548019001335831  0.4258792778206273  0.8229592666888339  1.0000
  C   C36       1.0  0.9451965317551085  0.5741192868055052  0.3229600367981576  1.0000
  C   C37       1.0  0.3519703697864501  0.8889710480506285  0.4875251898363687  1.0000
  C   C38       1.0  0.1480307999872608  0.11102711100668473  0.9875252028358048  1.0000
  C   C39       1.0  0.6480308986215492  0.3889710013323438  0.012474002377878404  1.0000
  C   C40       1.0  0.8519682923870704  0.6110292542082832  0.5124753253069017  1.0000
  N   N1        1.0  0.5851133281412828  0.785858872257926  0.2623904372268556  1.0000
  N   N2        1.0  0.9148860829939522  0.21414154487175807  0.7623915812012145  1.0000
  N   N3        1.0  0.41488528750630854  0.2858587961456962  0.23760780134079343  1.0000
  N   N4        1.0  0.08511359697141072  0.7141429846437788  0.7376099005884528  1.0000
  N   N5        1.0  0.47057169348400424  0.9630932265208758  0.2174450506447201  1.0000
  N   N6        1.0  0.029429238410443807  0.03690759540433669  0.7174440473126965  1.0000
  N   N7        1.0  0.5294289647133397  0.4630918384464097  0.28255776796167  1.0000
  N   N8        1.0  0.9705714967746887  0.5369085917248809  0.782557335892932  1.0000
  N   N9        1.0  0.3348387578537597  0.9021616121471112  0.606752477204978  1.0000
  N   N10       1.0  0.1651610439484372  0.09783724654275258  0.10675458888276522  1.0000
  N   N11       1.0  0.6651609609403409  0.4021618939779046  0.8932464202959383  1.0000
  N   N12       1.0  0.8348375328627214  0.5978386077570408  0.3932471302636388  1.0000
  O   O1        1.0  0.7362055192207252  0.6253903553171511  0.12018315391225803  1.0000
  O   O2        1.0  0.7637968644253091  0.374609024040808  0.6201833904529509  1.0000
  O   O3        1.0  0.2637911493882044  0.12538113232006512  0.3798140991027169  1.0000
  O   O4        1.0  0.23621199070000642  0.8746188487629992  0.8798163880186396  1.0000
  O   O5        1.0  0.7126900395409591  0.7508957950627035  0.958551176126946  1.0000
  O   O6        1.0  0.7873116095554522  0.24910569473542668  0.4585516605333454  1.0000
  O   O7        1.0  0.28730984984407126  0.25089024966569434  0.5414440520694583  1.0000
  O   O8        1.0  0.2126909270269409  0.7491095126313994  0.04144566130238301  1.0000
  O   O9        1.0  0.6014486568848981  0.9609003833464485  0.9152737969104267  1.0000
  O   O10       1.0  0.8985519215022535  0.03910107846692771  0.4152733421341425  1.0000
  O   O11       1.0  0.3985524292190093  0.4609001298628428  0.5847278221358964  1.0000
  O   O12       1.0  0.10144838578131042  0.5391015520830963  0.08472834434129342  1.0000
  O   O13       1.0  0.4606304631399567  0.09997928789709222  0.0094201970268912  1.0000
  O   O14       1.0  0.03937235070862499  0.9000223453613359  0.5094187841078012  1.0000
  O   O15       1.0  0.5393681258794416  0.5999811833030934  0.4905824196019282  1.0000
  O   O16       1.0  0.960632518841905  0.40002127303400675  0.9905810084952905  1.0000
