data_image0
_chemical_formula_structural       Zn6H38C43S3O33
_chemical_formula_sum              "Zn6 H38 C43 S3 O33"
_cell_length_a       18.796771976601388
_cell_length_b       18.818176720222066
_cell_length_c       18.84241638717349
_cell_angle_alpha    109.30335585580333
_cell_angle_beta     109.33259935858193
_cell_angle_gamma    109.33401841581738

_space_group_name_H-M_alt    "P 1"
_space_group_IT_number       1

loop_
  _space_group_symop_operation_xyz
  'x, y, z'

loop_
  _atom_site_type_symbol
  _atom_site_label
  _atom_site_symmetry_multiplicity
  _atom_site_fract_x
  _atom_site_fract_y
  _atom_site_fract_z
  _atom_site_occupancy
  Zn  Zn1       1.0  0.9471433943527927  1.584650952680027e-05  0.435741253025121  1.0000
  Zn  Zn2       1.0  0.06776573867882969  0.0037553499563501  0.566272149981941  1.0000
  Zn  Zn3       1.0  0.04975248306001828  0.5640521711788792  0.9880137004611597  1.0000
  Zn  Zn4       1.0  0.9279012417082199  0.4263015739715216  0.9738801845871448  1.0000
  Zn  Zn5       1.0  0.4766607223136531  0.565193902569554  0.5375811753915868  1.0000
  Zn  Zn6       1.0  0.49278149831119566  0.4452199315302181  0.4271216978547867  1.0000
  H   H1        1.0  0.9812856128097633  0.21780285426959264  0.6103677957423341  1.0000
  H   H2        1.0  0.001967789950022309  0.8334562723014686  0.2650938760731376  1.0000
  H   H3        1.0  0.08789743905499846  0.2952601038982293  0.6979987134781991  1.0000
  H   H4        1.0  0.7293365280912096  0.6433143745621592  0.48443070296458024  1.0000
  H   H5        1.0  0.6821581350250837  0.7844012972526784  0.5511072585725925  1.0000
  H   H6        1.0  0.86557879284652  0.7738535070241993  0.5244682873725278  1.0000
  H   H7        1.0  0.7285483232712764  0.8188761246040245  0.44000440303197746  1.0000
  H   H8        1.0  0.6486606120283723  0.369023117312608  0.5925753012168256  1.0000
  H   H9        1.0  0.6884468925723725  0.5466620993674739  0.7237142091009969  1.0000
  H   H10       1.0  0.736781676826645  0.37689033759897234  0.7344552101064961  1.0000
  H   H11       1.0  0.8463546917546761  0.565162211811291  0.780610443605347  1.0000
  H   H12       1.0  0.09791567909626048  0.3018653846341052  0.9181586665538644  1.0000
  H   H13       1.0  0.375686442448206  0.6226107448813637  0.3444003902914686  1.0000
  H   H14       1.0  0.31727105731788896  0.445407664832409  0.19622715335259494  1.0000
  H   H15       1.0  0.3016075204715704  0.6426722521063937  0.21625443263850022  1.0000
  H   H16       1.0  0.1739091518362699  0.45480006405032475  0.15657955883733615  1.0000
  H   H17       1.0  0.9140659115050909  0.26531876507205254  0.6855201995327462  1.0000
  H   H18       1.0  0.8851812544186329  0.11373435696004462  0.6458363701992977  1.0000
  H   H19       1.0  0.8748185012783835  0.1992461654631796  0.7601361850244143  1.0000
  H   H20       1.0  0.1015796780888749  0.18766264768268573  0.8286293700079026  1.0000
  H   H21       1.0  0.16265952916192816  0.2560467041603474  0.8017562436913079  1.0000
  H   H22       1.0  0.9367834096324826  0.06822355739451778  0.9244433238573391  1.0000
  H   H23       1.0  0.9350626538916202  0.08211922309806141  0.7175580720931405  1.0000
  H   H24       1.0  0.9097654738949216  0.1450313972888182  0.9747106619399799  1.0000
  H   H25       1.0  0.8276958845416684  0.035323265604134214  0.9003421513450786  1.0000
  H   H26       1.0  0.8204095738599761  0.1272502979106918  0.8296502603017543  1.0000
  H   H27       1.0  0.8463370851732461  0.050153584458179516  0.7790962024547806  1.0000
  H   H28       1.0  0.004362998702454488  0.1640622342127358  0.8696296563985297  1.0000
  H   H29       1.0  0.9758594446237222  0.2396595195175806  0.9189520954265116  1.0000
  H   H30       1.0  0.12616327121985188  0.846737204172726  0.5130715459537568  1.0000
  H   H31       1.0  0.9790934457698556  0.4663912936972069  0.7958946711442251  1.0000
  H   H32       1.0  0.27345694165405376  0.4040262882737693  0.8552950738203149  1.0000
  H   H33       1.0  0.21856839748212303  0.4024703811458537  0.5225146521107786  1.0000
  H   H34       1.0  0.2779968130072489  0.27586393750173943  0.44736107352396437  1.0000
  H   H35       1.0  0.08661898934842323  0.25539360535617556  0.46311224763336856  1.0000
  H   H36       1.0  0.23427108140027997  0.21623231114003263  0.531479182373303  1.0000
  H   H37       1.0  0.024927730645096288  0.7337643189005477  0.1674138081971036  1.0000
  H   H38       1.0  0.9186823794772676  0.5959548254361949  0.1993306875758092  1.0000
  C   C1        1.0  0.10148300063816147  0.1253839576858411  0.48771759134743314  1.0000
  C   C2        1.0  0.953375576869362  0.6258072515889453  0.17185407823733093  1.0000
  C   C3        1.0  0.005887119272600272  0.7808461892227357  0.2761428665723073  1.0000
  C   C4        1.0  0.03213516702123089  0.1156360625754118  0.645261887135021  1.0000
  C   C5        1.0  0.023506750366976845  0.7957874774946561  0.3570502410253836  1.0000
  C   C6        1.0  0.7340555672703459  0.7069251050617993  0.5024845464112174  1.0000
  C   C7        1.0  0.6774303791519783  0.7208684761303699  0.5259456374659164  1.0000
  C   C8        1.0  0.8025777006566557  0.7711535376335876  0.5022176869599377  1.0000
  C   C9        1.0  0.7917996912113736  0.8241618343510383  0.4711936923214849  1.0000
  C   C10       1.0  0.8910484586967796  0.5098221608919148  0.8600380112047004  1.0000
  C   C11       1.0  0.9862072777634339  0.3634057921584031  0.8697075279887156  1.0000
  C   C12       1.0  0.004939634409900877  0.2996306842054324  0.8128437368308068  1.0000
  C   C13       1.0  0.13156657762762342  0.5228038177416253  0.09497790524719826  1.0000
  C   C14       1.0  0.9524645244202858  0.5672458191799948  0.0957709262051124  1.0000
  C   C15       1.0  0.5929310216844143  0.4834946192273152  0.5874767281273916  1.0000
  C   C16       1.0  0.8639972989499041  0.8873936239602928  0.47198147779083366  1.0000
  C   C17       1.0  0.35292776816235255  0.4103317686668575  0.48687600643765433  1.0000
  C   C18       1.0  0.3971236006269976  0.4896178935961046  0.33425994797050135  1.0000
  C   C19       1.0  0.6078362051632594  0.6503329039393151  0.5215082967363924  1.0000
  C   C20       1.0  0.683432187361525  0.42833412955884137  0.6550254737992911  1.0000
  C   C21       1.0  0.660508315142593  0.4898634871789866  0.6612920071876898  1.0000
  C   C22       1.0  0.7493325083752467  0.4350730164072587  0.7283868259611167  1.0000
  C   C23       1.0  0.9389536142025606  0.20387447105424883  0.7842338752249487  1.0000
  C   C24       1.0  0.8263918300024004  0.5076127481776069  0.7875598841232188  1.0000
  C   C25       1.0  0.3380489045476692  0.5693166958361643  0.2775148457910105  1.0000
  C   C26       1.0  0.34621571912032323  0.4979235991422329  0.26176648726778495  1.0000
  C   C27       1.0  0.28037525393118307  0.5796745702788614  0.2132353744784155  1.0000
  C   C28       1.0  0.031215272181668797  0.8769964708583587  0.4175690632942376  1.0000
  C   C29       1.0  0.19801804107510884  0.5156658341947634  0.15582019062925664  1.0000
  C   C30       1.0  0.022083110022180066  0.25009255018670723  0.6805378129236458  1.0000
  C   C31       1.0  0.9852127079803452  0.2994820302123387  0.7255278154437118  1.0000
  C   C32       1.0  0.9400386206683037  0.13844487416883308  0.7092667710357289  1.0000
  C   C33       1.0  0.10141651020013848  0.23174116071124473  0.8024618305285856  1.0000
  C   C34       1.0  0.09544782010485871  0.30777897103306634  0.8613280975931868  1.0000
  C   C35       1.0  0.025643525173172983  0.18356463032769446  0.7098768296926323  1.0000
  C   C36       1.0  0.953442246578305  0.1825189268361669  0.8584057369590353  1.0000
  C   C37       1.0  0.8712440138903617  0.1087348542100628  0.8399458603166747  1.0000
  C   C38       1.0  0.8870021125217774  0.08800589267881521  0.9137252435444194  1.0000
  C   C39       1.0  0.21990217985702284  0.341762170294011  0.4985769539485786  1.0000
  C   C40       1.0  0.28120048453528307  0.33806632370315276  0.47790291452573525  1.0000
  C   C41       1.0  0.1522113109112766  0.26445100338217037  0.48534458735760194  1.0000
  C   C42       1.0  0.16814169970330536  0.20488190123722208  0.5013799765417202  1.0000
  C   C43       1.0  0.9966668232647962  0.7121054557113881  0.20376097512620103  1.0000
  S   S1        1.0  0.03744782136447368  0.726906950458208  0.4006535099027245  1.0000
  S   S2        1.0  0.0138052161467996  0.3960845767424744  0.7135157044984267  1.0000
  S   S3        1.0  0.20127511400004036  0.40628316106636936  0.9205833530618717  1.0000
  O   O1        1.0  0.0214705464451725  0.09475959933044462  0.43187251651820446  1.0000
  O   O2        1.0  0.5712769477371965  0.4298864561757228  0.5102041137125255  1.0000
  O   O3        1.0  0.37453816642096166  0.4893962705023469  0.5350455928504657  1.0000
  O   O4        1.0  0.1270737995257605  0.09144840780760433  0.5320337572522076  1.0000
  O   O5        1.0  0.3899736071799538  0.3874917772260744  0.44521895604374595  1.0000
  O   O6        1.0  0.4106797330350743  0.536452973800735  0.4089802152079897  1.0000
  O   O7        1.0  0.42402919474401557  0.43431540007007646  0.31728266656286047  1.0000
  O   O8        1.0  0.5687784584159487  0.6723811286765412  0.5625368924946839  1.0000
  O   O9        1.0  0.5903674303454807  0.5730950564605238  0.4775920985505166  1.0000
  O   O10       1.0  0.9822901340267263  0.08623706340196689  0.5657865261290451  1.0000
  O   O11       1.0  0.08554870444265818  0.0896770719907138  0.6729198963616552  1.0000
  O   O12       1.0  0.8658204173361167  0.4547091980644424  0.8834842702442809  1.0000
  O   O13       1.0  0.8428103203388845  0.9163536624465111  0.41911742989139356  1.0000
  O   O14       1.0  0.9414672884627108  0.9099577987663281  0.5227577580084525  1.0000
  O   O15       1.0  0.9886009367507214  0.9089097753216535  0.3865829898246388  1.0000
  O   O16       1.0  0.08279113951493845  0.9103275489580298  0.49999524743324014  1.0000
  O   O17       1.0  0.9713232009104258  0.5681999862854992  0.8938401899156356  1.0000
  O   O18       1.0  0.9701582706853528  0.704379714640318  0.423162760564061  1.0000
  O   O19       1.0  0.04783654098023488  0.6609449982727112  0.3475019771949091  1.0000
  O   O20       1.0  0.12963190254310314  0.7930069424462545  0.4856255255603158  1.0000
  O   O21       1.0  0.10250772304719656  0.4621876922213561  0.7746360678217383  1.0000
  O   O22       1.0  0.9809330138071104  0.3621555338642751  0.6219734037069029  1.0000
  O   O23       1.0  0.026350619944743345  0.44257647916782616  0.8919347654857501  1.0000
  O   O24       1.0  0.9503548089994566  0.42942825833912224  0.7325644160185475  1.0000
  O   O25       1.0  0.19820184316799325  0.4820766099621707  0.9655231483813222  1.0000
  O   O26       1.0  0.2605201847168459  0.38392904149756657  0.9673676683435131  1.0000
  O   O27       1.0  0.22397476372336195  0.413876021502297  0.8464875867341417  1.0000
  O   O28       1.0  0.928740023815436  0.33166067377278813  0.889619419303237  1.0000
  O   O29       1.0  0.15329898535421188  0.5869286767360649  0.08041105176342699  1.0000
  O   O30       1.0  0.053627335891498276  0.4625367061539905  0.05975006771319601  1.0000
  O   O31       1.0  0.9976835502375463  0.6007953860700398  0.06627875140916455  1.0000
  O   O32       1.0  0.9062234614442489  0.4849100810536272  0.06453980847074091  1.0000
  O   O33       1.0  0.5613599674156475  0.5327230069715087  0.6062398814504063  1.0000
