data_image0
_chemical_formula_structural       Zn8P8H40C24N8O24
_chemical_formula_sum              "Zn8 P8 H40 C24 N8 O24"
_cell_length_a       7.958583572
_cell_length_b       8.09188246
_cell_length_c       18.83
_cell_angle_alpha    90.0
_cell_angle_beta     90.0
_cell_angle_gamma    90.0

_space_group_name_H-M_alt    "P 1"
_space_group_IT_number       1

loop_
  _space_group_symop_operation_xyz
  'x, y, z'

loop_
  _atom_site_type_symbol
  _atom_site_label
  _atom_site_symmetry_multiplicity
  _atom_site_fract_x
  _atom_site_fract_y
  _atom_site_fract_z
  _atom_site_occupancy
  Zn  Zn1       1.0  0.1544345157502889  0.4168028906341804  0.2019580456718018  1.0000
  Zn  Zn2       1.0  0.6544330348335023  0.4168016548277933  0.29803983005841417  1.0000
  Zn  Zn3       1.0  0.15443325924529455  0.0831957215552563  0.7019596388741363  1.0000
  Zn  Zn4       1.0  0.34556651634291297  0.9168027386299897  0.20195910780669377  1.0000
  Zn  Zn5       1.0  0.8455675484361149  0.5831992769702197  0.7980408921933062  1.0000
  Zn  Zn6       1.0  0.3455652598379189  0.5831980411638327  0.7019601699415858  1.0000
  Zn  Zn7       1.0  0.8455650354261335  0.9168039744363767  0.2980408921933062  1.0000
  Zn  Zn8       1.0  0.6544355478434907  0.0831969573616362  0.7980419543281982  1.0000
  P   P1        1.0  0.993732104268467  0.041573762553142  0.1608682952735023  1.0000
  P   P2        1.0  0.4937323286802595  0.0415712909403751  0.3391327668613897  1.0000
  P   P3        1.0  0.9937308477634728  0.4584260854426674  0.6608682952735023  1.0000
  P   P4        1.0  0.506267222496156  0.5415723747425787  0.1608667020711607  1.0000
  P   P5        1.0  0.006271216422930998  0.9584296408576378  0.8391338289962817  1.0000
  P   P6        1.0  0.506267222496156  0.9584284050512508  0.6608682952735023  1.0000
  P   P7        1.0  0.0062699599179368  0.5415711389361919  0.3391290493892711  1.0000
  P   P8        1.0  0.4937348416902409  0.4584297928618213  0.8391332979288393  1.0000
  H   H1        1.0  0.9465679328296444  0.0813556058499643  0.0908035050451375  1.0000
  H   H2        1.0  0.4465656442314482  0.0813518984308104  0.409197026022305  1.0000
  H   H3        1.0  0.9465666763246503  0.4186442421458523  0.5908035050451375  1.0000
  H   H4        1.0  0.553433906944967  0.5813542180393938  0.090802973977695  1.0000
  H   H5        1.0  0.0534353878617537  0.9186490333672026  0.9091980881571969  1.0000
  H   H6        1.0  0.553433906944967  0.9186465617544357  0.590804036112587  1.0000
  H   H7        1.0  0.0534291053367824  0.58134927481386  0.4091954328199705  1.0000
  H   H8        1.0  0.446569413746431  0.418651656984153  0.9091975570897475  1.0000
  H   H9        1.0  0.8781085147597165  0.5530295357256065  0.1691332979288376  1.0000
  H   H10       1.0  0.3781112521814975  0.5530320073383734  0.33086617100372  1.0000
  H   H11       1.0  0.8781110277697053  0.946970008261836  0.6691332979288375  1.0000
  H   H12       1.0  0.621889555499912  0.0530296877297971  0.169132766861388  1.0000
  H   H13       1.0  0.1218910364166987  0.4469676886532525  0.8308667020711624  1.0000
  H   H14       1.0  0.6218882989949177  0.4469689244596395  0.6691332979288375  1.0000
  H   H15       1.0  0.12188977991170447  0.0530272161170302  0.330867233138612  1.0000
  H   H16       1.0  0.3781112521814975  0.9469712440682159  0.8308672331386119  1.0000
  H   H17       1.0  0.03505146330076059  0.6907959955710936  0.1572262347318087  1.0000
  H   H18       1.0  0.5350575214139397  0.6907947597647137  0.3427732342007417  1.0000
  H   H19       1.0  0.03505397631074909  0.8092047842227288  0.6572257036643663  1.0000
  H   H20       1.0  0.4649470557824529  0.19079367596251737  0.1572257036643663  1.0000
  H   H21       1.0  0.9649455748656661  0.3092037004205324  0.8427732342007417  1.0000
  H   H22       1.0  0.4649457992774585  0.3092024646141454  0.6572272968667007  1.0000
  H   H23       1.0  0.9649468313706604  0.19079367596251737  0.3427737652681913  1.0000
  H   H24       1.0  0.5350550084039511  0.8092072558354957  0.8427742963356337  1.0000
  H   H25       1.0  0.7992804174828123  0.3541005463393745  0.07921295804567309  1.0000
  H   H26       1.0  0.2992806418946046  0.3541030179521414  0.4207859798194349  1.0000
  H   H27       1.0  0.7992804174828123  0.1458968300436752  0.5792134891131154  1.0000
  H   H28       1.0  0.7007214222917995  0.854104101754338  0.0792140201805651  1.0000
  H   H29       1.0  0.20072039019859733  0.6458942064267177  0.9207854487519923  1.0000
  H   H30       1.0  0.7007176527768166  0.6458942064267177  0.5792140201805651  1.0000
  H   H31       1.0  0.20072039019859733  0.854100394335191  0.4207865108868844  1.0000
  H   H32       1.0  0.2992793853896102  0.145898065850055  0.9207865108868843  1.0000
  H   H33       1.0  0.192495308510658  0.7129181656452275  0.0496080722251691  1.0000
  H   H34       1.0  0.6925001101188428  0.7129144582260807  0.4503929899097158  1.0000
  H   H35       1.0  0.1924990780256408  0.7870813783422153  0.549609134360061  1.0000
  H   H36       1.0  0.3075006975625669  0.212917081843031  0.049609134360061084  1.0000
  H   H37       1.0  0.8074992166457802  0.2870864735719323  0.950391927774831  1.0000
  H   H38       1.0  0.3074969280475912  0.2870840019591654  0.5496070100902841  1.0000
  H   H39       1.0  0.8075004731507744  0.212915846036644  0.4503908656399389  1.0000
  H   H40       1.0  0.6925001101188428  0.7870838499549819  0.9503913967073813  1.0000
  C   C1        1.0  0.9956771739985155  0.5374324233572736  0.0726447158789156  1.0000
  C   C2        1.0  0.4956799114202964  0.5374348949700405  0.42735262878385777  1.0000
  C   C3        1.0  0.99567843050351  0.9625634132110223  0.5726457780138077  1.0000
  C   C4        1.0  0.504320896261113  0.0374375185869908  0.0726468401486997  1.0000
  C   C5        1.0  0.0043186076629169  0.4625648010215926  0.9273526287838577  1.0000
  C   C6        1.0  0.5043196397561189  0.4625635652152056  0.5726473712161422  1.0000
  C   C7        1.0  0.0043211206729055  0.037435046974224  0.4273531598513003  1.0000
  C   C8        1.0  0.4956799114202964  0.9625646490174022  0.9273536909187498  1.0000
  C   C9        1.0  0.8871666592583978  0.4181313824966253  0.0443738714816817  1.0000
  C   C10       1.0  0.3871681401751843  0.4181301466902454  0.4556250663834334  1.0000
  C   C11       1.0  0.8871654027534033  0.0818672296928042  0.5443744025491242  1.0000
  C   C12       1.0  0.612835180516214  0.9181324662988217  0.0443744025491242  1.0000
  C   C13       1.0  0.1128316354130234  0.5818683134950007  0.9556261285183253  1.0000
  C   C14       1.0  0.6128314110012312  0.5818670776886208  0.5443749336165666  1.0000
  C   C15       1.0  0.112834148423012  0.9181299946860548  0.45562612851831824  1.0000
  C   C16       1.0  0.38716688367018987  0.0818684654991912  0.9556255974508758  1.0000
  C   C17       1.0  0.10873542913397218  0.6191377624138141  0.0278459904407882  1.0000
  C   C18       1.0  0.6087389742371627  0.6191389982202011  0.47215347849176936  1.0000
  C   C19       1.0  0.1087366856389664  0.8808593099608617  0.5278465215082306  1.0000
  C   C20       1.0  0.3912630899492413  0.11914038603076453  0.0278470525756802  1.0000
  C   C21       1.0  0.8912578395174791  0.380859461965045  0.9721529474243198  1.0000
  C   C22       1.0  0.3912605769392527  0.380859461965045  0.5278465215082306  1.0000
  C   C23       1.0  0.891262865537449  0.1191379144179976  0.47215347849176936  1.0000
  C   C24       1.0  0.6087377177321682  0.8808617815736284  0.9721534784917693  1.0000
  N   N1        1.0  0.9964436420445961  0.5706434841121037  0.1474885820499239  1.0000
  N   N2        1.0  0.4964476359713714  0.5706434841121037  0.3525114179500832  1.0000
  N   N3        1.0  0.9964436420445961  0.9293560598753459  0.6474880509824743  1.0000
  N   N4        1.0  0.5035556847200269  0.0706436361162872  0.14748805098247428  1.0000
  N   N5        1.0  0.0035533961218306  0.4293549760731423  0.8525114179500832  1.0000
  N   N6        1.0  0.5035544282150324  0.42935621187952944  0.6474885820499168  1.0000
  N   N7        1.0  0.003557165636813399  0.0706424003099002  0.3525124800849682  1.0000
  N   N8        1.0  0.4964438664563886  0.9293572956817258  0.852512480084968  1.0000
  O   O1        1.0  0.0641759925468293  0.1938856635344663  0.19761816250663597  1.0000
  O   O2        1.0  0.5641795376500198  0.1938831919216994  0.3023834306956985  1.0000
  O   O3        1.0  0.064174736041835  0.30611418446135025  0.6976176314391935  1.0000
  O   O4        1.0  0.43581875702140127  0.6938830399175089  0.1976165693043015  1.0000
  O   O5        1.0  0.935827328144569  0.8061177398763135  0.8023844928305904  1.0000
  O   O6        1.0  0.43581875702140127  0.8061165040699336  0.697617100371744  1.0000
  O   O7        1.0  0.9358197891146034  0.6938855115302829  0.3023834306956985  1.0000
  O   O8        1.0  0.5641833071650026  0.3061178918805041  0.8023866171003744  1.0000
  O   O9        1.0  0.1260362463905054  0.9021658478217705  0.15556080722251409  1.0000
  O   O10       1.0  0.626036021978713  0.9021633762090033  0.3444402549123708  1.0000
  O   O11       1.0  0.1260362463905054  0.5978336961656723  0.6555602761550716  1.0000
  O   O12       1.0  0.3739635291977024  0.4021635282131868  0.1555592140201796  1.0000
  O   O13       1.0  0.8739645612909042  0.0978363197826297  0.8444407859798204  1.0000
  O   O14       1.0  0.3739622726927152  0.0978375555890096  0.6555597450876292  1.0000
  O   O15       1.0  0.87397210032087  0.402158584987653  0.3444312267657992  1.0000
  O   O16       1.0  0.626036021978713  0.5978411110039801  0.8444381306425937  1.0000
  O   O17       1.0  0.8313690420087239  0.9769963959659409  0.1965231014338826  1.0000
  O   O18       1.0  0.3313680099155221  0.9769951601595537  0.3034768985661174  1.0000
  O   O19       1.0  0.8313677855037298  0.523004383827889  0.6965231014338826  1.0000
  O   O20       1.0  0.6686302847558991  0.4769965479701241  0.1965225703664331  1.0000
  O   O21       1.0  0.16863176567268565  0.023008243251226208  0.8034779607010094  1.0000
  O   O22       1.0  0.6686302847558991  0.0230057716384593  0.6965241635687747  1.0000
  O   O23       1.0  0.16863804819765693  0.4770039628084248  0.3034753053637829  1.0000
  O   O24       1.0  0.3313705229255105  0.5230019122151219  0.8034774296335669  1.0000
