data_image0
_chemical_formula_structural       Cu6B2H44W2C34S10N16
_chemical_formula_sum              "Cu6 B2 H44 W2 C34 S10 N16"
_cell_length_a       10.525128962483834
_cell_length_b       12.249410169173975
_cell_length_c       12.591954916054277
_cell_angle_alpha    80.48209309680288
_cell_angle_beta     70.46457930501457
_cell_angle_gamma    66.91313746798983

_space_group_name_H-M_alt    "P 1"
_space_group_IT_number       1

loop_
  _space_group_symop_operation_xyz
  'x, y, z'

loop_
  _atom_site_type_symbol
  _atom_site_label
  _atom_site_symmetry_multiplicity
  _atom_site_fract_x
  _atom_site_fract_y
  _atom_site_fract_z
  _atom_site_occupancy
  Cu  Cu1       1.0  0.7244433528127205  0.7759034167772255  0.011601650753199523  1.0000
  Cu  Cu2       1.0  0.2755531444235118  0.22409671811674067  0.9883896533118277  1.0000
  Cu  Cu3       1.0  0.6583898956223069  0.930609701856781  0.18390259511401316  1.0000
  Cu  Cu4       1.0  0.34160674307578637  0.06939225350476622  0.8160994925128052  1.0000
  Cu  Cu5       1.0  0.9457876154786292  0.8068450994582791  0.07353015470050656  1.0000
  Cu  Cu6       1.0  0.054219916589587996  0.19315503070571086  0.9264668461081698  1.0000
  B   B1        1.0  0.8239011024987307  0.43107766346437154  0.35899105902799294  1.0000
  B   B2        1.0  0.17609934082698694  0.5689225040659097  0.641010271078038  1.0000
  H   H1        1.0  0.466698614714119  0.6845132799570947  0.6454210743114501  1.0000
  H   H2        1.0  0.5333016690456703  0.315489551494764  0.35458066092354573  1.0000
  H   H3        1.0  0.5936014666815339  0.8942649572970895  0.44706308483534246  1.0000
  H   H4        1.0  0.4064032372949243  0.1057369740106964  0.5529383731790463  1.0000
  H   H5        1.0  0.42396693134562485  0.887954938174268  0.533593830179342  1.0000
  H   H6        1.0  0.576037759315497  0.1120470000047789  0.46640921873462576  1.0000
  H   H7        1.0  0.47097023564332147  0.8854683263550529  0.38422894584454786  1.0000
  H   H8        1.0  0.5290334451935905  0.1145336156896235  0.6157743806334184  1.0000
  H   H9        1.0  0.6718716956697365  0.3226552988824096  0.09414771859201924  1.0000
  H   H10       1.0  0.3281268430568717  0.6773492920556734  0.9058494463370367  1.0000
  H   H11       1.0  0.5490556547540352  0.44705518411922174  0.6901729748520465  1.0000
  H   H12       1.0  0.4509445605601173  0.5529432076066741  0.30982791253941855  1.0000
  H   H13       1.0  0.7372618356076118  0.3787956997409835  0.620577944209906  1.0000
  H   H14       1.0  0.2627392432801659  0.6212053451695992  0.37942147984695396  1.0000
  H   H15       1.0  0.6079907631982593  0.36239553682047915  0.5696051658581852  1.0000
  H   H16       1.0  0.3920099414273679  0.6376063893360355  0.43039262971348796  1.0000
  H   H17       1.0  0.5285208051320609  0.6534733465192063  0.06852809563612541  1.0000
  H   H18       1.0  0.47148012750512447  0.34653035544169347  0.9314701426501203  1.0000
  H   H19       1.0  0.5826886903233158  0.5247220631052018  0.9921967454472737  1.0000
  H   H20       1.0  0.4173150304596051  0.47527985832568476  0.007801808331969147  1.0000
  H   H21       1.0  0.7001085405657721  0.6028529883344333  0.9656990775185436  1.0000
  H   H22       1.0  0.29989455131276105  0.3971480522805209  0.03430058686009829  1.0000
  H   H23       1.0  0.29832931932399015  0.41361308462667523  0.29625658620565093  1.0000
  H   H24       1.0  0.70167203209197  0.586382656490166  0.7037475957417886  1.0000
  H   H25       1.0  0.17457491450650056  0.6453793250325007  0.08473845365178793  1.0000
  H   H26       1.0  0.8254274733643427  0.3546163984761961  0.9152622689325086  1.0000
  H   H27       1.0  0.2964961852873671  0.5969435156976175  0.16670506852316444  1.0000
  H   H28       1.0  0.7035064372527059  0.40305398017982713  0.8332953013259117  1.0000
  H   H29       1.0  0.13059458344569205  0.7182179499226253  0.20932068780116714  1.0000
  H   H30       1.0  0.8694070292701713  0.28177954982044895  0.7906799596119073  1.0000
  H   H31       1.0  0.9408378346233093  0.1717463417591389  0.24875723099188463  1.0000
  H   H32       1.0  0.05915676258440779  0.8282511575582846  0.7512389957709048  1.0000
  H   H33       1.0  0.7914477503279755  0.1491599717805201  0.23343658438508913  1.0000
  H   H34       1.0  0.20854313067076197  0.8508437447872411  0.7665588613926532  1.0000
  H   H35       1.0  0.7781412694438503  0.20207478949977536  0.3623332108402694  1.0000
  H   H36       1.0  0.22185447718100462  0.7979200523373393  0.6376647195789146  1.0000
  H   H37       1.0  0.035736924283320086  0.3032328814651209  0.5138694143316727  1.0000
  H   H38       1.0  0.9642704860779152  0.6967628364579567  0.4861331022317684  1.0000
  H   H39       1.0  0.21787388027616572  0.24000271969448056  0.4288530808293559  1.0000
  H   H40       1.0  0.7821308436733009  0.7599992013064137  0.5711459908356745  1.0000
  H   H41       1.0  0.07799897634560442  0.21412552996049075  0.3999845167200249  1.0000
  H   H42       1.0  0.9220092025129463  0.785868415163833  0.6000188704644174  1.0000
  H   H43       1.0  0.8345163253540875  0.341082501648728  0.41565384191310545  1.0000
  H   H44       1.0  0.16548348906723484  0.658916785065621  0.5843485987923244  1.0000
  W   W1        1.0  0.7839764581844052  0.6887306699704966  0.20165513617078556  1.0000
  W   W2        1.0  0.2160252695807686  0.3112712454491202  0.7983407909373099  1.0000
  C   C1        1.0  0.5759130007752019  0.7230574570157914  0.467220706531734  1.0000
  C   C2        1.0  0.4240907000347178  0.27694447472199357  0.5327802335968743  1.0000
  C   C3        1.0  0.5412530497626806  0.652962923281237  0.5640283169484804  1.0000
  C   C4        1.0  0.45874739356303723  0.3470372442490444  0.4359730131575573  1.0000
  C   C5        1.0  0.11585814088827825  0.5445762050259758  0.23799202179709059  1.0000
  C   C6        1.0  0.8841424486880314  0.4554213054539886  0.7620104940795615  1.0000
  C   C7        1.0  0.6236306483635019  0.5352341513874991  0.5360830061832405  1.0000
  C   C8        1.0  0.3763687917956702  0.46476601657277444  0.4639178060370099  1.0000
  C   C9        1.0  0.5948152719145625  0.8534500871475996  0.8191936482393772  1.0000
  C   C10       1.0  0.40516526555913407  0.14654036951233712  0.18080680234649554  1.0000
  C   C11       1.0  0.6841047870071438  0.4938130800117762  0.11893920553139027  1.0000
  C   C12       1.0  0.3158955100679819  0.5061897445688217  0.8810609388040263  1.0000
  C   C13       1.0  0.8298413310343024  0.08285906733866  0.9894750328015293  1.0000
  C   C14       1.0  0.17015330133070725  0.9171428888828784  0.010526019053713863  1.0000
  C   C15       1.0  0.5129367743922587  0.8544671341611194  0.45702414798103075  1.0000
  C   C16       1.0  0.48706932032823164  0.14553390859947513  0.5429778655047528  1.0000
  C   C17       1.0  0.7014982261424975  0.37344518121275183  0.13820443574586258  1.0000
  C   C18       1.0  0.298497872069845  0.6265603227519352  0.86179722397452  1.0000
  C   C19       1.0  0.0885733960691297  0.38821945429467053  0.35029789733619043  1.0000
  C   C20       1.0  0.9114298420600023  0.6117789292699669  0.6497029528130656  1.0000
  C   C21       1.0  0.6302212985848642  0.4247145615699779  0.607702304799041  1.0000
  C   C22       1.0  0.36978055545789357  0.5752847071062207  0.392297194429034  1.0000
  C   C23       1.0  0.6201434030226879  0.5737176945583684  0.03276025384315067  1.0000
  C   C24       1.0  0.3798596955135168  0.4262833426209554  0.9672386150856981  1.0000
  C   C25       1.0  0.18741916060129432  0.4433141841509426  0.29511534324908695  1.0000
  C   C26       1.0  0.8125806604777069  0.5566850991277762  0.7048863020065569  1.0000
  C   C27       1.0  0.7691354606617369  0.3302204110055413  0.2225009139468881  1.0000
  C   C28       1.0  0.23085816853672728  0.6697815456459965  0.7774996200225743  1.0000
  C   C29       1.0  0.18177622567978352  0.6311220283108626  0.1711414416722335  1.0000
  C   C30       1.0  0.8182274066844998  0.36887546370095964  0.828858650612844  1.0000
  C   C31       1.0  0.822143253395723  0.20676115025309366  0.27006548892150306  1.0000
  C   C32       1.0  0.17785094291917164  0.7932372440527827  0.7299322911552438  1.0000
  C   C33       1.0  0.1053943907507104  0.28056408649953823  0.42722628351361175  1.0000
  C   C34       1.0  0.8946098572026249  0.7194342931994766  0.5727742890716386  1.0000
  S   S1        1.0  0.5571353143684307  0.7986030202804743  0.1813345087062005  1.0000
  S   S2        1.0  0.44286579115001984  0.20139801088758705  0.8186617335515083  1.0000
  S   S3        1.0  0.9378762405494856  0.6471839902795439  0.018901422278503357  1.0000
  S   S4        1.0  0.06212449070681459  0.3528179221344488  0.9810931914940255  1.0000
  S   S5        1.0  0.8398502371668786  0.8300320783114544  0.2600699448172464  1.0000
  S   S6        1.0  0.16015046745874884  0.16996984784506  0.7399278507544268  1.0000
  S   S7        1.0  0.5004826007375627  0.8966568509765268  0.729954938494963  1.0000
  S   S8        1.0  0.4994923271563109  0.10333718392158181  0.2700488583538316  1.0000
  S   S9        1.0  0.7239164576610052  0.0169399716836125  0.9862254693649747  1.0000
  S   S10       1.0  0.27608364655984025  0.9830655339967154  0.01377905734833724  1.0000
  N   N1        1.0  0.9779974874941856  0.5507039030850792  0.2560379866516699  1.0000
  N   N2        1.0  0.022004138537013853  0.4492935897867271  0.7439610698618325  1.0000
  N   N3        1.0  0.9645688436186151  0.45397163358837395  0.3244802017301042  1.0000
  N   N4        1.0  0.035432769097241155  0.5460258661547003  0.6755204456829702  1.0000
  N   N5        1.0  0.6763607468090457  0.6507269725695723  0.3829383498972519  1.0000
  N   N6        1.0  0.3236423384118154  0.3492740714810126  0.617062109931176  1.0000
  N   N7        1.0  0.7037508818598255  0.5362213870689204  0.4267931742965204  1.0000
  N   N8        1.0  0.2962501770549438  0.4637796681485539  0.5732086361096905  1.0000
  N   N9        1.0  0.7378208202133294  0.5235704313335319  0.18997042508012646  1.0000
  N   N10       1.0  0.26217744389803244  0.47643240784958624  0.8100318652828662  1.0000
  N   N11       1.0  0.7866745712314938  0.42287692641906466  0.2537047845007622  1.0000
  N   N12       1.0  0.21332246170176455  0.5771241373896602  0.7462965452618775  1.0000
  N   N13       1.0  0.6624957444853055  0.8223812071827865  0.8838168893631606  1.0000
  N   N14       1.0  0.3374921097424561  0.17761098791524432  0.11617967463992326  1.0000
  N   N15       1.0  0.9071166344631652  0.13183834153149832  0.9888197495168853  1.0000
  N   N16       1.0  0.09289102118097507  0.8681706749556782  0.011180537878424022  1.0000
