data_image0
_chemical_formula_structural       Zn2H24C40S2N6O12
_chemical_formula_sum              "Zn2 H24 C40 S2 N6 O12"
_cell_length_a       7.219803560761594
_cell_length_b       12.480146359994748
_cell_length_c       14.423193626141966
_cell_angle_alpha    75.1959874605611
_cell_angle_beta     76.7890492772098
_cell_angle_gamma    88.41702746364797

_space_group_name_H-M_alt    "P 1"
_space_group_IT_number       1

loop_
  _space_group_symop_operation_xyz
  'x, y, z'

loop_
  _atom_site_type_symbol
  _atom_site_label
  _atom_site_symmetry_multiplicity
  _atom_site_fract_x
  _atom_site_fract_y
  _atom_site_fract_z
  _atom_site_occupancy
  Zn  Zn1       1.0  0.8169861249129441  0.982525193914725  0.070374701443619  1.0000
  Zn  Zn2       1.0  0.18301260575071865  0.01748443190912499  0.9296261324073997  1.0000
  H   H1        1.0  0.08269790383716467  0.3243615559094053  0.7389863387404036  1.0000
  H   H2        1.0  0.9173143192411075  0.6756333304013963  0.2610063381171416  1.0000
  H   H3        1.0  0.3916626013010784  0.6897659665678332  0.8176837419127312  1.0000
  H   H4        1.0  0.6083294334745519  0.3102512955750426  0.1823051607731402  1.0000
  H   H5        1.0  0.9746314351553804  0.49665863688762346  0.6350010986463348  1.0000
  H   H6        1.0  0.025370758071183292  0.5033346563037709  0.36498820021144257  1.0000
  H   H7        1.0  0.7794792015694725  0.0169438832742443  0.2685386841641488  1.0000
  H   H8        1.0  0.22051298574118047  0.9830491505724978  0.7314663697144754  1.0000
  H   H9        1.0  0.12464169555595818  0.9214699485707951  0.2655707528279836  1.0000
  H   H10       1.0  0.8753666608672006  0.0785330948410703  0.7344282833130508  1.0000
  H   H11       1.0  0.4027178874291124  0.9225775751302692  0.12419414604711691  1.0000
  H   H12       1.0  0.5972905476246952  0.07742709179819937  0.8758066213081225  1.0000
  H   H13       1.0  0.5201833299481677  0.024251620390025198  0.4139030424476574  1.0000
  H   H14       1.0  0.47981299813096717  0.9757389328689212  0.5861020594333228  1.0000
  H   H15       1.0  0.5131484965140487  0.25605584417458965  0.918769352628175  1.0000
  H   H16       1.0  0.4868484748959077  0.743947169405885  0.08123167958907383  1.0000
  H   H17       1.0  0.4049216002873237  0.43006318632369994  0.8171667805681582  1.0000
  H   H18       1.0  0.5950626211678269  0.5699407054157106  0.18283135921873153  1.0000
  H   H19       1.0  0.4859168324513234  0.7980974914774207  0.9250565631962577  1.0000
  H   H20       1.0  0.5140692804241667  0.20191552311313637  0.07493945057604633  1.0000
  H   H21       1.0  0.9773622915574194  0.6967415085935257  0.659397051587057  1.0000
  H   H22       1.0  0.0226341959708094  0.3032523032882963  0.34061081665008447  1.0000
  H   H23       1.0  0.07036692697261769  0.8026265459664331  0.7679449057038287  1.0000
  H   H24       1.0  0.9296352093712984  0.1973664458934364  0.23206249103261467  1.0000
  C   C1        1.0  0.935157791157998  0.3487078516197499  0.755607393573108  1.0000
  C   C2        1.0  0.064841832663376  0.6512911251141631  0.24438794149925525  1.0000
  C   C3        1.0  0.5397696425447975  0.7149584612599608  0.8076490445226912  1.0000
  C   C4        1.0  0.4602276107007767  0.2850496662534852  0.1923425638198069  1.0000
  C   C5        1.0  0.8751729047459307  0.44448521413831066  0.6978636294355881  1.0000
  C   C6        1.0  0.1248267278266226  0.5555138089542951  0.3021289213477517  1.0000
  C   C7        1.0  0.8443369723283852  0.8740503641371118  0.9144886035346717  1.0000
  C   C8        1.0  0.15564985997009737  0.1259492705519207  0.085517064480193  1.0000
  C   C9        1.0  0.6323327410696038  0.9966402151125565  0.271337532262038  1.0000
  C   C10       1.0  0.3676652654447994  0.003355315283478393  0.728666336110763  1.0000
  C   C11       1.0  0.2999459674775266  0.9750676869649977  0.35029901989801715  1.0000
  C   C12       1.0  0.7000563971660229  0.024929531736645992  0.6497026118262215  1.0000
  C   C13       1.0  0.26756903654736414  0.9428926888636932  0.269018616890783  1.0000
  C   C14       1.0  0.7324363398150099  0.057107827790289896  0.7309833679718524  1.0000
  C   C15       1.0  0.806234948888466  0.28245520183058653  0.8366772756489242  1.0000
  C   C16       1.0  0.19376751188808328  0.71754373310506  0.16332051871147268  1.0000
  C   C17       1.0  0.42116711516918315  0.9424628981679387  0.19080176666855678  1.0000
  C   C18       1.0  0.5788354537082726  0.057538419889077395  0.8092017568383059  1.0000
  C   C19       1.0  0.4869672014379418  0.00038458377034799766  0.351947215074155  1.0000
  C   C20       1.0  0.5130321471111969  0.999609313799624  0.6480554556561986  1.0000
  C   C21       1.0  0.7846612424384816  0.8055975945628405  0.8535492991109881  1.0000
  C   C22       1.0  0.21533176515443128  0.1944112509457128  0.14644888288201235  1.0000
  C   C23       1.0  0.6142383736116984  0.31028384962507255  0.8581184262214594  1.0000
  C   C24       1.0  0.3857629603029906  0.689720875440372  0.14187897720272258  1.0000
  C   C25       1.0  0.8749960569192153  0.18009575334252048  0.8983746431916162  1.0000
  C   C26       1.0  0.1250006971300692  0.8199030913445499  0.10162867367655797  1.0000
  C   C27       1.0  0.6847394825730292  0.4731547417071056  0.7224627220664176  1.0000
  C   C28       1.0  0.3152614538128304  0.526841842595978  0.2775274174312515  1.0000
  C   C29       1.0  0.5529548531813618  0.40631782826301327  0.8011122671770824  1.0000
  C   C30       1.0  0.4470437092820347  0.5936884925792612  0.19888858460680595  1.0000
  C   C31       1.0  0.6786908699967782  0.6881406460967979  0.7329543322463935  1.0000
  C   C32       1.0  0.3213049876780758  0.3118682271515212  0.26704213260111237  1.0000
  C   C33       1.0  0.13996947883030944  0.9867341826813386  0.43057840303679046  1.0000
  C   C34       1.0  0.8600366049871583  0.013252287183739494  0.5694236695581056  1.0000
  C   C35       1.0  0.5932068740323615  0.7741291556982972  0.8679504767960398  1.0000
  C   C36       1.0  0.40679156063998795  0.22587467771553799  0.13205091049169232  1.0000
  C   C37       1.0  0.8704198707604576  0.7188434288814635  0.7176421422797078  1.0000
  C   C38       1.0  0.12958074659727714  0.2811478444641935  0.2823692543210684  1.0000
  C   C39       1.0  0.9223264824843014  0.7774145526766387  0.7783536894834956  1.0000
  C   C40       1.0  0.07767578602625491  0.22258094979101628  0.221651779604585  1.0000
  S   S1        1.0  0.6143701779637567  0.6051799370682147  0.6600510400401448  1.0000
  S   S2        1.0  0.38564695919264846  0.39482742799443565  0.3399363835799323  1.0000
  N   N1        1.0  0.5992836853536047  0.9704931632896743  0.19140210344668437  1.0000
  N   N2        1.0  0.40071883873903863  0.029507314034852093  0.8086022946337084  1.0000
  N   N3        1.0  0.8198367359785337  0.0027147714250687948  0.48502458209954136  1.0000
  N   N4        1.0  0.1801649940853807  0.9972700333137399  0.5149783349994054  1.0000
  N   N5        1.0  0.9625047783717804  0.9891667267794446  0.41419948064037043  1.0000
  N   N6        1.0  0.037504057206838595  0.010818043001741301  0.585805408245129  1.0000
  O   O1        1.0  0.7565933654293103  0.1259569764116151  0.9751645103507871  1.0000
  O   O2        1.0  0.24342391907834582  0.8740541866748759  0.024842902930558408  1.0000
  O   O3        1.0  0.7230170080653551  0.8876586714914083  0.9896903773219494  1.0000
  O   O4        1.0  0.2769757931058622  0.11234606307210268  0.010306608960689807  1.0000
  O   O5        1.0  0.012702812302137474  0.9159444137765929  0.8841796556692576  1.0000
  O   O6        1.0  0.987298640301745  0.08403530020860465  0.11583129315993555  1.0000
  O   O7        1.0  0.045002330537030816  0.15358802523463308  0.867961508406957  1.0000
  O   O8        1.0  0.9549899998792241  0.8464075771682644  0.13203813746203255  1.0000
  O   O9        1.0  0.40861913152931356  0.6039307063475902  0.6746653744551453  1.0000
  O   O10       1.0  0.5913764279664306  0.39607236290104436  0.3253323399013227  1.0000
  O   O11       1.0  0.7370119066695652  0.6387468294112537  0.5620927704659593  1.0000
  O   O12       1.0  0.26299238980355005  0.36126032969468713  0.437907252814668  1.0000
