data_image0
_chemical_formula_structural       Zn2H8C34N2Cl6O8F10
_chemical_formula_sum              "Zn2 H8 C34 N2 Cl6 O8 F10"
_cell_length_a       12.201560625818935
_cell_length_b       13.078447860961981
_cell_length_c       16.026659316737717
_cell_angle_alpha    89.73497862019832
_cell_angle_beta     87.00980373315178
_cell_angle_gamma    86.2411360703757

_space_group_name_H-M_alt    "P 1"
_space_group_IT_number       1

loop_
  _space_group_symop_operation_xyz
  'x, y, z'

loop_
  _atom_site_type_symbol
  _atom_site_label
  _atom_site_symmetry_multiplicity
  _atom_site_fract_x
  _atom_site_fract_y
  _atom_site_fract_z
  _atom_site_occupancy
  Zn  Zn1       1.0  0.6161239156089663  0.5100432090302364  0.4988146596393579  1.0000
  Zn  Zn2       1.0  0.38293112944731417  0.5015367253704213  0.5003395964653665  1.0000
  H   H1        1.0  0.5803339120918878  0.6330409321437572  0.9174574497343218  1.0000
  H   H2        1.0  0.36265057481837465  0.18493135706976463  0.5303271300057802  1.0000
  H   H3        1.0  0.28539258131367967  0.8269180701441602  0.5476852388520825  1.0000
  H   H4        1.0  0.6271753665057247  0.825696805094644  0.46778591853916424  1.0000
  H   H5        1.0  0.5339094589569625  0.6408951925457205  0.05898020619951443  1.0000
  H   H6        1.0  0.9744920641407828  0.6540761225298228  0.378725317678196  1.0000
  H   H7        1.0  0.3654782511718436  0.5858848743871763  0.08897595176787122  1.0000
  H   H8        1.0  0.324384997231121  0.4836544491471104  0.9381452053430838  1.0000
  C   C1        1.0  0.46578180371283645  0.7014541192374538  0.5031972568618317  1.0000
  C   C2        1.0  0.4578866888938648  0.816190826312344  0.506894847553973  1.0000
  C   C3        1.0  0.3502327696370172  0.9753880391860933  0.5345034443078236  1.0000
  C   C4        1.0  0.5154421218464335  0.4992735473231137  0.338367012562202  1.0000
  C   C5        1.0  0.3568010105540011  0.8699840245132153  0.5312950311994629  1.0000
  C   C6        1.0  0.5504591856512632  0.8684967638795773  0.48642029013547744  1.0000
  C   C7        1.0  0.5447545291186981  0.976525592134671  0.48932321128401696  1.0000
  C   C8        1.0  0.4430852131690841  0.033202572859465804  0.513275506311608  1.0000
  C   C9        1.0  0.4394301830115451  0.1410949659011962  0.5137247051202395  1.0000
  C   C10       1.0  0.632289580404432  0.13867399973544542  0.471239356942583  1.0000
  C   C11       1.0  0.6373911580450908  0.033063446304780114  0.4686696387723616  1.0000
  C   C12       1.0  0.5915965205669379  0.5573370068839409  0.9468041913301664  1.0000
  C   C13       1.0  0.055255357397015765  0.4022955998307368  0.5724585298384003  1.0000
  C   C14       1.0  0.16617202833916878  0.41450631625539097  0.5569211748172479  1.0000
  C   C15       1.0  0.13635161139937674  0.5443868583541019  0.46189234305590093  1.0000
  C   C16       1.0  0.5207033953269402  0.30925878428315917  0.4961536080603752  1.0000
  C   C17       1.0  0.0198966437631398  0.5374955289216958  0.4710128334057232  1.0000
  C   C18       1.0  0.9774480915358406  0.4654912178414251  0.5302247367566083  1.0000
  C   C19       1.0  0.8600581431631866  0.46394305240231404  0.5411909458322344  1.0000
  C   C20       1.0  0.8360263735434754  0.5858487440450589  0.4379803906906618  1.0000
  C   C21       1.0  0.946068134742951  0.5987754147426472  0.4243446804313466  1.0000
  C   C22       1.0  0.4941224562923238  0.5053164821416873  0.6611388505919114  1.0000
  C   C23       1.0  0.501807938191284  0.4889031347767699  0.9168629924846035  1.0000
  C   C24       1.0  0.579541458489487  0.5674175406865418  0.04325106836414963  1.0000
  C   C25       1.0  0.3918363333318524  0.5137193956610986  0.05690557400154011  1.0000
  C   C26       1.0  0.3896774506740853  0.5276420293669943  0.9612007916375167  1.0000
  C   C27       1.0  0.49289160737776416  0.49977687493760936  0.7515808375511102  1.0000
  C   C28       1.0  0.5102515584345254  0.48103469186664677  0.08296493547959474  1.0000
  C   C29       1.0  0.523360918993852  0.37512245859598903  0.9482612342034574  1.0000
  C   C30       1.0  0.5523470714178343  0.3757843606804416  0.04344176932499983  1.0000
  C   C31       1.0  0.4963119241889656  0.4928900120506087  0.8268602605168528  1.0000
  C   C32       1.0  0.5156783591986807  0.4820758364285851  0.17291882152584756  1.0000
  C   C33       1.0  0.51730064384801  0.49028359935142174  0.24814510497303405  1.0000
  C   C34       1.0  0.5316688831649046  0.19444356201617558  0.49344529017614774  1.0000
  N   N1        1.0  0.7925195940981878  0.5214568912918836  0.4948040399362769  1.0000
  N   N2        1.0  0.20625943311294037  0.48487952787089494  0.5043740529001685  1.0000
  Cl  Cl1       1.0  0.22576335945636566  0.039257535378851606  0.5652724376668702  1.0000
  Cl  Cl2       1.0  0.8021694877724312  0.39033538677116303  0.6163556873750554  1.0000
  Cl  Cl3       1.0  0.18832147750694614  0.6316769219236491  0.3941366868768201  1.0000
  Cl  Cl4       1.0  0.3547424188286853  0.6587399757146388  0.9348382530987965  1.0000
  Cl  Cl5       1.0  0.5000394649710458  0.2699774285300265  0.09716225206479125  1.0000
  Cl  Cl6       1.0  0.6248099065088794  0.30374900006835054  0.8873866139521103  1.0000
  O   O1        1.0  0.5601156696960031  0.6587096433268942  0.483418733837283  1.0000
  O   O2        1.0  0.3779987622924067  0.6556301347221949  0.5195852191919388  1.0000
  O   O3        1.0  0.606907506619656  0.48442793822793123  0.37239150944753885  1.0000
  O   O4        1.0  0.4213657214003773  0.5215467411094892  0.37420405178122723  1.0000
  O   O5        1.0  0.6044348959819955  0.3556781529343382  0.5144643383480912  1.0000
  O   O6        1.0  0.4263397514381353  0.350268072424342  0.481071328644859  1.0000
  O   O7        1.0  0.5834150969006798  0.5316065949276239  0.6252185568387889  1.0000
  O   O8        1.0  0.40715536614762726  0.48270126750910697  0.6270542028050061  1.0000
  F   F1        1.0  0.6815231854229609  0.5702027197446854  0.07681899689465872  1.0000
  F   F2        1.0  0.6652992710617623  0.367530480535642  0.04823591953648791  1.0000
  F   F3        1.0  0.6960598238121987  0.5167958064802394  0.9212213089566961  1.0000
  F   F4        1.0  0.4254235344073506  0.3279636298435663  0.9411496122800076  1.0000
  F   F5        1.0  0.7242987931641806  0.18672700005664922  0.44947421072161137  1.0000
  F   F6        1.0  0.7342287574954511  0.9816509783665952  0.4449809941366711  1.0000
  F   F7        1.0  0.7633949352370377  0.6409523058934213  0.3938813085333025  1.0000
  F   F8        1.0  0.027074911220843496  0.3289933430686602  0.6266859758358481  1.0000
  F   F9        1.0  0.2385257922429175  0.353485466353213  0.5961221685866182  1.0000
  F   F10       1.0  0.31716138263008986  0.44209077617156833  0.08292452306495333  1.0000
