data_image0
_chemical_formula_structural       Cu3H18C28N6O10
_chemical_formula_sum              "Cu3 H18 C28 N6 O10"
_cell_length_a       7.028617027541142
_cell_length_b       10.323434744477742
_cell_length_c       13.192282441438588
_cell_angle_alpha    107.91580229354064
_cell_angle_beta     91.23935624360949
_cell_angle_gamma    97.43974977211793

_space_group_name_H-M_alt    "P 1"
_space_group_IT_number       1

loop_
  _space_group_symop_operation_xyz
  'x, y, z'

loop_
  _atom_site_type_symbol
  _atom_site_label
  _atom_site_symmetry_multiplicity
  _atom_site_fract_x
  _atom_site_fract_y
  _atom_site_fract_z
  _atom_site_occupancy
  Cu  Cu1       1.0  0.5005005018341251  6.152555545209486e-05  0.5000818293128121  1.0000
  Cu  Cu2       1.0  0.8993112452597173  0.7794664304693696  0.6592297454116505  1.0000
  Cu  Cu3       1.0  0.10104367592212778  0.22107462101300962  0.34061846052703976  1.0000
  H   H1        1.0  0.6898689851042618  0.36563330857947557  0.35058160102603614  1.0000
  H   H2        1.0  0.3089008685347281  0.6348108988257052  0.6497805117987101  1.0000
  H   H3        1.0  0.8906837688456762  0.4452374579205553  0.2222985250799923  1.0000
  H   H4        1.0  0.10845573275105377  0.5544159971389389  0.7778309435496171  1.0000
  H   H5        1.0  0.10164217317671387  0.6772164897498242  0.287023085274889  1.0000
  H   H6        1.0  0.8989177312663016  0.32192471721656796  0.7128999372535605  1.0000
  H   H7        1.0  0.9942562942253658  0.05941923222796667  0.7786029535095554  1.0000
  H   H8        1.0  0.007209294755149566  0.9398003870132781  0.22146521337528202  1.0000
  H   H9        1.0  0.1584319024420324  0.28915149766292797  0.8927905838220129  1.0000
  H   H10       1.0  0.84225618412421  0.7102211597394612  0.10719255534102246  1.0000
  H   H11       1.0  0.46252678150934656  0.39386527043663455  0.8293968789023511  1.0000
  H   H12       1.0  0.5375154118443247  0.606240693606999  0.17049899250364584  1.0000
  H   H13       1.0  0.5842162810073076  0.2595184372457594  0.6600832436798784  1.0000
  H   H14       1.0  0.4157804056657497  0.7410993190091374  0.3396575164959614  1.0000
  H   H15       1.0  0.0875966678474711  0.8846320458831799  0.026780358086867313  1.0000
  H   H16       1.0  0.9108062484264464  0.11527438079107095  0.9731845819865372  1.0000
  H   H17       1.0  0.836006585491198  0.8888019700840387  0.005696177390532844  1.0000
  H   H18       1.0  0.162485675002273  0.11109620000221546  0.9940730736131871  1.0000
  C   C1        1.0  0.6888566015395197  0.5150820368315223  0.5720759949072163  1.0000
  C   C2        1.0  0.31089649483559606  0.4857326754665577  0.4282585588509917  1.0000
  C   C3        1.0  0.7862558303995754  0.5500540749293419  0.4811197849980361  1.0000
  C   C4        1.0  0.21316379454424347  0.45040391906270816  0.519017232471292  1.0000
  C   C5        1.0  0.7794489270862356  0.46561519411940094  0.3755575105744243  1.0000
  C   C6        1.0  0.21977794172886425  0.5346319396844094  0.6246329106780665  1.0000
  C   C7        1.0  0.8909434244912617  0.5123253191705429  0.30413483589195783  1.0000
  C   C8        1.0  0.10849534501624444  0.4875036030051658  0.6959401274164849  1.0000
  C   C9        1.0  0.007545571720612409  0.6399885195329842  0.33949132846278474  1.0000
  C   C10       1.0  0.992437686804905  0.3596104272677039  0.6604318378471278  1.0000
  C   C11       1.0  0.005981063273850326  0.7192819566566226  0.4459644612907638  1.0000
  C   C12       1.0  0.9942163298994441  0.28049262117021095  0.553923995663965  1.0000
  C   C13       1.0  0.13091720030401174  0.8522318334076998  0.49875981289195453  1.0000
  C   C14       1.0  0.8700454878226437  0.14732099124664436  0.501153193675002  1.0000
  C   C15       1.0  0.20501448734248837  0.03521048878975109  0.661662020209626  1.0000
  C   C16       1.0  0.7959862180009124  0.9644700607541731  0.3381827954691871  1.0000
  C   C17       1.0  0.1274633792243591  0.10719015713790718  0.7566955745941117  1.0000
  C   C18       1.0  0.8737351952456079  0.8923001008219695  0.24328214217956656  1.0000
  C   C19       1.0  0.21979084026935414  0.23435987008304682  0.8193062930734742  1.0000
  C   C20       1.0  0.7809806695439717  0.7652692772270484  0.18064929858789475  1.0000
  C   C21       1.0  0.3878005201169897  0.291941501222304  0.7857357939243459  1.0000
  C   C22       1.0  0.6125710916456768  0.7080567969935315  0.2141784556290673  1.0000
  C   C23       1.0  0.4579528846884528  0.21724233177948796  0.6915013924336935  1.0000
  C   C24       1.0  0.5423587525245066  0.7830350108569984  0.3083150891388939  1.0000
  C   C25       1.0  0.9933947739974724  0.8542441105406481  0.8651149595540634  1.0000
  C   C26       1.0  0.005572782705087301  0.1457766042542659  0.13480239876418662  1.0000
  C   C27       1.0  0.9809392064327014  0.9210035444324018  0.984192664564084  1.0000
  C   C28       1.0  0.017622562311089496  0.07889968128193199  0.015677182162882292  1.0000
  N   N1        1.0  0.8946673667608637  0.6734592817432841  0.5122672242659051  1.0000
  N   N2        1.0  0.10511461204568208  0.32688243403371325  0.4876327249570523  1.0000
  N   N3        1.0  0.1051782732293773  0.9089751686799659  0.6022089153465658  1.0000
  N   N4        1.0  0.8962603527476816  0.09047965936053257  0.39785304997111853  1.0000
  N   N5        1.0  0.3724180939121382  0.09126233694722428  0.630988802316317  1.0000
  N   N6        1.0  0.628224172411876  0.9089950990343493  0.36868476930343513  1.0000
  O   O1        1.0  0.5973148783304865  0.39831637409320547  0.5567786213501338  1.0000
  O   O2        1.0  0.40214807317440193  0.6026760705993084  0.4438975442264805  1.0000
  O   O3        1.0  0.7149350460055288  0.6126178904083018  0.6629909223382671  1.0000
  O   O4        1.0  0.2857097143923539  0.3883267825677591  0.3372879425980102  1.0000
  O   O5        1.0  0.24905092772554838  0.8976033709985244  0.44070131182719763  1.0000
  O   O6        1.0  0.7520923617990719  0.10192174281758068  0.55939311778117  1.0000
  O   O7        1.0  0.8642534692400545  0.8805636237572256  0.8042884797489408  1.0000
  O   O8        1.0  0.1352464556494368  0.11982371376954859  0.19549700289909575  1.0000
  O   O9        1.0  0.12048393054850232  0.7816365271601736  0.829078043865252  1.0000
  O   O10       1.0  0.8782904084427656  0.21820422420740457  0.1709223410231289  1.0000
