data_image0
_chemical_formula_structural       Ca2H12C18O14
_chemical_formula_sum              "Ca2 H12 C18 O14"
_cell_length_a       6.911397725855494
_cell_length_b       6.973733065814356
_cell_length_c       10.384822262499927
_cell_angle_alpha    87.10528951592246
_cell_angle_beta     83.44197474913761
_cell_angle_gamma    69.45765312692973

_space_group_name_H-M_alt    "P 1"
_space_group_IT_number       1

loop_
  _space_group_symop_operation_xyz
  'x, y, z'

loop_
  _atom_site_type_symbol
  _atom_site_label
  _atom_site_symmetry_multiplicity
  _atom_site_fract_x
  _atom_site_fract_y
  _atom_site_fract_z
  _atom_site_occupancy
  Ca  Ca1       1.0  0.24988368105304215  0.26236462646438236  0.045324645104272976  1.0000
  Ca  Ca2       1.0  0.7501148294191043  0.7376372880384494  0.9546754169059991  1.0000
  H   H1        1.0  0.5928429944272369  0.7538012353103696  0.6951728105219457  1.0000
  H   H2        1.0  0.4071575090310446  0.2461991492315008  0.3048261858707589  1.0000
  H   H3        1.0  0.5717655143172566  0.3848118700411831  0.16944469023548683  1.0000
  H   H4        1.0  0.4282335290591844  0.6151885168559659  0.8305534559935237  1.0000
  H   H5        1.0  0.6562527653056094  0.133899106526691  0.16289284743067609  1.0000
  H   H6        1.0  0.34374482150032304  0.8661012808189312  0.8371054113736063  1.0000
  H   H7        1.0  0.7840872144313381  0.7886369627594834  0.378802909979285  1.0000
  H   H8        1.0  0.21591274909997793  0.2113649532016879  0.6211960767167355  1.0000
  H   H9        1.0  0.2730363129815531  0.7054911354078043  0.620695296249039  1.0000
  H   H10       1.0  0.7269627374175586  0.2945092476757338  0.3793047754579105  1.0000
  H   H11       1.0  0.5157709322458572  0.7060191004849657  0.4250396559385192  1.0000
  H   H12       1.0  0.48423011816205264  0.29397974882399314  0.5749612756288156  1.0000
  C   C1        1.0  0.8726896068936798  0.7438488438016437  0.6307305948083906  1.0000
  C   C2        1.0  0.12730943999409317  0.25615154118870004  0.3692685141595931  1.0000
  C   C3        1.0  0.01410787863336089  0.7462962474739996  0.5123558504231908  1.0000
  C   C4        1.0  0.9858931647518787  0.2537026056485701  0.4876431556661912  1.0000
  C   C5        1.0  0.944463171650945  0.7704797348347512  0.38907510849069377  1.0000
  C   C6        1.0  0.055537335318668106  0.2295206478003138  0.610924850640984  1.0000
  C   C7        1.0  0.22062129317414048  0.7232589615356064  0.5244043248126289  1.0000
  C   C8        1.0  0.7793786738685141  0.2767429525187524  0.4755956246223717  1.0000
  C   C9        1.0  0.2878276233500403  0.7435325347125  0.29076473859703356  1.0000
  C   C10       1.0  0.7121723472039533  0.2564693774350459  0.7092361735769398  1.0000
  C   C11       1.0  0.3560342524918384  0.722284509027176  0.41427314270013227  1.0000
  C   C12       1.0  0.6439642614916468  0.2777174035688432  0.5857278820491131  1.0000
  C   C13       1.0  0.08022236306464245  0.7668575149940792  0.27827871240789637  1.0000
  C   C14       1.0  0.9197790605485139  0.233144398611806  0.721721124451825  1.0000
  C   C15       1.0  0.4348348674017189  0.7521946669683218  0.17430815636036096  1.0000
  C   C16       1.0  0.5651650996409358  0.2478072470860369  0.8256917930746324  1.0000
  C   C17       1.0  0.0015102978601503885  0.77099231141721  0.14925277542011628  1.0000
  C   C18       1.0  0.9984902055981237  0.2290080731246604  0.8507462209725815  1.0000
  O   O1        1.0  0.39242351808658793  0.9133238711536577  0.10524928670673009  1.0000
  O   O2        1.0  0.6075749923855581  0.08667804334917409  0.8947507753035422  1.0000
  O   O3        1.0  0.8339223722941825  0.9117305757397601  0.1243640534102965  1.0000
  O   O4        1.0  0.1660781311640989  0.0882698088021101  0.8756349429824012  1.0000
  O   O5        1.0  0.09732213309911951  0.6258779486811433  0.07020554050760099  1.0000
  O   O6        1.0  0.9026803738792922  0.37412090017934924  0.929795278484448  1.0000
  O   O7        1.0  0.9305145373917444  0.7258342934114309  0.74134186618177  1.0000
  O   O8        1.0  0.0694870459204466  0.274163028291845  0.2586571496042892  1.0000
  O   O9        1.0  0.60160193660969  0.5984261885098335  0.14994478173067446  1.0000
  O   O10       1.0  0.3983980304329649  0.4015757255445251  0.8500551677043188  1.0000
  O   O11       1.0  0.6824616955752775  0.7614008903629423  0.6082572900390346  1.0000
  O   O12       1.0  0.3175378877281219  0.23859796511491282  0.39174086588665336  1.0000
  O   O13       1.0  0.5285726384242295  0.2592046531257424  0.17756232491429091  1.0000
  O   O14       1.0  0.4714264084635431  0.7407957318646015  0.8224367840536926  1.0000
