data_image0
_chemical_formula_structural       Ag4H36C34S4N8O12
_chemical_formula_sum              "Ag4 H36 C34 S4 N8 O12"
_cell_length_a       7.707728003979176
_cell_length_b       9.083551983285744
_cell_length_c       15.031980705892833
_cell_angle_alpha    91.08962947158211
_cell_angle_beta     92.16168309597357
_cell_angle_gamma    105.3910258287264

_space_group_name_H-M_alt    "P 1"
_space_group_IT_number       1

loop_
  _space_group_symop_operation_xyz
  'x, y, z'

loop_
  _atom_site_type_symbol
  _atom_site_label
  _atom_site_symmetry_multiplicity
  _atom_site_fract_x
  _atom_site_fract_y
  _atom_site_fract_z
  _atom_site_occupancy
  Ag  Ag1       1.0  0.4304420610519912  0.3281635957040621  0.23963585203846796  1.0000
  Ag  Ag2       1.0  0.5695621994608756  0.6718330979194815  0.7603664764469399  1.0000
  Ag  Ag3       1.0  0.6070796765630105  0.6723405789277304  0.2766871887637521  1.0000
  Ag  Ag4       1.0  0.39292086044070357  0.3276607100241619  0.7233131268566027  1.0000
  H   H1        1.0  0.04096954964121834  0.8684076836855608  0.9267731335881352  1.0000
  H   H2        1.0  0.959032143258561  0.13158904632662424  0.07323048494413338  1.0000
  H   H3        1.0  0.9947281665940292  0.6967547218093268  0.7920502167895052  1.0000
  H   H4        1.0  0.005266119711293979  0.3032432130747154  0.2079526297300092  1.0000
  H   H5        1.0  0.8115505230112204  0.4264442145669633  0.7970939735044027  1.0000
  H   H6        1.0  0.18844635250126618  0.5735536972358017  0.2029089139829736  1.0000
  H   H7        1.0  0.6633308933110127  0.3249568054323646  0.9365776996882502  1.0000
  H   H8        1.0  0.33666856061160627  0.6750410766354448  0.0634245632596233  1.0000
  H   H9        1.0  0.9542994722092146  0.13955420301085292  0.5820043712377583  1.0000
  H   H10       1.0  0.04570174366043025  0.8604493305823907  0.4179919841347939  1.0000
  H   H11       1.0  0.9551394498183324  0.3274234124467909  0.7047868221431983  1.0000
  H   H12       1.0  0.04485585478589361  0.6725778893992709  0.29521008400461574  1.0000
  H   H13       1.0  0.12548251763446663  0.6001600846137194  0.6939858885304986  1.0000
  H   H14       1.0  0.874518008572217  0.3998411976845019  0.3060137615824914  1.0000
  H   H15       1.0  0.3027545199783999  0.6894216738065918  0.5594876392540229  1.0000
  H   H16       1.0  0.6972493498806144  0.310581876627431  0.4405127501305728  1.0000
  H   H17       1.0  0.5649087848752217  0.08463211328216858  0.0997343891792326  1.0000
  H   H18       1.0  0.43509135871035187  0.915368020080663  0.9002645790282031  1.0000
  H   H19       1.0  0.3646459965438638  0.11702954750951015  0.0529964557646778  1.0000
  H   H20       1.0  0.6353550806182608  0.8829694386846538  0.9470031820358642  1.0000
  H   H21       1.0  0.37349733339242847  0.9267518887888566  0.0756837324918109  1.0000
  H   H22       1.0  0.6265053886032704  0.07324821483901897  0.9243146111761219  1.0000
  H   H23       1.0  0.39953043889936163  0.8502870706057946  0.22091875693330107  1.0000
  H   H24       1.0  0.6004719220693103  0.14971189739405588  0.7790802358438073  1.0000
  H   H25       1.0  0.3191907467642138  0.946479746411647  0.3082756318869997  1.0000
  H   H26       1.0  0.680811614204451  0.05351922158820338  0.6917233608901087  1.0000
  H   H27       1.0  0.6942998187508777  0.057939930184140585  0.2337692659245363  1.0000
  H   H28       1.0  0.30570032483470294  0.942060203178698  0.7662297022828994  1.0000
  H   H29       1.0  0.610273883763746  0.13702064020328913  0.3269112260142961  1.0000
  H   H30       1.0  0.38972659925479286  0.862980615480211  0.6730857620692348  1.0000
  H   H31       1.0  0.2174952818750952  0.03177888711373809  0.18479929963675798  1.0000
  H   H32       1.0  0.7825054126659268  0.9682189501450504  0.8151996562582227  1.0000
  H   H33       1.0  0.5957234376356267  0.9002931131190336  0.4014664281851239  1.0000
  H   H34       1.0  0.4042791160257407  0.09971043554828188  0.5985326097008183  1.0000
  H   H35       1.0  0.7961448875682746  0.963561277777664  0.3615215233744067  1.0000
  H   H36       1.0  0.20385729426902086  0.036441128607940194  0.6384774981133461  1.0000
  C   C1        1.0  0.8717217894602738  0.6911412114966636  0.0046105443638139966  1.0000
  C   C2        1.0  0.12827859803888933  0.308855523402478  0.9953923881771587  1.0000
  C   C3        1.0  0.9583836070139923  0.7508092869551459  0.9289104391791838  1.0000
  C   C4        1.0  0.041617141512198  0.2491885835720282  0.07109184425262072  1.0000
  C   C5        1.0  0.9332043613789478  0.6526208596002331  0.8536095894253677  1.0000
  C   C6        1.0  0.06679544277366736  0.34737815144193  0.14639135890596583  1.0000
  C   C7        1.0  0.8286301627679434  0.5007451290496334  0.856281738302954  1.0000
  C   C8        1.0  0.17136891933060372  0.49925161073647206  0.143720508246723  1.0000
  C   C9        1.0  0.7454937016204893  0.44258870901774827  0.9341269340378558  1.0000
  C   C10       1.0  0.2545044576985445  0.5574091845906961  0.0658753084260866  1.0000
  C   C11       1.0  0.76632717540447  0.5405428409374265  0.008369093368543199  1.0000
  C   C12       1.0  0.23367226772110422  0.4594550344767041  0.9916325040719657  1.0000
  C   C13       1.0  0.6810337097166084  0.5090571292943622  0.09594153619421769  1.0000
  C   C14       1.0  0.31896739983661593  0.49094187686083746  0.9040600981284114  1.0000
  C   C15       1.0  0.13536073130639886  0.31108213251862066  0.5058035439218784  1.0000
  C   C16       1.0  0.8646362505225013  0.6889203067221883  0.4941940646154137  1.0000
  C   C17       1.0  0.03155779372838909  0.2583321774888602  0.5777840308538343  1.0000
  C   C18       1.0  0.9684404611100277  0.7416702369039496  0.4222122671526662  1.0000
  C   C19       1.0  0.030769622914100066  0.3656683745592914  0.6459920024016909  1.0000
  C   C20       1.0  0.9692256816901264  0.6343329272867703  0.354004903746123  1.0000
  C   C21       1.0  0.12791155531359513  0.5191212400134828  0.64003877254504  1.0000
  C   C22       1.0  0.8720856272407501  0.4808777741489223  0.3599601382963442  1.0000
  C   C23       1.0  0.22740418252256925  0.5704059475099538  0.56542828227564  1.0000
  C   C24       1.0  0.7725928209003996  0.42959650503821206  0.4345706572763888  1.0000
  C   C25       1.0  0.23130392443856349  0.4637060540029194  0.49847778985207464  1.0000
  C   C26       1.0  0.7686969735921847  0.5362963705770055  0.5015218766591047  1.0000
  C   C27       1.0  0.33281611772689956  0.48961580752654027  0.4152793960730321  1.0000
  C   C28       1.0  0.6671856922863239  0.5103854565773601  0.5847196090165241  1.0000
  C   C29       1.0  0.4177913286547295  0.04708971242199309  0.0995514234903894  1.0000
  C   C30       1.0  0.5822084431067791  0.9529092786591349  0.9004475283188569  1.0000
  C   C31       1.0  0.41067293259857957  0.9638038676116736  0.2528955374724333  1.0000
  C   C32       1.0  0.5893268391629364  0.036195123469454395  0.7471034143368129  1.0000
  C   C33       1.0  0.6031963902086871  0.029869966824840298  0.2890361287881404  1.0000
  C   C34       1.0  0.39680541980454354  0.9701312972790532  0.710962876301423  1.0000
  S   S1        1.0  0.8618926301805061  0.7819214300135611  0.10908359313268082  1.0000
  S   S2        1.0  0.1381094021522316  0.21807642231929944  0.8909180452756901  1.0000
  S   S3        1.0  0.18427559892868567  0.20882062932538045  0.41269072208498153  1.0000
  S   S4        1.0  0.8157236218773817  0.7911806578597973  0.5873082420367127  1.0000
  N   N1        1.0  0.7210308019037297  0.6330673868728026  0.1519989858835089  1.0000
  N   N2        1.0  0.278967740036407  0.3669316556710312  0.8480039384859878  1.0000
  N   N3        1.0  0.3166098372947204  0.35913780664423445  0.36647178990249063  1.0000
  N   N4        1.0  0.683396790105796  0.6408622756690858  0.6335279462319648  1.0000
  N   N5        1.0  0.35513772723587766  0.06541239388546669  0.1893308697512381  1.0000
  N   N6        1.0  0.644863328332178  0.9345865790013473  0.8106674370345744  1.0000
  N   N7        1.0  0.6630427383239876  0.918434345025659  0.3435913039405206  1.0000
  N   N8        1.0  0.336959443513301  0.08156806135994539  0.656407717547232  1.0000
  O   O1        1.0  0.5808490357794369  0.38064891646611426  0.113141095042387  1.0000
  O   O2        1.0  0.4191469061565057  0.6193501425053183  0.8868611228518829  1.0000
  O   O3        1.0  0.034717829369896  0.8176323037538252  0.15820604119384998  1.0000
  O   O4        1.0  0.9652812635256821  0.18236444268595867  0.8417968708631989  1.0000
  O   O5        1.0  0.778989600075178  0.9071540846105034  0.09970779980778129  1.0000
  O   O6        1.0  0.22101279328459353  0.09284490335038235  0.9002931894914211  1.0000
  O   O7        1.0  0.422519377533078  0.6200215510277401  0.3946682996909772  1.0000
  O   O8        1.0  0.5774885660650851  0.3799785330522951  0.6053327879421319  1.0000
  O   O9        1.0  0.025974202188450587  0.14487224188019343  0.3542751521273786  1.0000
  O   O10       1.0  0.9740242669367304  0.8551347664874382  0.6457225220026785  1.0000
  O   O11       1.0  0.2840957392561733  0.10179812879011509  0.4416326857451979  1.0000
  O   O12       1.0  0.71589460925324  0.8981998074474543  0.5583667717857068  1.0000
