data_image0
_chemical_formula_structural       Tb2CuH16C32N4O26
_chemical_formula_sum              "Tb2 Cu1 H16 C32 N4 O26"
_cell_length_a       9.825167284929066
_cell_length_b       10.25356153434499
_cell_length_c       11.001973733361442
_cell_angle_alpha    70.18637962925753
_cell_angle_beta     85.17429456224238
_cell_angle_gamma    71.32725931719783

_space_group_name_H-M_alt    "P 1"
_space_group_IT_number       1

loop_
  _space_group_symop_operation_xyz
  'x, y, z'

loop_
  _atom_site_type_symbol
  _atom_site_label
  _atom_site_symmetry_multiplicity
  _atom_site_fract_x
  _atom_site_fract_y
  _atom_site_fract_z
  _atom_site_occupancy
  Tb  Tb1       1.0  0.4052035822893387  0.9060806408392071  0.4170006400972854  1.0000
  Tb  Tb2       1.0  0.5947948322394084  0.09391801539452162  0.5830015298145741  1.0000
  Cu  Cu1       1.0  0.500000400661925  0.5000004249565891  0.49999974160783744  1.0000
  H   H1        1.0  0.9184130859987149  0.863832040013783  0.4839916311350196  1.0000
  H   H2        1.0  0.08158567398930221  0.136172105094083  0.5160033453578239  1.0000
  H   H3        1.0  0.8090433228428251  0.4663562401440657  0.6623095916824087  1.0000
  H   H4        1.0  0.19095577577348172  0.5336468084266955  0.3376866098620896  1.0000
  H   H5        1.0  0.2504926871189141  0.45490215311417614  0.6528253288767021  1.0000
  H   H6        1.0  0.749506415597793  0.5451008896714669  0.34717178309996666  1.0000
  H   H7        1.0  0.4622308272252767  0.8710930946883907  0.9783784312350581  1.0000
  H   H8        1.0  0.5377720031332133  0.12890447738547553  0.021622827406936586  1.0000
  H   H9        1.0  0.3494348849438326  0.48719545118483143  0.20349469438172477  1.0000
  H   H10       1.0  0.6505659191151311  0.5128020973450447  0.7965103637175378  1.0000
  H   H11       1.0  0.29221825973981186  0.6490021539970388  0.7891274260827503  1.0000
  H   H12       1.0  0.7077828624454484  0.35099432692134513  0.21087430490731415  1.0000
  H   H13       1.0  0.22152171861169734  0.17335629300306724  0.18891728103348987  1.0000
  H   H14       1.0  0.7784777131672201  0.8266423692175311  0.8110838995819025  1.0000
  H   H15       1.0  0.1253352890631305  0.07330739218092933  0.2641892104519102  1.0000
  H   H16       1.0  0.8746661676500198  0.9266879979854749  0.7358128351576386  1.0000
  C   C1        1.0  0.09561039921756988  0.6676169193312376  0.5610535759446552  1.0000
  C   C2        1.0  0.9043886870975372  0.33238614659489235  0.4389398943033387  1.0000
  C   C3        1.0  0.949433100646651  0.7468785141722591  0.535915429054967  1.0000
  C   C4        1.0  0.050564972518699756  0.2531245399818759  0.4640799409216499  1.0000
  C   C5        1.0  0.8460332928394579  0.6747697906474812  0.5704180155760741  1.0000
  C   C6        1.0  0.15396714935410216  0.3252321847284207  0.4295756904271003  1.0000
  C   C7        1.0  0.8874375629418552  0.5250291092762394  0.6376481752228856  1.0000
  C   C8        1.0  0.1125618661019416  0.47497285432766045  0.362347430508919  1.0000
  C   C9        1.0  0.031612163620373265  0.45083445302048364  0.6712223591862884  1.0000
  C   C10       1.0  0.9683879522460901  0.5491686015371471  0.328772853061743  1.0000
  C   C11       1.0  0.13799024669172166  0.5183069277067744  0.6310462887123766  1.0000
  C   C12       1.0  0.862006805123066  0.48169612624561625  0.3689491601285441  1.0000
  C   C13       1.0  0.2020388567990991  0.7462246884963123  0.5053692813536019  1.0000
  C   C14       1.0  0.7979636226299006  0.25377399747002033  0.49462802094023345  1.0000
  C   C15       1.0  0.6933617491701369  0.7545998030371452  0.5274194469664055  1.0000
  C   C16       1.0  0.3066349681167537  0.24540434166722505  0.47257568725502364  1.0000
  C   C17       1.0  0.38218236254689225  0.7680090817922718  0.8710812851488828  1.0000
  C   C18       1.0  0.6178194286941548  0.2319852176221531  0.12892107508015024  1.0000
  C   C19       1.0  0.4189461186627312  0.7835134298670994  0.9849278591270695  1.0000
  C   C20       1.0  0.581055007622922  0.21648304526616616  0.015074782295158707  1.0000
  C   C21       1.0  0.4060755488972561  0.6829326352616718  0.10505208728255873  1.0000
  C   C22       1.0  0.5939221829092247  0.3170649242332075  0.894951386545245  1.0000
  C   C23       1.0  0.35262634046074487  0.5699793735464243  0.11143370259695468  1.0000
  C   C24       1.0  0.6473727567902828  0.4300203794261535  0.8885671633989534  1.0000
  C   C25       1.0  0.3051226753386018  0.564160434423144  0.9985523327460161  1.0000
  C   C26       1.0  0.6948764164467323  0.4358360287363751  0.0014522872691458413  1.0000
  C   C27       1.0  0.32096935529180126  0.6602367062516237  0.8774820299439414  1.0000
  C   C28       1.0  0.6790321055217491  0.3397586781296625  0.1225209260977707  1.0000
  C   C29       1.0  0.4173458194090641  0.859460413726751  0.7404329080008911  1.0000
  C   C30       1.0  0.5826576800052125  0.1405349768431492  0.259568979880065  1.0000
  C   C31       1.0  0.4496887115092747  0.6869419882822001  0.23124543190073868  1.0000
  C   C32       1.0  0.550311415293109  0.3130577533218855  0.7687571760952142  1.0000
  N   N1        1.0  0.07261325647456117  0.29345808878289154  0.7454741958791333  1.0000
  N   N2        1.0  0.9273848426584693  0.7065482262586897  0.25452197223908973  1.0000
  N   N3        1.0  0.24154077997043538  0.4499074495394952  0.008908235591796638  1.0000
  N   N4        1.0  0.758460350415625  0.5500890198086453  0.9910953162626018  1.0000
  O   O1        1.0  0.3347271855848888  0.677211984796223  0.49335760442991733  1.0000
  O   O2        1.0  0.6652735938716815  0.3227855984443906  0.5066419910763289  1.0000
  O   O3        1.0  0.16217380964011588  0.8842081465669411  0.46630312466116675  1.0000
  O   O4        1.0  0.8378235890037615  0.1157937992780944  0.5336953700957424  1.0000
  O   O5        1.0  0.641199923672069  0.8892399871467519  0.517540155081868  1.0000
  O   O6        1.0  0.3587974749718087  0.11076195869828348  0.4824583396750415  1.0000
  O   O7        1.0  0.6179761378196317  0.690281715461822  0.49633450724611117  1.0000
  O   O8        1.0  0.3820236216516619  0.309719163175224  0.5036605026730074  1.0000
  O   O9        1.0  0.9737591318955978  0.23939101928261416  0.7842950671044878  1.0000
  O   O10       1.0  0.026244390751252008  0.7606109335580344  0.2157020440344796  1.0000
  O   O11       1.0  0.20222002439373196  0.22452843983496965  0.7632004552109  1.0000
  O   O12       1.0  0.7977825329383278  0.7754800287936945  0.23679924150772538  1.0000
  O   O13       1.0  0.38452351419613245  0.8341136661706444  0.6435199779612263  1.0000
  O   O14       1.0  0.6154779466174177  0.1658817182106347  0.35648297808049284  1.0000
  O   O15       1.0  0.4815329298808917  0.9497445014638547  0.7387137057791053  1.0000
  O   O16       1.0  0.5184709081616674  0.050249792568948216  0.2612894071535053  1.0000
  O   O17       1.0  0.4359198285944927  0.8066757931090082  0.24589443261212562  1.0000
  O   O18       1.0  0.5640792946242145  0.1933272207510157  0.7541072315253818  1.0000
  O   O19       1.0  0.4967850684351661  0.5584815374588105  0.3151327020274338  1.0000
  O   O20       1.0  0.5032191437694635  0.4415182049522672  0.6848695905113475  1.0000
  O   O21       1.0  0.24446391040909535  0.3571465766447517  0.11824712278551176  1.0000
  O   O22       1.0  0.755535525470222  0.6428520797907213  0.8817549682620582  1.0000
  O   O23       1.0  0.18789617750449142  0.4505874869345164  0.9109223475070326  1.0000
  O   O24       1.0  0.8121019106971658  0.5494122484809483  0.08908132864967647  1.0000
  O   O25       1.0  0.2214406368482571  0.08193251382743942  0.2570609524804156  1.0000
  O   O26       1.0  0.7785557595817708  0.9180661072920557  0.7429468377530456  1.0000
