data_image0
_chemical_formula_structural       Cu2H36C32N8Cl4
_chemical_formula_sum              "Cu2 H36 C32 N8 Cl4"
_cell_length_a       8.579482042482883
_cell_length_b       10.852278677274084
_cell_length_c       13.001696750474913
_cell_angle_alpha    106.33177815138043
_cell_angle_beta     90.11981496264772
_cell_angle_gamma    113.38659246297837

_space_group_name_H-M_alt    "P 1"
_space_group_IT_number       1

loop_
  _space_group_symop_operation_xyz
  'x, y, z'

loop_
  _atom_site_type_symbol
  _atom_site_label
  _atom_site_symmetry_multiplicity
  _atom_site_fract_x
  _atom_site_fract_y
  _atom_site_fract_z
  _atom_site_occupancy
  Cu  Cu1       1.0  0.21171463256133188  0.4946016988266422  0.23975423373272517  1.0000
  Cu  Cu2       1.0  0.7882780374153243  0.505393993532067  0.760241726209827  1.0000
  H   H1        1.0  0.2352961915456362  0.4859002482433469  0.6351904568662902  1.0000
  H   H2        1.0  0.7647024479227086  0.5141029817542417  0.3648125788749396  1.0000
  H   H3        1.0  0.38946804520576705  0.6139212464369451  0.47992721506632546  1.0000
  H   H4        1.0  0.6105237535244894  0.38607970758545207  0.5200698678147191  1.0000
  H   H5        1.0  0.8795582038496902  0.27142539775382357  0.23963873524959917  1.0000
  H   H6        1.0  0.12042021548895583  0.7285841632641947  0.7603685125100127  1.0000
  H   H7        1.0  0.7551587706015327  0.22784316632900206  0.3433677460235883  1.0000
  H   H8        1.0  0.24482822527258458  0.772169604197117  0.6566410589803054  1.0000
  H   H9        1.0  0.8833820060511285  0.1361131457494551  0.2916604476931112  1.0000
  H   H10       1.0  0.1165997036583306  0.8638909111392934  0.7083364198443504  1.0000
  H   H11       1.0  0.7947128354764317  0.2231001123146399  0.5184840820959948  1.0000
  H   H12       1.0  0.20529130304662158  0.7768979975267883  0.4815225296671314  1.0000
  H   H13       1.0  0.9471995424576606  0.3042142554108125  0.6354759038578377  1.0000
  H   H14       1.0  0.05280207712442577  0.6957782465014475  0.3645171622275568  1.0000
  H   H15       1.0  0.21843106588139702  0.23130227952474067  0.6137427876150736  1.0000
  H   H16       1.0  0.7815781439860314  0.7687007990357769  0.38625341064123103  1.0000
  H   H17       1.0  0.717890519790572  0.9771274835103013  0.42776395495449276  1.0000
  H   H18       1.0  0.28211245550426867  0.022872372770720493  0.5722299404006889  1.0000
  H   H19       1.0  0.29769326309946814  0.2900768972227397  0.8429434434634189  1.0000
  H   H20       1.0  0.7023200413264022  0.7099252889608962  0.15705799451158947  1.0000
  H   H21       1.0  0.10390789002941149  0.40232498985477594  0.980429652997557  1.0000
  H   H22       1.0  0.8960921157737117  0.5976644521668035  0.019566582931353958  1.0000
  H   H23       1.0  0.4800035599666472  0.42820641555415057  0.268785384733782  1.0000
  H   H24       1.0  0.5199920441090312  0.5717883594914356  0.7312150270795212  1.0000
  H   H25       1.0  0.6499206421453037  0.42901421593290917  0.18933687080965453  1.0000
  H   H26       1.0  0.3500731041145571  0.5709817519375093  0.8106691623919531  1.0000
  H   H27       1.0  0.49021841919525844  0.2661782392881875  0.19345901938621066  1.0000
  H   H28       1.0  0.5097788505309636  0.7338176781032075  0.8065447346537481  1.0000
  H   H29       1.0  0.6824755246345547  0.3453326200946236  0.99959425048128  1.0000
  H   H30       1.0  0.317530119678409  0.6546706342326586  0.0004088696422072831  1.0000
  H   H31       1.0  0.5562367968326639  0.2534541802947103  0.8719523177313346  1.0000
  H   H32       1.0  0.44377586635428673  0.7465490565996832  0.1280493392058943  1.0000
  H   H33       1.0  0.2511605409625801  0.03293185969283739  0.9344155902938025  1.0000
  H   H34       1.0  0.7488520941656277  0.9670714607267216  0.06558916178045138  1.0000
  H   H35       1.0  0.7925056685784924  0.19246066692449662  0.0326119274683805  1.0000
  H   H36       1.0  0.20750423439943685  0.8075394433804064  0.9673905638958827  1.0000
  C   C1        1.0  0.02405002213176027  0.3479662655647218  0.39384444080369707  1.0000
  C   C2        1.0  0.9759451640170624  0.6520368060989981  0.6061531362566086  1.0000
  C   C3        1.0  0.19630663837349258  0.4621136938809869  0.5501509105863178  1.0000
  C   C4        1.0  0.8036890740105205  0.537890432548437  0.44984689949990997  1.0000
  C   C5        1.0  0.26924564982403604  0.5245941626119972  0.4740833819123154  1.0000
  C   C6        1.0  0.7307488950858669  0.475409959762473  0.525914414110204  1.0000
  C   C7        1.0  0.8778334635114149  0.23969663959469759  0.3125802948336585  1.0000
  C   C8        1.0  0.12214819008057283  0.7603075843443676  0.68742276297786  1.0000
  C   C9        1.0  0.9274168227950098  0.24971420702973998  0.5481994996419955  1.0000
  C   C10       1.0  0.07258518697446441  0.750281517768556  0.45179657281023095  1.0000
  C   C11       1.0  0.9630942492228415  0.11954244364694941  0.5240701160072732  1.0000
  C   C12       1.0  0.03691165315633054  0.8804565162022367  0.47592900500291063  1.0000
  C   C13       1.0  0.1211096536273644  0.13019467964510054  0.5640125177452971  1.0000
  C   C14       1.0  0.8788979775345213  0.8698052346182975  0.4359829814332342  1.0000
  C   C15       1.0  0.8421129263948045  0.9881632531163049  0.459876116816794  1.0000
  C   C16       1.0  0.1578900489000361  0.011836603164724098  0.5401177785383878  1.0000
  C   C17       1.0  0.40748152352671957  0.3679427976042504  0.1003573523217014  1.0000
  C   C18       1.0  0.592521914871149  0.6320583013740871  0.8996437401177173  1.0000
  C   C19       1.0  0.3035112751897202  0.32287194063076896  0.9302062150649134  1.0000
  C   C20       1.0  0.6964985268138405  0.67713023338802  0.06979518071896959  1.0000
  C   C21       1.0  0.21073524682920208  0.3791440942939417  0.9987015059119811  1.0000
  C   C22       1.0  0.7892640378046847  0.6208483995084179  0.0012915320459966808  1.0000
  C   C23       1.0  0.5124003731215794  0.37324505149032206  0.19334354598930759  1.0000
  C   C24       1.0  0.4875953249137766  0.6267476807226658  0.806658735188627  1.0000
  C   C25       1.0  0.556273303371448  0.2642453264545068  0.9586925474265866  1.0000
  C   C26       1.0  0.44373414965453856  0.7357568812169646  0.04131036779839552  1.0000
  C   C27       1.0  0.5254623158440024  0.1273016369067577  0.9801663907657883  1.0000
  C   C28       1.0  0.47454607464860715  0.8727047857725905  0.019837442499181165  1.0000
  C   C29       1.0  0.360847632516993  0.0188853944710203  0.9632016680608116  1.0000
  C   C30       1.0  0.6391649086515299  0.9811199687811293  0.03680121464881122  1.0000
  C   C31       1.0  0.6643153171767294  0.10723262377118911  0.0173010276423042  1.0000
  C   C32       1.0  0.3356928191762875  0.8927684079017906  0.982697025914916  1.0000
  N   N1        1.0  0.16080963070245963  0.45370963034390155  0.37738396609999814  1.0000
  N   N2        1.0  0.8391797321052222  0.5462933792824886  0.6226119930732421  1.0000
  N   N3        1.0  0.04234608881618838  0.352131427579458  0.49896873549187143  1.0000
  N   N4        1.0  0.9576524777365234  0.6478737826068582  0.5010301095319604  1.0000
  N   N5        1.0  0.2770299395293208  0.40721012655644273  0.10394361490259028  1.0000
  N   N6        1.0  0.7229654973517582  0.5927772355314573  0.8960536603518604  1.0000
  N   N7        1.0  0.4266669214973361  0.31680139155981374  0.9952131116311235  1.0000
  N   N8        1.0  0.5733367328786371  0.6831955382281691  0.004788624400532586  1.0000
  Cl  Cl1       1.0  0.9631386847980038  0.48717522063957114  0.17310609322369427  1.0000
  Cl  Cl2       1.0  0.03685737259722542  0.5128225893604467  0.8268903608981188  1.0000
  Cl  Cl3       1.0  0.4610454727076885  0.6898576415507449  0.30482458736107526  1.0000
  Cl  Cl4       1.0  0.5389558958228661  0.3101391339583088  0.6951717040533649  1.0000
