data_image0
_chemical_formula_structural       Zn2H32C36S6N8O8
_chemical_formula_sum              "Zn2 H32 C36 S6 N8 O8"
_cell_length_a       8.654386646972755
_cell_length_b       11.270757066969473
_cell_length_c       11.627422572370747
_cell_angle_alpha    72.12965448105057
_cell_angle_beta     87.30598412600662
_cell_angle_gamma    76.75833739962326

_space_group_name_H-M_alt    "P 1"
_space_group_IT_number       1

loop_
  _space_group_symop_operation_xyz
  'x, y, z'

loop_
  _atom_site_type_symbol
  _atom_site_label
  _atom_site_symmetry_multiplicity
  _atom_site_fract_x
  _atom_site_fract_y
  _atom_site_fract_z
  _atom_site_occupancy
  Zn  Zn1       1.0  0.6378333497288081  0.9104564142061238  0.8986636699960469  1.0000
  Zn  Zn2       1.0  0.3621606270824032  0.08955024500397  0.1013353915864101  1.0000
  H   H1        1.0  0.9700884429699245  0.5481586316881818  0.8396930277519699  1.0000
  H   H2        1.0  0.029908951113462506  0.4518442191562642  0.16030446223859227  1.0000
  H   H3        1.0  0.04732247889916863  0.6772766238778872  0.7487048644691112  1.0000
  H   H4        1.0  0.9526660021377608  0.32272906149548675  0.2512929385028427  1.0000
  H   H5        1.0  0.8951419337146831  0.15531475467955153  0.06910614090872969  1.0000
  H   H6        1.0  0.10486425277633066  0.8446775968851981  0.9308932896042986  1.0000
  H   H7        1.0  0.9865935969764904  0.9922970009822266  0.11694650205340196  1.0000
  H   H8        1.0  0.013413861797296502  0.007703016737266904  0.8830514977822613  1.0000
  H   H9        1.0  0.7353610038439983  0.7908342428212831  0.1646595956036805  1.0000
  H   H10       1.0  0.26463486295779853  0.2091656948657531  0.8353473987113913  1.0000
  H   H11       1.0  0.6901812859243818  0.6166179358886057  0.3404295530666913  1.0000
  H   H12       1.0  0.3098151435345216  0.3833801011610874  0.6595745409201182  1.0000
  H   H13       1.0  0.38999753747969373  0.5201250554026445  0.11173394765864936  1.0000
  H   H14       1.0  0.609996724436705  0.47988065678841724  0.8882628026224635  1.0000
  H   H15       1.0  0.4480509674317261  0.7038320287920287  0.9411242566290452  1.0000
  H   H16       1.0  0.5519533478451705  0.2961708403751757  0.0588755869088118  1.0000
  H   H17       1.0  0.45639833796817436  0.48372509680324083  0.42201467777407936  1.0000
  H   H18       1.0  0.5436018466342388  0.5162720106378773  0.5779861288419992  1.0000
  H   H19       1.0  0.41793932211218987  0.3986467989629291  0.32498634661854436  1.0000
  H   H20       1.0  0.5820588857437984  0.6013531745284126  0.6750136819773543  1.0000
  H   H21       1.0  0.7561004743751383  0.3946897800060967  0.39995766769263946  1.0000
  H   H22       1.0  0.24390099761657777  0.6053150067883095  0.6000382636972077  1.0000
  H   H23       1.0  0.6986807367596767  0.2975524303694499  0.32281536914710063  1.0000
  H   H24       1.0  0.3013174673196772  0.7024475398222593  0.6771855205860147  1.0000
  H   H25       1.0  0.4824098871257973  0.1630966580325222  0.44765451414981766  1.0000
  H   H26       1.0  0.5175880959444256  0.8369080948532431  0.5523466989954996  1.0000
  H   H27       1.0  0.48041503405457303  0.9962044504083639  0.6494194266608627  1.0000
  H   H28       1.0  0.5195904328662592  0.0037984201628092004  0.3505812397034802  1.0000
  H   H29       1.0  0.7946648158722454  0.13485126902065053  0.8010969901216638  1.0000
  H   H30       1.0  0.20534147237444966  0.8651487307966974  0.19890449257358264  1.0000
  H   H31       1.0  0.8114844592276002  0.30599211378414276  0.6082391830450644  1.0000
  H   H32       1.0  0.18852013737784287  0.6940098050643898  0.39175921032866506  1.0000
  C   C1        1.0  0.8002437414824753  0.7294041697141227  0.7957170535908273  1.0000
  C   C2        1.0  0.19974924059788177  0.2705938697229229  0.20428284964209098  1.0000
  C   C3        1.0  0.9420011280877457  0.6362315219180773  0.7624680158988891  1.0000
  C   C4        1.0  0.0579910402200241  0.3637693948720654  0.23752934872869244  1.0000
  C   C5        1.0  0.8918393174673082  0.7172580502350813  0.5147178879304517  1.0000
  C   C6        1.0  0.10815944171588397  0.2827400127200193  0.48528182374883483  1.0000
  C   C7        1.0  0.8725311668422364  0.9191021194365023  0.3609868109176516  1.0000
  C   C8        1.0  0.12747479486301222  0.08089501152267081  0.6390138041447952  1.0000
  C   C9        1.0  0.878791909705491  0.06138549523245019  0.12641161309404939  1.0000
  C   C10       1.0  0.12120998164469647  0.9386097063760277  0.8735888382946867  1.0000
  C   C11       1.0  0.7326141373002031  0.03148595728188042  0.08245130525635598  1.0000
  C   C12       1.0  0.2673984530467949  0.9685083528385974  0.9175430454856367  1.0000
  C   C13       1.0  0.6581788324161052  0.7301939340566791  0.15550944703902297  1.0000
  C   C14       1.0  0.3418167832701967  0.26980698034611816  0.8444921083424572  1.0000
  C   C15       1.0  0.631582845196938  0.6313597811224412  0.254526951841811  1.0000
  C   C16       1.0  0.36841677674837575  0.3686392269560272  0.7454767551025224  1.0000
  C   C17       1.0  0.5326705768285366  0.5534365488989863  0.24203263997211616  1.0000
  C   C18       1.0  0.46732789724947565  0.4465624610751392  0.7579693830085146  1.0000
  C   C19       1.0  0.46554773666482413  0.5794327977057209  0.1270991564713383  1.0000
  C   C20       1.0  0.5344524479375892  0.4205643097354043  0.8729016501447401  1.0000
  C   C21       1.0  0.49701565736557285  0.6808899454868398  0.032124565883684404  1.0000
  C   C22       1.0  0.5029842421316602  0.31910810897332453  0.9678785520337381  1.0000
  C   C23       1.0  0.5052039044392628  0.4451205732027575  0.3482471880125857  1.0000
  C   C24       1.0  0.4947945809686444  0.5548784466702729  0.6517522515563952  1.0000
  C   C25       1.0  0.6623083885513664  0.3460331147812497  0.39204140260117976  1.0000
  C   C26       1.0  0.3376921904651766  0.6539707004926998  0.6079574226213394  1.0000
  C   C27       1.0  0.6502702691520595  0.24727559603363156  0.5106085075361974  1.0000
  C   C28       1.0  0.34973349857425967  0.7527291869694539  0.48939079178105505  1.0000
  C   C29       1.0  0.5545782474990943  0.1591221410686501  0.5238567729346498  1.0000
  C   C30       1.0  0.44542466124173785  0.8408817001106998  0.476137669980332  1.0000
  C   C31       1.0  0.5528306692479816  0.06652498307192904  0.6348943637745348  1.0000
  C   C32       1.0  0.44717540554283636  0.93347980603874  0.3651057200584801  1.0000
  C   C33       1.0  0.7287602747969827  0.14365488166976095  0.7202609681571984  1.0000
  C   C34       1.0  0.2712434326099143  0.8563460689579402  0.2797394579119866  1.0000
  C   C35       1.0  0.736380994283472  0.2392835432014594  0.6125751406318684  1.0000
  C   C36       1.0  0.26362106291843906  0.7607231423346337  0.3874253750499434  1.0000
  S   S1        1.0  0.9137553787329576  0.5795884214242052  0.6375925794485225  1.0000
  S   S2        1.0  0.08623650824625886  0.4204134456846091  0.3624062353431937  1.0000
  S   S3        1.0  0.881721202129583  0.8730497137254648  0.5186728467221042  1.0000
  S   S4        1.0  0.11827986411811513  0.12694835533721263  0.481327649472952  1.0000
  S   S5        1.0  0.8695905353181174  0.07563265594036753  0.2767221034479589  1.0000
  S   S6        1.0  0.13041861509691438  0.9243654427479487  0.723278985709221  1.0000
  N   N1        1.0  0.8743390521569621  0.8244100409555557  0.3166789054136316  1.0000
  N   N2        1.0  0.12566433248512954  0.17558804411361711  0.6833197918855376  1.0000
  N   N3        1.0  0.8853249632472424  0.7098118252736967  0.4043997365023768  1.0000
  N   N4        1.0  0.11467352216066473  0.2901871945993406  0.5955997030666111  1.0000
  N   N5        1.0  0.5910319515398186  0.7560484202895739  0.04585431254817961  1.0000
  N   N6        1.0  0.40896739663021  0.24395154470683886  0.9541491222858622  1.0000
  N   N7        1.0  0.6399759170793401  0.05743886704453872  0.7317264417427435  1.0000
  N   N8        1.0  0.3600318795657813  0.9425640294320349  0.2682698423140763  1.0000
  O   O1        1.0  0.8411999662814506  0.7886003802647253  0.8635053741103461  1.0000
  O   O2        1.0  0.1587971653565461  0.2114034373965694  0.13648926035826747  1.0000
  O   O3        1.0  0.6619713105403306  0.7413211047924622  0.759378183701848  1.0000
  O   O4        1.0  0.3380200914922895  0.2586701957110548  0.24063062833307913  1.0000
  O   O5        1.0  0.7550134916501464  0.995570278968671  0.9879922450090602  1.0000
  O   O6        1.0  0.24499356137962278  0.0044230210190932  0.012010319631805497  1.0000
  O   O7        1.0  0.6059802870415751  0.04568717503418181  0.13942757757016006  1.0000
  O   O8        1.0  0.39400943845632963  0.9543060576990641  0.8605747005943837  1.0000
