data_image0
_chemical_formula_structural       Zn3H32C32N2O12
_chemical_formula_sum              "Zn3 H32 C32 N2 O12"
_cell_length_a       8.619306657073654
_cell_length_b       10.87247105057558
_cell_length_c       10.802112204290838
_cell_angle_alpha    101.77419132903083
_cell_angle_beta     108.8239931014294
_cell_angle_gamma    111.50919375961719

_space_group_name_H-M_alt    "P 1"
_space_group_IT_number       1

loop_
  _space_group_symop_operation_xyz
  'x, y, z'

loop_
  _atom_site_type_symbol
  _atom_site_label
  _atom_site_symmetry_multiplicity
  _atom_site_fract_x
  _atom_site_fract_y
  _atom_site_fract_z
  _atom_site_occupancy
  Zn  Zn1       1.0  0.9999994995132014  0.9999998960338488  3.657901644438893e-07  1.0000
  Zn  Zn2       1.0  0.32968564010605644  0.895532142774037  0.02647991265938284  1.0000
  Zn  Zn3       1.0  0.6703129594616898  0.10446852018499436  0.9735211519273861  1.0000
  H   H1        1.0  0.6762674006977321  0.6773931845426657  0.8148696834363348  1.0000
  H   H2        1.0  0.32373363992181947  0.3226074771722978  0.18513106914276986  1.0000
  H   H3        1.0  0.514250755322422  0.40927757579407137  0.7109296732322647  1.0000
  H   H4        1.0  0.48574906038030025  0.5907230872193807  0.2890707715012724  1.0000
  H   H5        1.0  0.7067136297604577  0.28088313197706327  0.7257974870909506  1.0000
  H   H6        1.0  0.29328496102543505  0.7191175323348701  0.2742026497970116  1.0000
  H   H7        1.0  0.9971319205193938  0.2953884043055126  0.8488731280198181  1.0000
  H   H8        1.0  0.002864716230284485  0.7046090743413628  0.15112492226874957  1.0000
  H   H9        1.0  0.20139715805774475  0.4557682131486018  0.9018504019242428  1.0000
  H   H10       1.0  0.7986019285255921  0.5442292629013038  0.0981482640554673  1.0000
  H   H11       1.0  0.22384322636405318  0.5461198821346257  0.6898125330297518  1.0000
  H   H12       1.0  0.7761627227046547  0.4538807730334752  0.31019037863046606  1.0000
  H   H13       1.0  0.22144994638287585  0.45895455087399023  0.4568008810822732  1.0000
  H   H14       1.0  0.778558524438907  0.541048227674274  0.5432031110239066  1.0000
  H   H15       1.0  0.05297229423505457  0.19896758754616425  0.3146682660604725  1.0000
  H   H16       1.0  0.9470300256570497  0.8010352015532689  0.6853314037213991  1.0000
  H   H17       1.0  0.8817778036358207  0.0287378671917935  0.403394865010732  1.0000
  H   H18       1.0  0.11822017552398716  0.9712638661696004  0.596601639536594  1.0000
  H   H19       1.0  0.8866270000946984  0.11601232838174977  0.6369675952497147  1.0000
  H   H20       1.0  0.1133702587275636  0.883986216663182  0.36302805824260537  1.0000
  H   H21       1.0  0.6035440483737277  0.20089138904662457  0.463983194366783  1.0000
  H   H22       1.0  0.3964544704927492  0.7991071492881758  0.536016477766367  1.0000
  H   H23       1.0  0.42933145083928553  0.07648213984636952  0.4905388433722635  1.0000
  H   H24       1.0  0.5706670048896214  0.923514271158389  0.5094612917048806  1.0000
  H   H25       1.0  0.4076687407093261  0.22650236386785136  0.4595171794647044  1.0000
  H   H26       1.0  0.5923291385208741  0.7734951107747107  0.5404830340670584  1.0000
  H   H27       1.0  0.43427264033171303  0.16500863014174166  0.7640320015691627  1.0000
  H   H28       1.0  0.5657265357347325  0.834990969179472  0.23596898456299428  1.0000
  H   H29       1.0  0.505351744878901  0.31373509873171196  0.9110286258565309  1.0000
  H   H30       1.0  0.4946456209901697  0.686265566878717  0.08897120318585655  1.0000
  H   H31       1.0  0.2816941317685533  0.24158818572576024  0.7666353476172887  1.0000
  H   H32       1.0  0.718304441453654  0.7584124812920051  0.23336293387304605  1.0000
  C   C1        1.0  0.05159379850424977  0.6140496381879572  0.8794353795361332  1.0000
  C   C2        1.0  0.9484072421153018  0.38595102352700644  0.12056537304297173  1.0000
  C   C3        1.0  0.9467204647959735  0.6920097410133508  0.8803737492624464  1.0000
  C   C4        1.0  0.05328055825988535  0.3079909234074306  0.119625147919038  1.0000
  C   C5        1.0  0.7545710542391575  0.6180982651219366  0.8186276955914237  1.0000
  C   C6        1.0  0.24542876146356463  0.3819023978915154  0.1813727491421133  1.0000
  C   C7        1.0  0.6647521387133822  0.4684495266726287  0.7599470445676388  1.0000
  C   C8        1.0  0.3352470285712172  0.531550074001494  0.24005301386569766  1.0000
  C   C9        1.0  0.7661010352349749  0.3959907601895837  0.7648198566336075  1.0000
  C   C10       1.0  0.23389813204962454  0.6040088404845392  0.2351802017997286  1.0000
  C   C11       1.0  0.05935475117197334  0.386305970101958  0.8203856476071465  1.0000
  C   C12       1.0  0.9406444073307797  0.6136936319250808  0.17961348312738312  1.0000
  C   C13       1.0  0.05431544950929626  0.3362138495011848  0.6776254547785854  1.0000
  C   C14       1.0  0.945685582328409  0.6637868135666878  0.32237437010171277  1.0000
  C   C15       1.0  0.14852075926139455  0.4327271437010651  0.6263964461715048  1.0000
  C   C16       1.0  0.8514839648904842  0.5672735127655244  0.37360615764313815  1.0000
  C   C17       1.0  0.14673697532897012  0.38363176818644007  0.4957284938047195  1.0000
  C   C18       1.0  0.8532678031786389  0.6163710169631071  0.5042727193671084  1.0000
  C   C19       1.0  0.05128296918935146  0.23812217849676634  0.4151710986337562  1.0000
  C   C20       1.0  0.9487205844014285  0.7618806079512694  0.5848298066924968  1.0000
  C   C21       1.0  0.9554319217395463  0.1421873017531681  0.46517933000065886  1.0000
  C   C22       1.0  0.04456786761764381  0.8578133653190103  0.5348183316364369  1.0000
  C   C23       1.0  0.9567229758139891  0.19098555883719828  0.5956562870434183  1.0000
  C   C24       1.0  0.043276813543201106  0.8090151082349875  0.4043413745936775  1.0000
  C   C25       1.0  0.3535498183860426  0.0636270634260754  0.2757536908663951  1.0000
  C   C26       1.0  0.6464492857609797  0.9363704099180052  0.7242468305109425  1.0000
  C   C27       1.0  0.45358928004496596  0.1477881065560211  0.4321970375626023  1.0000
  C   C28       1.0  0.5464092476033644  0.8522104304258705  0.5678035622693544  1.0000
  C   C29       1.0  0.304606489131615  0.12089478826600701  0.8998717886580822  1.0000
  C   C30       1.0  0.6953903090205956  0.8791069396293166  0.10012904653773788  1.0000
  C   C31       1.0  0.3843900333721423  0.2159773750343135  0.8295253321542759  1.0000
  C   C32       1.0  0.6156066840787987  0.784022228236786  0.17047411058791784  1.0000
  N   N1        1.0  0.9561703625880044  0.4687089507699866  0.8240413355456581  1.0000
  N   N2        1.0  0.043829444332871545  0.5312917135963745  0.17595818148906525  1.0000
  O   O1        1.0  0.22912550441127164  0.6796692611904689  0.9297614912681809  1.0000
  O   O2        1.0  0.7708736453096351  0.3203303421894788  0.07023671176753508  1.0000
  O   O3        1.0  0.04999810364478195  0.8315441046367267  0.9396258279296675  1.0000
  O   O4        1.0  0.9500035046916296  0.16845549479333496  0.06037391849600481  1.0000
  O   O5        1.0  0.24031505282378873  0.09481078410833993  0.198943968953472  1.0000
  O   O6        1.0  0.7596859246581856  0.9051877502765818  0.8010572465696338  1.0000
  O   O7        1.0  0.39524837500389504  0.9659751108339805  0.23151259830560628  1.0000
  O   O8        1.0  0.6047444782838484  0.03401811434243741  0.7684873097318672  1.0000
  O   O9        1.0  0.1546759759948557  0.10504486950289049  0.9032817025715828  1.0000
  O   O10       1.0  0.8453213898742148  0.8949557961075313  0.09671812647080447  1.0000
  O   O11       1.0  0.4004278434397436  0.06080479016266341  0.9550901558286854  1.0000
  O   O12       1.0  0.5995695312111664  0.9391958740948495  0.04491060091251598  1.0000
