data_image0
_chemical_formula_structural       Sm4H60C44S4O36
_chemical_formula_sum              "Sm4 H60 C44 S4 O36"
_cell_length_a       8.242331929386209
_cell_length_b       9.701822652
_cell_length_c       18.441
_cell_angle_alpha    90.0
_cell_angle_beta     101.91507284686315
_cell_angle_gamma    90.0

_space_group_name_H-M_alt    "P 1"
_space_group_IT_number       1

loop_
  _space_group_symop_operation_xyz
  'x, y, z'

loop_
  _atom_site_type_symbol
  _atom_site_label
  _atom_site_symmetry_multiplicity
  _atom_site_fract_x
  _atom_site_fract_y
  _atom_site_fract_z
  _atom_site_occupancy
  Sm  Sm1       1.0  0.0214526219811972  0.283512706700833  0.9945180013633178  1.0000
  Sm  Sm2       1.0  0.47855305358329747  0.783508447088856  0.5054864538316295  1.0000
  Sm  Sm3       1.0  0.9785438495764538  0.7164880506826208  0.005479232819290299  1.0000
  Sm  Sm4       1.0  0.5214434179743463  0.21648097221886786  0.49451999893999243  1.0000
  H   H1        1.0  0.3384966084055634  0.1885099393795855  0.0975298596030001  1.0000
  H   H2        1.0  0.16151154708749255  0.6885067105017626  0.402468859468982  1.0000
  H   H3        1.0  0.661508542902034  0.8115000946112971  0.9024725137015324  1.0000
  H   H4        1.0  0.8384812045773273  0.3114847702742765  0.5975399613827507  1.0000
  H   H5        1.0  0.6954674445955218  0.1793766040076221  0.005636046697809074  1.0000
  H   H6        1.0  0.8045471021694084  0.6793620370540694  0.4943749209608583  1.0000
  H   H7        1.0  0.3045525862834211  0.8206354914515686  0.9943704110348222  1.0000
  H   H8        1.0  0.19544936938824253  0.3206284129878156  0.5056304472708746  1.0000
  H   H9        1.0  0.4026362406361486  0.3123444025618554  0.05582919346003481  1.0000
  H   H10       1.0  0.0973793546425767  0.8123432351523476  0.44417021215113556  1.0000
  H   H11       1.0  0.5973602309215025  0.6876615084923969  0.9441653293728578  1.0000
  H   H12       1.0  0.9026109170936818  0.1876585529652672  0.5558345839646037  1.0000
  H   H13       1.0  0.8055514732349423  0.0455069130653527  0.005104228663888891  1.0000
  H   H14       1.0  0.6944481939586493  0.5454933768459469  0.49489506278749934  1.0000
  H   H15       1.0  0.19444747825126996  0.9544917828497929  0.9948856425859275  1.0000
  H   H16       1.0  0.3055395978490552  0.4544939809934617  0.5051067931321356  1.0000
  H   H17       1.0  0.9691337606674111  0.296137138665145  0.1972094327244562  1.0000
  H   H18       1.0  0.5308919457760197  0.7961266946482226  0.3028020224730598  1.0000
  H   H19       1.0  0.0308676707473481  0.7038656801866239  0.8027779560220482  1.0000
  H   H20       1.0  0.4691057657459082  0.2038709705327619  0.6972110519610624  1.0000
  H   H21       1.0  0.08424069314828127  0.3104725893313542  0.3345276554171548  1.0000
  H   H22       1.0  0.415752582773429  0.8104848214658986  0.16548812775446461  1.0000
  H   H23       1.0  0.9157929773377163  0.6895291987862677  0.6654594547128669  1.0000
  H   H24       1.0  0.5842178495343759  0.1895324276640906  0.8345289366085851  1.0000
  H   H25       1.0  0.9920321809972633  0.4962943740274852  0.4078106373411217  1.0000
  H   H26       1.0  0.5079588064463749  0.9963055754278684  0.0922062903259047  1.0000
  H   H27       1.0  0.0080052093815723  0.5037032911534993  0.592177358328442  1.0000
  H   H28       1.0  0.4920227855399303  0.0037034278288529997  0.907809634766167  1.0000
  H   H29       1.0  0.7969238017855884  0.6783261492255122  0.3449642186754289  1.0000
  H   H30       1.0  0.7030895050150576  0.1783262859008587  0.1550466345600441  1.0000
  H   H31       1.0  0.2030974690576244  0.3216673930188421  0.6550325926214455  1.0000
  H   H32       1.0  0.2969106864354245  0.821674471482595  0.8449612460210574  1.0000
  H   H33       1.0  0.6905299068387976  0.667496225429872  0.20861623587198613  1.0000
  H   H34       1.0  0.8094995194974715  0.1674963621052186  0.2913928512454262  1.0000
  H   H35       1.0  0.30946656471885337  0.3324983475486434  0.7913826251204483  1.0000
  H   H36       1.0  0.19050687177440295  0.8325013030757659  0.7086150591817315  1.0000
  H   H37       1.0  0.7743514920609726  0.6331325793441209  0.8129810364311822  1.0000
  H   H38       1.0  0.7256382554183884  0.1331327160194746  0.6870216777941494  1.0000
  H   H39       1.0  0.2256660588894164  0.3668702395076551  0.1870246501851085  1.0000
  H   H40       1.0  0.2743383767108013  0.8668628876931948  0.3129704719976232  1.0000
  H   H41       1.0  0.5979343343824155  0.5600277592046012  0.8372843015659086  1.0000
  H   H42       1.0  0.9020578930254997  0.0600330495507393  0.662718641505819  1.0000
  H   H43       1.0  0.4020782567108512  0.43997609038132884  0.16272092735759  1.0000
  H   H44       1.0  0.0979249389250896  0.9399728615035058  0.3372751649418291  1.0000
  H   H45       1.0  0.7794961038521961  0.4330815096000364  0.7241688632572973  1.0000
  H   H46       1.0  0.7205023233771115  0.9330885880637894  0.7758308560408268  1.0000
  H   H47       1.0  0.2205177272053547  0.5669254321883699  0.2758321419298611  1.0000
  H   H48       1.0  0.2794891883234172  0.0669183537246099  0.2241648359091002  1.0000
  H   H49       1.0  0.6045061450581244  0.3633482208905647  0.7512154015345729  1.0000
  H   H50       1.0  0.8954761626355676  0.8633429305444267  0.7487801189122649  1.0000
  H   H51       1.0  0.3955064460351494  0.6366587208978416  0.2487849469594465  1.0000
  H   H52       1.0  0.1045004694936296  0.136656796104873  0.2512114886095703  1.0000
  H   H53       1.0  0.4403100753078206  0.5769740594924215  0.7062798472373119  1.0000
  H   H54       1.0  0.0596943602923972  0.0769546122187776  0.7937179862951353  1.0000
  H   H55       1.0  0.5596950759997767  0.4230308208276625  0.2937225260672278  1.0000
  H   H56       1.0  0.9403008713009768  0.9230306841523159  0.2062737107648545  1.0000
  H   H57       1.0  0.61506568085327  0.6523743246012899  0.6834392194430876  1.0000
  H   H58       1.0  0.8849414261259909  0.1523837378840582  0.8165542513081832  1.0000
  H   H59       1.0  0.384934510597212  0.3476223098455407  0.3165594425489999  1.0000
  H   H60       1.0  0.11506248521732937  0.8476242346385021  0.1834344508245991  1.0000
  C   C1        1.0  0.8212035423216193  0.4787863236236802  0.19616412331529182  1.0000
  C   C2        1.0  0.6788258840146497  0.978793402087433  0.3038487596917108  1.0000
  C   C3        1.0  0.17880284895026213  0.5212041264182048  0.8038280612835464  1.0000
  C   C4        1.0  0.3211767873643865  0.021212508966812  0.6961626033554396  1.0000
  C   C5        1.0  0.9319571516713907  0.378459814377571  0.2305604242680985  1.0000
  C   C6        1.0  0.5680611149863708  0.878466892841324  0.2694563093595903  1.0000
  C   C7        1.0  0.0680479996362067  0.6215388815375746  0.7694321881774826  1.0000
  C   C8        1.0  0.4319341166069961  0.121535926010452  0.7305570784980804  1.0000
  C   C9        1.0  0.9944587910901603  0.3862408265345394  0.3069408050684856  1.0000
  C   C10       1.0  0.5055458359605396  0.8862427513275081  0.1930773812537225  1.0000
  C   C11       1.0  0.0055748793958443  0.6137702381904973  0.6930452205216611  1.0000
  C   C12       1.0  0.4944481556685502  0.11376728266337469  0.8069386035304547  1.0000
  C   C13       1.0  0.9444721111336278  0.4930042705958968  0.3481374005378726  1.0000
  C   C14       1.0  0.5555287960242339  0.9929969187814436  0.1518739352754395  1.0000
  C   C15       1.0  0.0555553595309775  0.506996486787564  0.6518513065559262  1.0000
  C   C16       1.0  0.4444614757120178  0.007001777133702101  0.8481389948894318  1.0000
  C   C17       1.0  0.8357805623788934  0.5946655805763115  0.31288697345665645  1.0000
  C   C18       1.0  0.6642315044574756  0.0946657172516652  0.1871210540059067  1.0000
  C   C19       1.0  0.1642295487858192  0.4053300231363579  0.6871066389516614  1.0000
  C   C20       1.0  0.3357562873502218  0.9053371016001109  0.8128894782327977  1.0000
  C   C21       1.0  0.774474248524534  0.5884883907688234  0.23661906569981989  1.0000
  C   C22       1.0  0.7255477380260658  0.0884813123050705  0.2633882503385081  1.0000
  C   C23       1.0  0.2255247029616712  0.4115123666146374  0.763372432359823  1.0000
  C   C24       1.0  0.2744499734958623  0.9115153221417599  0.7366183168563154  1.0000
  C   C25       1.0  0.8159473337453349  0.4521016470132864  0.8783513896490334  1.0000
  C   C26       1.0  0.6840498535196957  0.9521056332745701  0.6216514688455491  1.0000
  C   C27       1.0  0.18406153745510065  0.5478980796360133  0.12165241146498572  1.0000
  C   C28       1.0  0.315940418216563  0.0478837860331538  0.3783435664112318  1.0000
  C   C29       1.0  0.7116142594292965  0.534469675028646  0.8176753850456749  1.0000
  C   C30       1.0  0.7883816878714569  0.0344729039064688  0.6823262744858241  1.0000
  C   C31       1.0  0.2883983316639699  0.4655341745572841  0.182326590258171  1.0000
  C   C32       1.0  0.21160858386480186  0.9655257920086769  0.31766930304090824  1.0000
  C   C33       1.0  0.6668552688706484  0.4605722203218008  0.7439506687500098  1.0000
  C   C34       1.0  0.8331431583586664  0.9605720836464542  0.7560485082781767  1.0000
  C   C35       1.0  0.3331585621869024  0.5394347214666055  0.2560514209770375  1.0000
  C   C36       1.0  0.1668508332704306  0.0394297044711607  0.24394632797826432  1.0000
  C   C37       1.0  0.5562095364130997  0.5520529690259721  0.6881923796623042  1.0000
  C   C38       1.0  0.9437864108876539  0.05205310570131871  0.8118065685194864  1.0000
  C   C39       1.0  0.4437943749302207  0.4479477883574888  0.3118115060288531  1.0000
  C   C40       1.0  0.0562113006342742  0.9479476516821421  0.1881875264666704  1.0000
  C   C41       1.0  0.5076041766627453  0.4935196376747797  0.6116274994594306  1.0000
  C   C42       1.0  0.9923756511023925  0.9935215624677484  0.8883688766808858  1.0000
  C   C43       1.0  0.4923885750020743  0.5064821504428352  0.3883769832327673  1.0000
  C   C44       1.0  0.00760594088392  0.0064853793206581  0.11162264626379681  1.0000
  S   S1        1.0  0.7381098161308868  0.4730430728966084  0.09906891854321029  1.0000
  S   S2        1.0  0.761919610205382  0.9730460284237309  0.4009434221938477  1.0000
  S   S3        1.0  0.261885415462487  0.5269741762333737  0.9009238630566615  1.0000
  S   S4        1.0  0.2380867810664924  0.0269464830864621  0.5990644882333029  1.0000
  O   O1        1.0  0.324463932666518  0.23403849786224382  0.04953139123783501  1.0000
  O   O2        1.0  0.1755479427193691  0.7340362997185821  0.45046712883380025  1.0000
  O   O3        1.0  0.6755399786768024  0.765964320989525  0.9504665294839612  1.0000
  O   O4        1.0  0.8244373691597744  0.2659623961965636  0.5495415477486816  1.0000
  O   O5        1.0  0.8154860670337596  0.3528182407348339  0.07003703852410577  1.0000
  O   O6        1.0  0.6845557589453009  0.8528170733253262  0.4299769887148841  1.0000
  O   O7        1.0  0.18450420470249895  0.6471680863704137  0.9299547431130295  1.0000
  O   O8        1.0  0.31545807211225  0.1471733767165517  0.5700278123618716  1.0000
  O   O9        1.0  0.7621539634540113  0.1301879085307363  0.9760336453261119  1.0000
  O   O10       1.0  0.7378531435252498  0.6301702493747072  0.52396904401418  1.0000
  O   O11       1.0  0.2378511878535861  0.8698159410551937  0.0239611361992402  1.0000
  O   O12       1.0  0.2621420880681242  0.3698202006671778  0.4760329561747056  1.0000
  O   O13       1.0  0.5585394292922743  0.45666264566139597  0.0882707288277444  1.0000
  O   O14       1.0  0.9414862771511565  0.9566666319226798  0.4117390995599521  1.0000
  O   O15       1.0  0.4414582822296538  0.5433556342027401  0.9117228238884677  1.0000
  O   O16       1.0  0.0585176341921638  0.043321756650883  0.5882729201803372  1.0000
  O   O17       1.0  0.8388693133964722  0.3239381003684016  0.8719058013307119  1.0000
  O   O18       1.0  0.6611489532612891  0.8239441480980005  0.6280919528490116  1.0000
  O   O19       1.0  0.1611457576253486  0.6760554418759526  0.12808989558023143  1.0000
  O   O20       1.0  0.3388586779748692  0.1760545478171451  0.371903599792681  1.0000
  O   O21       1.0  0.4179807985817731  0.5699671286879351  0.5615909318619714  1.0000
  O   O22       1.0  0.08200999741138297  0.0699662346291277  0.9384072698251132  1.0000
  O   O23       1.0  0.5820045132973704  0.4300222906197888  0.43841015294132296  1.0000
  O   O24       1.0  0.9179839942177139  0.9300386456909634  0.061586481891445985  1.0000
  O   O25       1.0  0.7859203587787604  0.6066901252608048  0.0718670529007568  1.0000
  O   O26       1.0  0.7141053476646704  0.10669644634110399  0.4281460291065926  1.0000
  O   O27       1.0  0.2140823126002758  0.3933085706543409  0.9281350915573868  1.0000
  O   O28       1.0  0.285901043607204  0.8933012188398878  0.571864050400329  1.0000
  O   O29       1.0  0.8820275100716657  0.5120120391992486  0.9394657700003605  1.0000
  O   O30       1.0  0.6179461178720729  0.0120183602795478  0.5605392526129763  1.0000
  O   O31       1.0  0.1179652415931471  0.4879773801084752  0.0605360013421219  1.0000
  O   O32       1.0  0.3820429138999017  0.9879689975598609  0.4394572950304365  1.0000
  O   O33       1.0  0.5524536846137167  0.3722238727230831  0.5988744778726344  1.0000
  O   O34       1.0  0.9475187033657448  0.8722247667818976  0.9011320571273275  1.0000
  O   O35       1.0  0.4475328672297039  0.6277737924579014  0.4011288904336254  1.0000
  O   O36       1.0  0.05247404829906799  0.1277718676649329  0.0988659183255649  1.0000
