data_image0
_chemical_formula_structural       Cu4H12C8O8
_chemical_formula_sum              "Cu4 H12 C8 O8"
_cell_length_a       5.19281564349276
_cell_length_b       5.90430594725737
_cell_length_c       9.882020435344838
_cell_angle_alpha    90.02172958056661
_cell_angle_beta     93.67298948690659
_cell_angle_gamma    89.97648812511959

_space_group_name_H-M_alt    "P 1"
_space_group_IT_number       1

loop_
  _space_group_symop_operation_xyz
  'x, y, z'

loop_
  _atom_site_type_symbol
  _atom_site_label
  _atom_site_symmetry_multiplicity
  _atom_site_fract_x
  _atom_site_fract_y
  _atom_site_fract_z
  _atom_site_occupancy
  Cu  Cu1       1.0  0.6445108368335541  0.24994612577732056  0.42265148640968436  1.0000
  Cu  Cu2       1.0  0.355491728483365  0.7500738532270929  0.5773521788365488  1.0000
  Cu  Cu3       1.0  0.07542218471996158  0.2497523927706239  0.5463008283879847  1.0000
  Cu  Cu4       1.0  0.9245726654473996  0.7502574257853137  0.45370359087878165  1.0000
  H   H1        1.0  0.6478904931854005  0.25004827694592535  0.9274453268704838  1.0000
  H   H2        1.0  0.35209857771721426  0.749936138363104  0.07256193299927823  1.0000
  H   H3        1.0  0.3871650502310828  0.10099936058684726  0.838292952187111  1.0000
  H   H4        1.0  0.38709138876652827  0.39913435339526143  0.8383292849555775  1.0000
  H   H5        1.0  0.6128278704163606  0.8989715017433112  0.16170532682171776  1.0000
  H   H6        1.0  0.6128899852647579  0.6008399056408535  0.16169188475176816  1.0000
  H   H7        1.0  0.37874644541713554  0.250000188194754  0.13313308978921162  1.0000
  H   H8        1.0  0.6212734913245939  0.7499757509220256  0.8668671008603259  1.0000
  H   H9        1.0  0.101378969445669  0.10029498945034729  0.06394282772246383  1.0000
  H   H10       1.0  0.10125106811672419  0.3997781807290365  0.06404227193309713  1.0000
  H   H11       1.0  0.8986390230677654  0.8996894154990612  0.9360481917266343  1.0000
  H   H12       1.0  0.8987611250773072  0.6002079166311987  0.9359414711256168  1.0000
  C   C1        1.0  0.6512974708185197  0.25002735810235066  0.708888793272536  1.0000
  C   C2        1.0  0.34871088032597436  0.7500264944729479  0.2911181041818623  1.0000
  C   C3        1.0  0.051144320613460116  0.24999495767337976  0.256451683824004  1.0000
  C   C4        1.0  0.9488466514992735  0.750016551039593  0.7435394513594817  1.0000
  C   C5        1.0  0.5134127531814769  0.25003887618217385  0.8377128678955477  1.0000
  C   C6        1.0  0.4865840318435771  0.7499794120499245  0.16229667641911055  1.0000
  C   C7        1.0  0.16813846969954938  0.24998190864221204  0.12164496460039233  1.0000
  C   C8        1.0  0.8318621665561919  0.7499398324681437  0.8783434462454385  1.0000
  O   O1        1.0  0.5064550254951427  0.250053680215288  0.597782282405227  1.0000
  O   O2        1.0  0.4935475199650766  0.7500560637950638  0.4022213923342478  1.0000
  O   O3        1.0  0.8048297670504355  0.2499640778247566  0.2553411732654994  1.0000
  O   O4        1.0  0.1951612147107156  0.7500101702635504  0.7446509699633171  1.0000
  O   O5        1.0  0.896632438614766  0.24991687732193665  0.7132489255136608  1.0000
  O   O6        1.0  0.10336241970239257  0.75006245532677  0.286756502514912  1.0000
  O   O7        1.0  0.2021972506342919  0.24994948496027547  0.36410470103319187  1.0000
  O   O8        1.0  0.7978033690440539  0.7500535530804271  0.6358847303962138  1.0000
