data_image0
_chemical_formula_structural       Zn2H64C60N2O14
_chemical_formula_sum              "Zn2 H64 C60 N2 O14"
_cell_length_a       10.732749938035584
_cell_length_b       18.46172468949007
_cell_length_c       19.485942990940433
_cell_angle_alpha    89.45559397249164
_cell_angle_beta     90.69421942673051
_cell_angle_gamma    71.69581402614938

_space_group_name_H-M_alt    "P 1"
_space_group_IT_number       1

loop_
  _space_group_symop_operation_xyz
  'x, y, z'

loop_
  _atom_site_type_symbol
  _atom_site_label
  _atom_site_symmetry_multiplicity
  _atom_site_fract_x
  _atom_site_fract_y
  _atom_site_fract_z
  _atom_site_occupancy
  Zn  Zn1       1.0  0.479450384579273  0.5818477066506844  0.5004760080803052  1.0000
  Zn  Zn2       1.0  0.5125041264770189  0.4190193999486311  0.49823970638891524  1.0000
  H   H1        1.0  0.14010990758814043  0.45170846256167607  0.48574564440949786  1.0000
  H   H2        1.0  0.8518349464818087  0.561416541854406  0.49870775639645604  1.0000
  H   H3        1.0  0.44276841491755176  0.8367341552790748  0.6106003269193819  1.0000
  H   H4        1.0  0.7163645228200082  0.13420280496563208  0.4559828322765113  1.0000
  H   H5        1.0  0.6013926327817954  0.8119242641657749  0.40617380574556705  1.0000
  H   H6        1.0  0.3249109877616192  0.1978456233309132  0.5390879697717423  1.0000
  H   H7        1.0  0.6753755109891343  0.8967970843452592  0.43253872398486237  1.0000
  H   H8        1.0  0.37014904838587626  0.0912692723675761  0.5734894172451703  1.0000
  H   H9        1.0  0.02915856458326256  0.6252139377403481  0.5080755222456119  1.0000
  H   H10       1.0  0.961145516043217  0.3870811222283024  0.48189022849837215  1.0000
  H   H11       1.0  0.532106413983584  0.3824256876004809  0.8537442937820213  1.0000
  H   H12       1.0  0.3037409476010637  0.6314973279138485  0.15784517193420558  1.0000
  H   H13       1.0  0.29534832824969454  0.6185097522583336  0.8288643344359201  1.0000
  H   H14       1.0  0.46972866011936526  0.38582969127714517  0.15811404407942578  1.0000
  H   H15       1.0  0.3507469960305939  0.6108140785071116  0.7049679540425655  1.0000
  H   H16       1.0  0.49731805614710084  0.3882889059800689  0.28473005926989703  1.0000
  H   H17       1.0  0.4119285772510251  0.616692618327626  0.933637745927733  1.0000
  H   H18       1.0  0.3491759058185621  0.3984677424701175  0.0632912053706178  1.0000
  H   H19       1.0  0.4045195109213323  0.619680898538718  0.05984749103269848  1.0000
  H   H20       1.0  0.3605147784883015  0.39460667066281735  0.9369670027218504  1.0000
  H   H21       1.0  0.432851414218689  0.7035843388300763  0.6012991369776299  1.0000
  H   H22       1.0  0.6970782013804353  0.272597562897424  0.4571619124244107  1.0000
  H   H23       1.0  0.7689443549086263  0.7062093755892961  0.375703603893001  1.0000
  H   H24       1.0  0.6318636717822127  0.7254159678230891  0.3170473886751707  1.0000
  H   H25       1.0  0.8219751079355146  0.5661964709072506  0.3513322439155289  1.0000
  H   H26       1.0  0.6924919086419122  0.5876092276876861  0.28988707306795186  1.0000
  H   H27       1.0  0.8058176971028883  0.6672307218467708  0.22165654640469504  1.0000
  H   H28       1.0  0.9089876981330816  0.5716462185322798  0.2324494606306757  1.0000
  H   H29       1.0  0.9352845158981893  0.6441991941679248  0.2839073513963298  1.0000
  H   H30       1.0  0.38915284426144564  0.3377985227399591  0.6486902119124736  1.0000
  H   H31       1.0  0.2782688780763323  0.2830721749054419  0.6377921582046254  1.0000
  H   H32       1.0  0.2037579967876724  0.45737821115107385  0.6290638989930598  1.0000
  H   H33       1.0  0.09327143603881882  0.404484890813393  0.6183372028796299  1.0000
  H   H34       1.0  0.14344580247120578  0.3530292519064773  0.7405099013512738  1.0000
  H   H35       1.0  0.08215420081123871  0.45418894058495607  0.7383673095468806  1.0000
  H   H36       1.0  0.2527013943645001  0.4075390243748415  0.751000117456712  1.0000
  H   H37       1.0  0.7113472268300569  0.0874044923642003  0.3253660262158746  1.0000
  H   H38       1.0  0.5490066390488549  0.1138548997660251  0.35755510610460556  1.0000
  H   H39       1.0  0.692027495291313  0.9626631603662047  0.2875110901770482  1.0000
  H   H40       1.0  0.531712075319426  0.9866094207775191  0.3209818457110885  1.0000
  H   H41       1.0  0.45486643794739484  0.0987252597664252  0.23821265780463102  1.0000
  H   H42       1.0  0.5219813975375657  0.012122259879987498  0.19361328221354768  1.0000
  H   H43       1.0  0.6152373295847368  0.07540516431954808  0.20434597407619745  1.0000
  H   H44       1.0  0.1912448212087623  0.9156637275388421  0.5930238811640223  1.0000
  H   H45       1.0  0.2569314931600033  0.9138404819586085  0.5095077861224693  1.0000
  H   H46       1.0  0.0909678547259318  0.05736555218840069  0.5834298840693889  1.0000
  H   H47       1.0  0.1568499968620074  0.056648773291421185  0.5005145265771489  1.0000
  H   H48       1.0  0.022924081688912985  0.9744629011689341  0.45780696028917583  1.0000
  H   H49       1.0  0.9198879809665853  0.0601244736337776  0.4931454679560118  1.0000
  H   H50       1.0  0.9582478001049994  0.9737094750219127  0.5410264964380858  1.0000
  H   H51       1.0  0.7923523265765694  0.353205199748679  0.7457955689286137  1.0000
  H   H52       1.0  0.7150927372712276  0.4068026601859743  0.6713831508771476  1.0000
  H   H53       1.0  0.7744109213296254  0.23435804076678576  0.6900223817383803  1.0000
  H   H54       1.0  0.6991619008891089  0.28985272741342527  0.6170540881580066  1.0000
  H   H55       1.0  0.901833351811831  0.3253173990549811  0.5950888646784305  1.0000
  H   H56       1.0  0.941116149889332  0.22468324151357416  0.5981599401107615  1.0000
  H   H57       1.0  0.9800965696512377  0.2732012889471705  0.6695976437116399  1.0000
  H   H58       1.0  0.22744727810979273  0.6214165081381253  0.36525447778546277  1.0000
  H   H59       1.0  0.1284352903767996  0.6769398300565186  0.2968545941624328  1.0000
  H   H60       1.0  0.3012641040271189  0.7285172292279896  0.39935877583186397  1.0000
  H   H61       1.0  0.217660133883335  0.7845206489809441  0.32836831914708847  1.0000
  H   H62       1.0  6.091065189648365e-05  0.7802472205603337  0.37799489770530664  1.0000
  H   H63       1.0  0.08555196094761186  0.8232650692379337  0.4349310417202901  1.0000
  H   H64       1.0  0.0901717952310364  0.7277198824488237  0.4500413835161296  1.0000
  C   C1        1.0  0.45807433144314996  0.5036542106345081  0.3675137960849071  1.0000
  C   C2        1.0  0.49112601829023805  0.49525650633128754  0.6332149910674189  1.0000
  C   C3        1.0  0.4699254661475294  0.4938782791822971  0.7091933285616887  1.0000
  C   C4        1.0  0.421924288871807  0.5092988417463502  0.292478448782674  1.0000
  C   C5        1.0  0.396156796767812  0.56912481299927  0.9619055477893353  1.0000
  C   C6        1.0  0.36514153353924417  0.4461046198485761  0.03518579454824789  1.0000
  C   C7        1.0  0.39175260806738516  0.570796468805142  0.03315169279893839  1.0000
  C   C8        1.0  0.37104189738414556  0.4439878674199064  0.9639014033427884  1.0000
  C   C9        1.0  0.3786007815883749  0.5088120286761679  0.0715752526011784  1.0000
  C   C10       1.0  0.38910173053627506  0.5049101169855419  0.9258423715457266  1.0000
  C   C11       1.0  0.4718148059654866  0.7301251803915249  0.5600632141885666  1.0000
  C   C12       1.0  0.6180696451949997  0.2522192877710339  0.4752678377685839  1.0000
  C   C13       1.0  0.4762119882267869  0.8041421875584901  0.5645737526727996  1.0000
  C   C14       1.0  0.6276126698317414  0.17563842326693896  0.4744880888357058  1.0000
  C   C15       1.0  0.520169001361161  0.836801020732736  0.5078470238808137  1.0000
  C   C16       1.0  0.5215450108023417  0.1523750348323389  0.49726434126358027  1.0000
  C   C17       1.0  0.567937473842747  0.7897396275170294  0.45177093548185326  1.0000
  C   C18       1.0  0.41276528399766477  0.2097433704183302  0.5220847320260873  1.0000
  C   C19       1.0  0.5686050972128737  0.7137790179250985  0.4534714759497404  1.0000
  C   C20       1.0  0.4133366671937251  0.28515400056782886  0.5244296299936622  1.0000
  C   C21       1.0  0.6037617224781966  0.9392702961881411  0.462509331870386  1.0000
  C   C22       1.0  0.4358046866096712  0.050053092636432  0.5399894796295682  1.0000
  C   C23       1.0  0.7500477955261642  0.45096455520990725  0.49315440635550783  1.0000
  C   C24       1.0  0.2413046982430912  0.5616524053002082  0.5036195390076726  1.0000
  C   C25       1.0  0.6054758715650834  0.014158018667807004  0.4562744081954548  1.0000
  C   C26       1.0  0.4294490433162535  0.9759830160220418  0.5437025006556053  1.0000
  C   C27       1.0  0.5222522421830718  0.07215552099234661  0.4970887270592001  1.0000
  C   C28       1.0  0.5174444462005422  0.9173040439443696  0.5055261914155051  1.0000
  C   C29       1.0  0.8908292784060874  0.4439041154447451  0.4880224152714944  1.0000
  C   C30       1.0  0.10016624011136338  0.5687631251567424  0.5011539962826603  1.0000
  C   C31       1.0  0.92905119645858  0.5068776103880737  0.49228810276282786  1.0000
  C   C32       1.0  0.06265493135314411  0.5061622591044993  0.49167810838881104  1.0000
  C   C33       1.0  0.5196874195482974  0.4287883383417181  0.752320256288584  1.0000
  C   C34       1.0  0.3652973950953678  0.5783908228406389  0.25517652092145227  1.0000
  C   C35       1.0  0.4878465462502958  0.4330759010671699  0.821857251702788  1.0000
  C   C36       1.0  0.34845952114484646  0.5768393101730921  0.18399467909902253  1.0000
  C   C37       1.0  0.40909494695631565  0.5008688743402416  0.8510136904886705  1.0000
  C   C38       1.0  0.38620171362497757  0.5086220219162456  0.1472416650719452  1.0000
  C   C39       1.0  0.3591835476426226  0.5653847876248504  0.8079670456374257  1.0000
  C   C40       1.0  0.4375179618481795  0.43999672933708206  0.18484888932741225  1.0000
  C   C41       1.0  0.3898577993724571  0.561268597676559  0.738808561489783  1.0000
  C   C42       1.0  0.45414305924104775  0.4410511384852355  0.2555144806201284  1.0000
  C   C43       1.0  0.6971590492060855  0.6819918993876044  0.3518545120870441  1.0000
  C   C44       1.0  0.7665715661715068  0.6095744453124895  0.3137526486663161  1.0000
  C   C45       1.0  0.8589083926676435  0.6240928749588691  0.2600170916298126  1.0000
  C   C46       1.0  0.2963829309547208  0.33712072172223634  0.6243309907542167  1.0000
  C   C47       1.0  0.1833306394151676  0.405200575879654  0.6455298075382955  1.0000
  C   C48       1.0  0.16456662729057564  0.4048427293615617  0.7231583153629016  1.0000
  C   C49       1.0  0.636485534829866  0.0649057502184363  0.346874413280652  1.0000
  C   C50       1.0  0.6027317494682264  0.010673107627376105  0.2970660490789356  1.0000
  C   C51       1.0  0.5455826304196023  0.05145910997180181  0.22965265880134914  1.0000
  C   C52       1.0  0.22595224072577466  0.9493024574922727  0.5552572483359483  1.0000
  C   C53       1.0  0.1183197801556801  0.0230943954461651  0.5368109673351711  1.0000
  C   C54       1.0  0.9985546672967586  0.006966010425138291  0.5054703712326614  1.0000
  C   C55       1.0  0.723632690978171  0.3554473419915425  0.70245800121382  1.0000
  C   C56       1.0  0.7714670349136413  0.28489856975257066  0.6587099962186966  1.0000
  C   C57       1.0  0.9062961168713313  0.2765827749812289  0.6289247785217211  1.0000
  C   C58       1.0  0.21830859141908804  0.6684389333776155  0.32859215576317513  1.0000
  C   C59       1.0  0.21317592357981835  0.7407945472454003  0.3662932582589064  1.0000
  C   C60       1.0  0.09001572578448244  0.769570888067186  0.4095992941970152  1.0000
  N   N1        1.0  0.5144321073663176  0.6858212900510736  0.5053164465363905  1.0000
  N   N2        1.0  0.5128022955769963  0.3066267701029091  0.49971406687217257  1.0000
  O   O1        1.0  0.45182109963603495  0.565010726037116  0.3982873366355192  1.0000
  O   O2        1.0  0.516222454934578  0.4319909935912065  0.6019494385486368  1.0000
  O   O3        1.0  0.49517085705254266  0.43666617558127996  0.3942628874440145  1.0000
  O   O4        1.0  0.4791667242783503  0.5599746629902639  0.6059076409739886  1.0000
  O   O5        1.0  0.6716982218934716  0.5182322266288751  0.49958750859769185  1.0000
  O   O6        1.0  0.3214814510008209  0.494328827472799  0.500827389784753  1.0000
  O   O7        1.0  0.7167918102913899  0.3902922333118113  0.4917057274714622  1.0000
  O   O8        1.0  0.2740605669508368  0.6223676200408547  0.5079171666659761  1.0000
  O   O9        1.0  0.6203232760527297  0.6626289483125235  0.4050220002353057  1.0000
  O   O10       1.0  0.3108254033677794  0.3410803769291704  0.5499256349602604  1.0000
  O   O11       1.0  0.6938827249730365  0.0277874599401429  0.410912563211319  1.0000
  O   O12       1.0  0.33896212514603236  0.962806450865891  0.587706864487977  1.0000
  O   O13       1.0  0.5978952236911184  0.358866453493036  0.7305764099026887  1.0000
  O   O14       1.0  0.3292746975946343  0.64985647242694  0.2834703437496556  1.0000
