data_image0
_chemical_formula_structural       H16Pb2C28S4N8
_chemical_formula_sum              "H16 Pb2 C28 S4 N8"
_cell_length_a       6.757091297629184
_cell_length_b       10.778897088527607
_cell_length_c       10.778407392269068
_cell_angle_alpha    77.33900756061455
_cell_angle_beta     74.44936299867643
_cell_angle_gamma    74.42649912343204

_space_group_name_H-M_alt    "P 1"
_space_group_IT_number       1

loop_
  _space_group_symop_operation_xyz
  'x, y, z'

loop_
  _atom_site_type_symbol
  _atom_site_label
  _atom_site_symmetry_multiplicity
  _atom_site_fract_x
  _atom_site_fract_y
  _atom_site_fract_z
  _atom_site_occupancy
  H   H1        1.0  0.5914613260040937  0.04286909086295051  0.5839853278162581  1.0000
  H   H2        1.0  0.9084272322203047  0.4158876633469646  0.9570090884068424  1.0000
  H   H3        1.0  0.408586773930942  0.957132077300173  0.41593198375666435  1.0000
  H   H4        1.0  0.09184381361117028  0.5839701064260439  0.043080631845441565  1.0000
  H   H5        1.0  0.7040085379469404  0.11136158706792543  0.3423506287459191  1.0000
  H   H6        1.0  0.796045138751495  0.6576015402211367  0.8886726404052685  1.0000
  H   H7        1.0  0.29583987485221996  0.8886615542155382  0.6574974041585481  1.0000
  H   H8        1.0  0.2040362499922139  0.34230425311679363  0.11146131972801503  1.0000
  H   H9        1.0  0.5726271966719096  0.3424676960120081  0.24607142190494366  1.0000
  H   H10       1.0  0.9273577419131909  0.7539798701753639  0.6576353707991064  1.0000
  H   H11       1.0  0.427196445913019  0.6576177947329638  0.7539051635710979  1.0000
  H   H12       1.0  0.07263254923611129  0.24593209157578846  0.3424640290229136  1.0000
  H   H13       1.0  0.37032165247394744  0.5695507810606629  0.28227042824570964  1.0000
  H   H14       1.0  0.1295674727805149  0.7178568837820974  0.43063779710816874  1.0000
  H   H15       1.0  0.6294931703375966  0.4305302972888043  0.7177820985197558  1.0000
  H   H16       1.0  0.8702017813420184  0.2821513880294475  0.5695285169924846  1.0000
  Pb  Pb1       1.0  0.2499608654580214  0.1435494808991393  0.8561946260724655  1.0000
  Pb  Pb2       1.0  0.7499106312581246  0.8565099960389945  0.1434512348458555  1.0000
  C   C1        1.0  0.8775238705941107  0.0318086571782317  0.7641340303945727  1.0000
  C   C2        1.0  0.622295494686483  0.23579964361788802  0.9680763794135604  1.0000
  C   C3        1.0  0.12272758994191689  0.9681305498061263  0.2357706049278576  1.0000
  C   C4        1.0  0.3777124322624842  0.7641153546989017  0.03197090911050542  1.0000
  C   C5        1.0  0.5322076962217254  0.1419177295156544  0.5377857536940455  1.0000
  C   C6        1.0  0.9677897795265056  0.46214965773296507  0.8580368550417535  1.0000
  C   C7        1.0  0.4677729733870849  0.8580867824558492  0.4621380391734392  1.0000
  C   C8        1.0  0.03240781020641493  0.537803210335248  0.1420800444532589  1.0000
  C   C9        1.0  0.5966180381197148  0.1812319219616043  0.40290823661555936  1.0000
  C   C10       1.0  0.9033821624091232  0.5970512625559651  0.8187963563687435  1.0000
  C   C11       1.0  0.4033634627246626  0.8188120330460934  0.5970216727807556  1.0000
  C   C12       1.0  0.0966160728964525  0.40286878800564807  0.18130989586259727  1.0000
  C   C13       1.0  0.5235938031182099  0.3091768261684749  0.35040237723297474  1.0000
  C   C14       1.0  0.9763808773009331  0.6496139916619724  0.6908976862993086  1.0000
  C   C15       1.0  0.47627451571364793  0.6908795284758469  0.6495677643432175  1.0000
  C   C16       1.0  0.02366540362529429  0.35032244211704017  0.3092156046209028  1.0000
  C   C17       1.0  0.3873014186258033  0.39726943854653735  0.4323945850466872  1.0000
  C   C18       1.0  0.11259428074892952  0.5676287611159339  0.602786933226547  1.0000
  C   C19       1.0  0.612569226675461  0.6027658434524382  0.5676006449656231  1.0000
  C   C20       1.0  0.8873537357957487  0.43235424435780345  0.39730095324095077  1.0000
  C   C21       1.0  0.3230800970003073  0.34730698763408435  0.5668919341165195  1.0000
  C   C22       1.0  0.17684355247939723  0.4330943070839836  0.6526841422835479  1.0000
  C   C23       1.0  0.6768787227551486  0.652710294609001  0.4330901835759067  1.0000
  C   C24       1.0  0.8231297445737554  0.5668802469751951  0.3473623320349974  1.0000
  C   C25       1.0  0.31590305290728765  0.5325370702564457  0.3852380563064133  1.0000
  C   C26       1.0  0.18405573506591108  0.6148671428865029  0.4675832733827649  1.0000
  C   C27       1.0  0.6840374383371639  0.46752573399172087  0.6148161372141491  1.0000
  C   C28       1.0  0.8158223343457679  0.38515059274899244  0.5325095377184401  1.0000
  S   S1        1.0  0.7015547327927222  0.943175896037225  0.8192427001487136  1.0000
  S   S2        1.0  0.7983765143288012  0.1808685702007864  0.056704874679233824  1.0000
  S   S3        1.0  0.2985799512106198  0.056849900447033995  0.1806802686516634  1.0000
  S   S4        1.0  0.2016633219024797  0.8191639083143016  0.9433520524588065  1.0000
  N   N1        1.0  0.008509353652236502  0.0944780659422761  0.7239631943326191  1.0000
  N   N2        1.0  0.49148434134042407  0.27600616411183415  0.9052199186984782  1.0000
  N   N3        1.0  0.991549564837122  0.9056058482652954  0.27595823125257374  1.0000
  N   N4        1.0  0.5088091515665241  0.7240858504655846  0.0946394967530679  1.0000
  N   N5        1.0  0.3980912367524211  0.2215880134015435  0.6167275571307373  1.0000
  N   N6        1.0  0.10183117909225102  0.38320186302086506  0.7783265404090687  1.0000
  N   N7        1.0  0.6019284404502231  0.7784147773115464  0.3831878945099165  1.0000
  N   N8        1.0  0.8982136568403335  0.6167663658682513  0.22170973267509464  1.0000
