data_image0
_chemical_formula_structural       Mn8H40C32N8O32
_chemical_formula_sum              "Mn8 H40 C32 N8 O32"
_cell_length_a       8.318268971016186
_cell_length_b       9.468980014010409
_cell_length_c       15.090900151040959
_cell_angle_alpha    89.99984179785488
_cell_angle_beta     89.99978386932798
_cell_angle_gamma    90.00006233544464

_space_group_name_H-M_alt    "P 1"
_space_group_IT_number       1

loop_
  _space_group_symop_operation_xyz
  'x, y, z'

loop_
  _atom_site_type_symbol
  _atom_site_label
  _atom_site_symmetry_multiplicity
  _atom_site_fract_x
  _atom_site_fract_y
  _atom_site_fract_z
  _atom_site_occupancy
  Mn  Mn1       1.0  0.10088769329181702  0.44746975347643314  0.3991652250788676  1.0000
  Mn  Mn2       1.0  0.3991163723404371  0.5525234081426762  0.8991634922592484  1.0000
  Mn  Mn3       1.0  0.8991151879316635  0.9474697381543535  0.10083582946832344  1.0000
  Mn  Mn4       1.0  0.6008814165122729  0.052524162186657  0.6008375744824477  1.0000
  Mn  Mn5       1.0  0.8991120406672692  0.552530642025232  0.6008348415837619  1.0000
  Mn  Mn6       1.0  0.6008845637924978  0.4474780434395313  0.10083657440119963  1.0000
  Mn  Mn7       1.0  0.1008845460245169  0.05252960126590269  0.8991648998462127  1.0000
  Mn  Mn8       1.0  0.3991195196171092  0.947475177234182  0.3991631548308306  1.0000
  H   H1        1.0  0.0273521270708059  0.1973806855531279  0.3054613668041171  1.0000
  H   H2        1.0  0.4726489704521201  0.8026181684536695  0.8054577214377334  1.0000
  H   H3        1.0  0.9726492456803514  0.6973813853854767  0.1945387961027621  1.0000
  H   H4        1.0  0.5273515290638642  0.3026173833752637  0.6945409236788864  1.0000
  H   H5        1.0  0.9726488090608283  0.8026186538691675  0.6945386998581641  1.0000
  H   H6        1.0  0.5273519656824206  0.1973822270500349  0.1945416825726413  1.0000
  H   H7        1.0  0.027351690451929804  0.3026190101167714  0.8054612705586097  1.0000
  H   H8        1.0  0.4726494070700299  0.6973819560484811  0.3054584803324048  1.0000
  H   H9        1.0  0.711446425392147  0.31968561657983235  0.31421549132938514  1.0000
  H   H10       1.0  0.7885559383592097  0.6803126260109594  0.8142137678329536  1.0000
  H   H11       1.0  0.28855269280821727  0.8196846377712957  0.18578445950147682  1.0000
  H   H12       1.0  0.21144441135601263  0.18031368632141917  0.6857864146650954  1.0000
  H   H13       1.0  0.28855210639374473  0.6803147789212501  0.6857845753344948  1.0000
  H   H14       1.0  0.21144499777242493  0.31968671341133603  0.1857862988293348  1.0000
  H   H15       1.0  0.7114482433272827  0.18031364557395338  0.8142142818597338  1.0000
  H   H16       1.0  0.7885541204311722  0.8196888213395821  0.3142136519969513  1.0000
  H   H17       1.0  0.8144020114685234  0.24927279424413473  0.22190418535978304  1.0000
  H   H18       1.0  0.6856009811991727  0.7507279663706683  0.7219018921391226  1.0000
  H   H19       1.0  0.18559942483835812  0.7492723661665295  0.2780958875657903  1.0000
  H   H20       1.0  0.31439945476012104  0.2507266081446602  0.7780975056079742  1.0000
  H   H21       1.0  0.18559892466375766  0.750727601258113  0.7780958813015888  1.0000
  H   H22       1.0  0.3143987527605603  0.24927348521095632  0.2780981745225902  1.0000
  H   H23       1.0  0.814401511295536  0.25072697325721544  0.721903516445501  1.0000
  H   H24       1.0  0.6856014813721601  0.7492737873575878  0.22190256105339762  1.0000
  H   H25       1.0  0.9838871739374186  0.10688959049176108  0.43741413900622933  1.0000
  H   H26       1.0  0.5161107439508896  0.8931081104353066  0.9374112902235868  1.0000
  H   H27       1.0  0.016112885807039803  0.6068910022422926  0.062586843466228  1.0000
  H   H28       1.0  0.4838886642179787  0.3931078635126965  0.5625885232838572  1.0000
  H   H29       1.0  0.016112560021021204  0.893109748929952  0.5625859276573097  1.0000
  H   H30       1.0  0.48388778783209585  0.10689122898436663  0.06258943909219991  1.0000
  H   H31       1.0  0.9838868481520466  0.39310939325937255  0.9374132231963943  1.0000
  H   H32       1.0  0.5161110697388481  0.6068925319875191  0.43741220602976244  1.0000
  H   H33       1.0  0.7842027451453362  0.11272125925448512  0.3956905225768353  1.0000
  H   H34       1.0  0.7157954570030614  0.8872797933556241  0.8956885921556437  1.0000
  H   H35       1.0  0.21579611957005806  0.6127216244385992  0.10430978713452532  1.0000
  H   H36       1.0  0.2842027418549407  0.38727705787496086  0.6043105688106822  1.0000
  H   H37       1.0  0.21579578664281482  0.8872791362480613  0.6043088814360545  1.0000
  H   H38       1.0  0.28420307478283047  0.1127206021454583  0.10431147450823633  1.0000
  H   H39       1.0  0.7842036143861223  0.38727771498165703  0.8956909421800108  1.0000
  H   H40       1.0  0.7157981942744416  0.6127222815458707  0.3956901605026034  1.0000
  C   C1        1.0  0.8639159551323916  0.4680312694037524  0.250600707975444  1.0000
  C   C2        1.0  0.6360796289733485  0.531963028551651  0.7506015481168122  1.0000
  C   C3        1.0  0.13608454693072503  0.9680319757282517  0.24939964826842245  1.0000
  C   C4        1.0  0.36391693252432594  0.03196395651605139  0.7493995542782275  1.0000
  C   C5        1.0  0.13608377882604833  0.5319680700179604  0.7493993586880948  1.0000
  C   C6        1.0  0.36392010498509114  0.46803631087006187  0.2493985185467268  1.0000
  C   C7        1.0  0.8639175913779769  0.03196630761758  0.7505990930915376  1.0000
  C   C8        1.0  0.6360815992631716  0.9680353829065352  0.2505998497355719  1.0000
  C   C9        1.0  0.8289697885448605  0.31731167987862824  0.2804360735418854  1.0000
  C   C10       1.0  0.6710304009970613  0.6826867112276103  0.7804345913837738  1.0000
  C   C11       1.0  0.1710305289187347  0.8173104389878103  0.21956454405541592  1.0000
  C   C12       1.0  0.32896874945267746  0.18268773658800797  0.7195655869988331  1.0000
  C   C13       1.0  0.17102874324103112  0.6826887156224613  0.7195639931219944  1.0000
  C   C14       1.0  0.32897053513458024  0.31731262819468486  0.21956547527851467  1.0000
  C   C15       1.0  0.8289704072122532  0.18268784435452545  0.7804355226077889  1.0000
  C   C16       1.0  0.6710309845086685  0.8173126589151137  0.280433817012792  1.0000
  C   C17       1.0  0.887982726326314  0.1783957119603983  0.414651452831727  1.0000
  C   C18       1.0  0.6120153466480076  0.8216020890498896  0.9146472024396604  1.0000
  C   C19       1.0  0.11201621882356251  0.6783960602243795  0.08534940564940291  1.0000
  C   C20       1.0  0.38798277177162543  0.3215995372092735  0.5853514097623818  1.0000
  C   C21       1.0  0.11201460328411632  0.821604683538652  0.5853492764844006  1.0000
  C   C22       1.0  0.38798438731107876  0.17839830645178267  0.08535286422296202  1.0000
  C   C23       1.0  0.8879823129616824  0.3216032791967508  0.9146506610153936  1.0000
  C   C24       1.0  0.6120157600136196  0.6783998022118638  0.4146486569024149  1.0000
  C   C25       1.0  0.8399376606268733  0.2689744366945063  0.49372490504929806  1.0000
  C   C26       1.0  0.6600490540752803  0.7310187923390501  0.9937167354886614  1.0000
  C   C27       1.0  0.16006259764061076  0.768976235128953  0.0062744710614382  1.0000
  C   C28       1.0  0.3399501555708683  0.23101654172435807  0.5062826964366851  1.0000
  C   C29       1.0  0.16006087115611226  0.7310249027251672  0.5062758242664955  1.0000
  C   C30       1.0  0.3399518820540948  0.2689805470817887  0.006283993824617102  1.0000
  C   C31       1.0  0.8399383384939301  0.23102416037475842  0.9937249329489363  1.0000
  C   C32       1.0  0.6600495783888648  0.7689849098572664  0.4937173702250207  1.0000
  N   N1        1.0  0.9522968899810565  0.262163110866112  0.34106259474986445  1.0000
  N   N2        1.0  0.5477028865156229  0.7378371258445496  0.8410612745355837  1.0000
  N   N3        1.0  0.04770456211161191  0.7621630734379253  0.15893811847421097  1.0000
  N   N4        1.0  0.45229392713088157  0.23783536869134983  0.6589394708706706  1.0000
  N   N5        1.0  0.0477040461489722  0.7378372846346792  0.6589381345625045  1.0000
  N   N6        1.0  0.45229564526800914  0.26216326965508324  0.1589394547792935  1.0000
  N   N7        1.0  0.952297576190965  0.23783626598349625  0.84106261083781  1.0000
  N   N8        1.0  0.5477046046543634  0.7621639707297875  0.3410605957941258  1.0000
  O   O1        1.0  0.9545404636767361  0.5454482051991576  0.2984876830196229  1.0000
  O   O2        1.0  0.5454632093992658  0.45454905046180727  0.7984861960621359  1.0000
  O   O3        1.0  0.045459520821317795  0.04544797989639449  0.2015114180422516  1.0000
  O   O4        1.0  0.45453507184441844  0.9545502750456124  0.7015148362070678  1.0000
  O   O5        1.0  0.045459270286862405  0.4545521903054208  0.7015110583410121  1.0000
  O   O6        1.0  0.45453652455691446  0.5454502889584489  0.20151453325240007  1.0000
  O   O7        1.0  0.9545438196576798  0.9545492473686035  0.7984879859683576  1.0000
  O   O8        1.0  0.5454622577711774  0.04545117653630369  0.29848456780615623  1.0000
  O   O9        1.0  0.7995013796341013  0.5128693806898069  0.1797739474205571  1.0000
  O   O10       1.0  0.7005006978959971  0.4871294530009179  0.6797700922120246  1.0000
  O   O11       1.0  0.20050096930371106  0.012868783256088498  0.320226535433662  1.0000
  O   O12       1.0  0.2994976232533659  0.9871300058157857  0.8202302209114907  1.0000
  O   O13       1.0  0.20049955649817972  0.48713101481244087  0.8202261192408076  1.0000
  O   O14       1.0  0.29950023823564464  0.5128698864213773  0.3202299744502568  1.0000
  O   O15       1.0  0.7994999668340483  0.9871295000906241  0.6797715432765514  1.0000
  O   O16       1.0  0.7004997063683547  0.0128703896905549  0.17976719514966535  1.0000
  O   O17       1.0  0.7482512890300088  0.21889284109947474  0.5517712834222338  1.0000
  O   O18       1.0  0.7517468518675372  0.7811128918415876  0.05177344792706151  1.0000
  O   O19       1.0  0.2517479057629616  0.7188917289244257  0.9482288321798438  1.0000
  O   O20       1.0  0.24825221909286913  0.2811096656199155  0.4482252444898834  1.0000
  O   O21       1.0  0.2517484449290849  0.7811075544021903  0.4482287832403956  1.0000
  O   O22       1.0  0.2482528820915492  0.21888750366007764  0.9482266187355608  1.0000
  O   O23       1.0  0.7482518281954784  0.28110761049728694  0.05177123448369512  1.0000
  O   O24       1.0  0.7517499192155128  0.7188917859643239  0.551774159518317  1.0000
  O   O25       1.0  0.9002146874934952  0.3939182205143439  0.4977556397782551  1.0000
  O   O26       1.0  0.5997828193011828  0.6060834394356717  0.9977504633498672  1.0000
  O   O27       1.0  0.09978572379905871  0.8939178662633083  0.002244182329519601  1.0000
  O   O28       1.0  0.4002150351489889  0.10608126478797428  0.5022505105198576  1.0000
  O   O29       1.0  0.09978384428658423  0.6060800628239137  0.5022457521894453  1.0000
  O   O30       1.0  0.40021691465500453  0.3939158999845843  0.0022502659646690005  1.0000
  O   O31       1.0  0.9002140101593812  0.10608147315840445  0.9977558843340194  1.0000
  O   O32       1.0  0.5997834966323909  0.893919130710202  0.4977508814460095  1.0000
