data_image0
_chemical_formula_structural       NiH20C14S2N18
_chemical_formula_sum              "Ni1 H20 C14 S2 N18"
_cell_length_a       6.4540182537017845
_cell_length_b       9.252750910537337
_cell_length_c       10.922770312334873
_cell_angle_alpha    66.78348613231279
_cell_angle_beta     83.12706815756107
_cell_angle_gamma    77.16555481065458

_space_group_name_H-M_alt    "P 1"
_space_group_IT_number       1

loop_
  _space_group_symop_operation_xyz
  'x, y, z'

loop_
  _atom_site_type_symbol
  _atom_site_label
  _atom_site_symmetry_multiplicity
  _atom_site_fract_x
  _atom_site_fract_y
  _atom_site_fract_z
  _atom_site_occupancy
  Ni  Ni1       1.0  2.2351483507957615e-06  0.9999970003405709  2.2886525386166868e-06  1.0000
  H   H1        1.0  0.5021734574364629  0.8753773416756875  0.9333164541197903  1.0000
  H   H2        1.0  0.49783035007386894  0.12461178648106144  0.06668768478255771  1.0000
  H   H3        1.0  0.9580206659968766  0.33741484299347496  0.7270259229416212  1.0000
  H   H4        1.0  0.04197576414454567  0.6625791570742268  0.27297714785964183  1.0000
  H   H5        1.0  0.716974271325  0.9718599889401393  0.590886447749945  1.0000
  H   H6        1.0  0.28301894055633164  0.02814120857996021  0.40911630752592026  1.0000
  H   H7        1.0  0.7914158837228057  0.8544907821792195  0.7585937505309204  1.0000
  H   H8        1.0  0.20858411709178165  0.14550795566511  0.24140657048715747  1.0000
  H   H9        1.0  0.6067586135327757  0.7395860901030602  0.5727149955549322  1.0000
  H   H10       1.0  0.39323938401405917  0.2604210609724761  0.42727810833172003  1.0000
  H   H11       1.0  0.6806739294417594  0.6177497697117859  0.7380577189102909  1.0000
  H   H12       1.0  0.3193223213170171  0.3822514363700833  0.2619365686485935  1.0000
  H   H13       1.0  0.9499110707396596  0.5853948340889803  0.5526263062290937  1.0000
  H   H14       1.0  0.0500872465964122  0.41461109741811003  0.44737084025726387  1.0000
  H   H15       1.0  0.984251386151051  0.7819628254166276  0.5092427227007903  1.0000
  H   H16       1.0  0.01574862489209038  0.21803590704735146  0.4907585148854067  1.0000
  H   H17       1.0  0.11931951888770699  0.7092141809799629  0.7379896702356277  1.0000
  H   H18       1.0  0.8806799037197803  0.2907869637191851  0.26200806499170437  1.0000
  H   H19       1.0  0.27724624141840337  0.6063987764032677  0.6408005771539608  1.0000
  H   H20       1.0  0.7227511862117024  0.39359760520824955  0.3592007151226539  1.0000
  C   C1        1.0  0.4020537809257759  0.9081485600142118  0.8502878141570492  1.0000
  C   C2        1.0  0.597946539678034  0.09184895826167151  0.1497165494607415  1.0000
  C   C3        1.0  0.03505395011601563  0.3437500448447465  0.8071586357465107  1.0000
  C   C4        1.0  0.9649459716633256  0.6562426742717948  0.19285192532289835  1.0000
  C   C5        1.0  0.6883714291136939  0.868583034379789  0.6804493349267702  1.0000
  C   C6        1.0  0.3116233482348818  0.1314181432096504  0.3195533110471017  1.0000
  C   C7        1.0  0.7194720985657952  0.7184944700849557  0.6486348920282907  1.0000
  C   C8        1.0  0.28053039360480614  0.2815066670349252  0.35135712518638246  1.0000
  C   C9        1.0  0.9445950176952351  0.6770997551020203  0.5940392355820094  1.0000
  C   C10       1.0  0.055410398134746686  0.3229025025411901  0.4059586026781616  1.0000
  C   C11       1.0  0.1217271484592146  0.6227207150557775  0.692172139043592  1.0000
  C   C12       1.0  0.8782694889572865  0.3772721246272612  0.3078248921081724  1.0000
  C   C13       1.0  0.6659569028513416  0.18734956224008667  0.7797322237122729  1.0000
  C   C14       1.0  0.33404566091916615  0.8126515372173843  0.22026620947916334  1.0000
  S   S1        1.0  0.5630208990667639  0.31598765279782276  0.6407508993271946  1.0000
  S   S2        1.0  0.43697909151926245  0.6840110904268429  0.35924850512277823  1.0000
  N   N1        1.0  0.19242109103858945  0.957646822634722  0.8470655734922374  1.0000
  N   N2        1.0  0.8075842355275924  0.04234942166105071  0.15294158825116003  1.0000
  N   N3        1.0  0.1349425929307629  0.9890388313678783  0.7219986945255601  1.0000
  N   N4        1.0  0.865056901276624  0.010962275668866504  0.2780054566785353  1.0000
  N   N5        1.0  0.30272352448507417  0.9598246440976157  0.6503170423489023  1.0000
  N   N6        1.0  0.6972728081021771  0.04017651894149311  0.3496845777548643  1.0000
  N   N7        1.0  0.471432397341836  0.9091216330403357  0.7294089284360654  1.0000
  N   N8        1.0  0.5285675830156363  0.09087711556468042  0.2705895594457957  1.0000
  N   N9        1.0  0.10837728669699231  0.47042668853651304  0.8029268013903776  1.0000
  N   N10       1.0  0.8916262076937044  0.5295839392951507  0.1970711522832431  1.0000
  N   N11       1.0  0.1919555196980269  0.43394004458480856  0.9216894143777098  1.0000
  N   N12       1.0  0.8080432252099923  0.5660574990020847  0.07831414197396919  1.0000
  N   N13       1.0  0.16727089906235193  0.2889128912335934  0.9961268977473593  1.0000
  N   N14       1.0  0.8327337210568827  0.7110929390294559  0.0038734778034453868  1.0000
  N   N15       1.0  0.06989825797585072  0.2299070942359407  0.9276697050387172  1.0000
  N   N16       1.0  0.9301097719528428  0.770097498118702  0.07233082823536557  1.0000
  N   N17       1.0  0.74233894541927  0.09262823827602061  0.8814933502190173  1.0000
  N   N18       1.0  0.2576663197755593  0.9073680383018116  0.11850831211572209  1.0000
