data_image0
_chemical_formula_structural       Cu4H20C22S2I4N4
_chemical_formula_sum              "Cu4 H20 C22 S2 I4 N4"
_cell_length_a       7.746410259381359
_cell_length_b       8.150777616702959
_cell_length_c       11.942857104233129
_cell_angle_alpha    92.93200176579037
_cell_angle_beta     93.51765779385465
_cell_angle_gamma    110.03917198539885

_space_group_name_H-M_alt    "P 1"
_space_group_IT_number       1

loop_
  _space_group_symop_operation_xyz
  'x, y, z'

loop_
  _atom_site_type_symbol
  _atom_site_label
  _atom_site_symmetry_multiplicity
  _atom_site_fract_x
  _atom_site_fract_y
  _atom_site_fract_z
  _atom_site_occupancy
  Cu  Cu1       1.0  0.5699630077727419  0.5947452858333335  0.920453266700662  1.0000
  Cu  Cu2       1.0  0.4300307879901125  0.4052582435556999  0.07954230267579733  1.0000
  Cu  Cu3       1.0  0.6072930823093258  0.5553167028902097  0.5892339824366959  1.0000
  Cu  Cu4       1.0  0.39270786412664893  0.44468161417513846  0.4107642230747858  1.0000
  H   H1        1.0  0.9801053676107611  0.7114164440120092  0.9778075772664468  1.0000
  H   H2        1.0  0.019888900381779692  0.2885884418102691  0.02219642841501471  1.0000
  H   H3        1.0  0.2602151825616517  0.9461191533487396  0.9243069797875311  1.0000
  H   H4        1.0  0.7397828314391219  0.05388181508984499  0.07569788999374083  1.0000
  H   H5        1.0  0.22281838699046116  0.15084595261838266  0.7823745122469677  1.0000
  H   H6        1.0  0.777183986527298  0.8491563218666517  0.21762890314826686  1.0000
  H   H7        1.0  0.9018243999123993  0.11292243433368301  0.7018468747240834  1.0000
  H   H8        1.0  0.09817940458442123  0.8870837556160114  0.2981542134181866  1.0000
  H   H9        1.0  0.5787708403390965  0.9334292803943002  0.6788986073349437  1.0000
  H   H10       1.0  0.4212344669129563  0.0665703287324817  0.3210956314115948  1.0000
  H   H11       1.0  0.5067157354465122  0.9215626541582508  0.8197565785857538  1.0000
  H   H12       1.0  0.49328405520699176  0.07843956068459329  0.18023668141079704  1.0000
  H   H13       1.0  0.9747618003493911  0.7941125141685319  0.5331439516066967  1.0000
  H   H14       1.0  0.02524057360139409  0.20588975565483034  0.4668586263289002  1.0000
  H   H15       1.0  0.3035618257049037  0.8329507215802894  0.5813785645332816  1.0000
  H   H16       1.0  0.6964394607753305  0.16704498702635828  0.4186212454217115  1.0000
  H   H17       1.0  0.11741328277820876  0.4070500258430485  0.7978605413999138  1.0000
  H   H18       1.0  0.8825889563889788  0.5929483070583785  0.20214022943200408  1.0000
  H   H19       1.0  0.7943052109074953  0.37701639962038763  0.7328089228931988  1.0000
  H   H20       1.0  0.20569525766939015  0.6229806216134078  0.26719173328854146  1.0000
  C   C1        1.0  0.9686627828208996  0.8065736441240928  0.9194173001197047  1.0000
  C   C2        1.0  0.03133264485137492  0.19342730196566293  0.08058411393996323  1.0000
  C   C3        1.0  0.1241822639152659  0.9360412884613042  0.8879827225987075  1.0000
  C   C4        1.0  0.8758162266454973  0.06396098979384131  0.11202220889120444  1.0000
  C   C5        1.0  0.1024734876995552  0.05057700575367358  0.8101338832358069  1.0000
  C   C6        1.0  0.8975272500114995  0.9494278939856499  0.18987122461293646  1.0000
  C   C7        1.0  0.92499452489659  0.030587474738730705  0.7659788088903386  1.0000
  C   C8        1.0  0.07500832691328439  0.9694160909161766  0.23402131837499954  1.0000
  C   C9        1.0  0.7747854277713061  0.9002797819394176  0.8031939657339254  1.0000
  C   C10       1.0  0.22521517818736203  0.0997211482462959  0.19680347279368968  1.0000
  C   C11       1.0  0.5808753138487787  0.8720352680242769  0.7583714445724755  1.0000
  C   C12       1.0  0.419129174633859  0.12796566305299706  0.24162531532009277  1.0000
  C   C13       1.0  0.01251788762326097  0.7089121241493288  0.5900532912768457  1.0000
  C   C14       1.0  0.9874827161702552  0.29108882934473  0.4099483345489433  1.0000
  C   C15       1.0  0.1960413143405262  0.731373247559354  0.6184251559543557  1.0000
  C   C16       1.0  0.8039586781093959  0.26862245919622313  0.38157460105910007  1.0000
  C   C17       1.0  0.2369647320717262  0.6210614941277369  0.6937028522575589  1.0000
  C   C18       1.0  0.7630396194621554  0.3789355233359544  0.30629628782950397  1.0000
  C   C19       1.0  0.09125286478788298  0.4913359459355249  0.7361461257505155  1.0000
  C   C20       1.0  0.9087510101860088  0.5086597617116055  0.2638529526278931  1.0000
  C   C21       1.0  0.9116112102498093  0.4756141941759608  0.7010599672086786  1.0000
  C   C22       1.0  0.08839136939467099  0.5243815256051007  0.2989415706071058  1.0000
  S   S1        1.0  0.46444921149490165  0.634891143606744  0.7352778158639313  1.0000
  S   S2        1.0  0.5355535059644012  0.3651084804645636  0.2647196668380972  1.0000
  I   I1        1.0  0.3716620758904057  0.695993560093946  0.05756578304331581  1.0000
  I   I2        1.0  0.6283277025648815  0.30400603148159894  0.942428657864504  1.0000
  I   I3        1.0  0.6015728596122186  0.7806188288713898  0.4380945937912629  1.0000
  I   I4        1.0  0.39842726805433404  0.21938081014444324  0.5619061328662414  1.0000
  N   N1        1.0  0.7966554061611005  0.7895815500608024  0.8792329669101095  1.0000
  N   N2        1.0  0.20334083984755572  0.2104180787401333  0.12076676346317335  1.0000
  N   N3        1.0  0.8706766306142907  0.5830763811381132  0.6297652043438904  1.0000
  N   N4        1.0  0.1293256081198706  0.41692195642498586  0.370236403947665  1.0000
