data_image0
_chemical_formula_structural       Zn2H36C36N8O10
_chemical_formula_sum              "Zn2 H36 C36 N8 O10"
_cell_length_a       8.709297713714998
_cell_length_b       8.709322879882757
_cell_length_c       13.172429876642916
_cell_angle_alpha    84.24134172501921
_cell_angle_beta     84.2412084677707
_cell_angle_gamma    67.5367177327648

_space_group_name_H-M_alt    "P 1"
_space_group_IT_number       1

loop_
  _space_group_symop_operation_xyz
  'x, y, z'

loop_
  _atom_site_type_symbol
  _atom_site_label
  _atom_site_symmetry_multiplicity
  _atom_site_fract_x
  _atom_site_fract_y
  _atom_site_fract_z
  _atom_site_occupancy
  Zn  Zn1       1.0  0.4844197072486338  0.6069107449342609  0.6979336601547957  1.0000
  Zn  Zn2       1.0  0.6069116537818714  0.48441863011999686  0.19793394113985135  1.0000
  H   H1        1.0  0.5134017811809386  0.364685950290557  0.5162501919370115  1.0000
  H   H2        1.0  0.3646863512597919  0.51339778962852  0.01625088568224701  1.0000
  H   H3        1.0  0.12769159706351024  0.5794989082923862  0.7415007129109699  1.0000
  H   H4        1.0  0.5795008744554978  0.127689796161448  0.24150075143619185  1.0000
  H   H5        1.0  0.01820463335678822  0.4130919119216472  0.6107471999406188  1.0000
  H   H6        1.0  0.41309239490207256  0.0182043241341603  0.11074651673253304  1.0000
  H   H7        1.0  0.18508844641053915  0.2046500315555591  0.4716089718877968  1.0000
  H   H8        1.0  0.20464963539670583  0.18508726583716845  0.9716087141880438  1.0000
  H   H9        1.0  0.3901553334686766  0.19226290951854716  0.4311736277255704  1.0000
  H   H10       1.0  0.1922615436941157  0.39015578642121074  0.9311734702758444  1.0000
  H   H11       1.0  0.27239890112009857  0.48089173152232684  0.3471895496949032  1.0000
  H   H12       1.0  0.480894216279154  0.2723960335499527  0.8471906033495957  1.0000
  H   H13       1.0  0.21591845952369232  0.3318121603968223  0.29207915940614987  1.0000
  H   H14       1.0  0.33181489337627573  0.21591706518441356  0.7920793991869106  1.0000
  H   H15       1.0  0.030831329824835035  0.6603357892402002  0.25377289894956334  1.0000
  H   H16       1.0  0.6603374074219488  0.030830370060939995  0.7537728418500722  1.0000
  H   H17       1.0  0.0255775468384486  0.7380994506632984  0.3748914595423401  1.0000
  H   H18       1.0  0.738103458016738  0.025573664593693493  0.8748921422788813  1.0000
  H   H19       1.0  0.7437085165744862  0.660913868781968  0.2965642554034389  1.0000
  H   H20       1.0  0.6609147251804475  0.7437078079017778  0.7965639493040657  1.0000
  H   H21       1.0  0.7542852054028801  0.8609404076764873  0.29023728868568816  1.0000
  H   H22       1.0  0.8609430045212392  0.7542824450183048  0.7902376363278523  1.0000
  H   H23       1.0  0.6627589528892912  0.025115777067796295  0.4496811972353712  1.0000
  H   H24       1.0  0.025117398460025694  0.6627577362529138  0.9496812441991056  1.0000
  H   H25       1.0  0.5035375929253051  0.9627249703719938  0.6353134102703138  1.0000
  H   H26       1.0  0.962725025145758  0.5035365336592578  0.13531276389419847  1.0000
  H   H27       1.0  0.708154816924896  0.520119854779139  0.4801660893602816  1.0000
  H   H28       1.0  0.5201183782356932  0.7081550636267053  0.9801644284593823  1.0000
  H   H29       1.0  0.7360166886066678  0.3545725364629319  0.9638792447534928  1.0000
  H   H30       1.0  0.3545690467703082  0.7360175980756763  0.4638785071647791  1.0000
  H   H31       1.0  0.8975857587629933  0.13772791104049983  0.0918141746507786  1.0000
  H   H32       1.0  0.13772664866016274  0.8975867892048938  0.5918143463195024  1.0000
  H   H33       1.0  0.12782909371526338  0.8800487334600856  0.03194061215741331  1.0000
  H   H34       1.0  0.8800484728355403  0.12783097773316138  0.531941166962028  1.0000
  H   H35       1.0  0.050831308634606394  0.07875633934673229  0.7196418356454759  1.0000
  H   H36       1.0  0.07875288013187999  0.05083161547473479  0.21964314095129117  1.0000
  C   C1        1.0  0.3952655173652815  0.40251297890272747  0.5617427116344516  1.0000
  C   C2        1.0  0.4025135271961701  0.39526347194791367  0.06174315952463161  1.0000
  C   C3        1.0  0.18977599081369337  0.5121960217907214  0.6748440841572504  1.0000
  C   C4        1.0  0.5121967489240901  0.18977381523001208  0.17484355915270564  1.0000
  C   C5        1.0  0.134979830141944  0.430760276882026  0.6113888179162148  1.0000
  C   C6        1.0  0.4307612595282322  0.13497816364194648  0.11138825893753085  1.0000
  C   C7        1.0  0.2631032039557438  0.2777941632818396  0.45112190854037953  1.0000
  C   C8        1.0  0.27779347278205074  0.2631013907358124  0.9511224760107456  1.0000
  C   C9        1.0  0.1989847385631692  0.4010563468591641  0.3607715833866792  1.0000
  C   C10       1.0  0.4010570155706785  0.19898379780785547  0.8607726338311824  1.0000
  C   C11       1.0  0.9789415936926033  0.66233270545451  0.3339005621550514  1.0000
  C   C12       1.0  0.6623340509539377  0.9789411283229866  0.8339011217517367  1.0000
  C   C13       1.0  0.7910379606577251  0.739558731005623  0.3335707946502496  1.0000
  C   C14       1.0  0.7395603320529602  0.7910357923022673  0.8335705160471393  1.0000
  C   C15       1.0  0.6465766757885658  0.9127669202908777  0.48403755966675294  1.0000
  C   C16       1.0  0.9127675473701301  0.6465768395779962  0.9840346995258077  1.0000
  C   C17       1.0  0.5720492174119017  0.8801568380993031  0.5760412478428522  1.0000
  C   C18       1.0  0.8801574340551  0.5720461292925022  0.07604080305071652  1.0000
  C   C19       1.0  0.673086275606387  0.648024422789909  0.4986559511160922  1.0000
  C   C20       1.0  0.6480225978575332  0.6730880593590952  0.998656378423249  1.0000
  C   C21       1.0  0.7713030116213134  0.35032775893875356  0.7574929219201749  1.0000
  C   C22       1.0  0.35032565435681573  0.7713025544005773  0.2574929686415146  1.0000
  C   C23       1.0  0.8823700099637436  0.2296559828766291  0.8341216845572961  1.0000
  C   C24       1.0  0.2296538436882045  0.882368186167021  0.3341227400264587  1.0000
  C   C25       1.0  0.8411334439000059  0.24571922899350077  0.9392315575936084  1.0000
  C   C26       1.0  0.245715771739782  0.8411346406123528  0.43923321871902504  1.0000
  C   C27       1.0  0.9302711061025448  0.12192260324496829  0.010360256085071701  1.0000
  C   C28       1.0  0.12192032510667875  0.9302721542137602  0.5103612868621498  1.0000
  C   C29       1.0  0.05892939749183068  0.9785177766190712  0.9769797007457799  1.0000
  C   C30       1.0  0.978514327449311  0.05893106786521678  0.4769787993873821  1.0000
  C   C31       1.0  0.10399403800050065  0.9629601219824337  0.8719431255173692  1.0000
  C   C32       1.0  0.9629571764593476  0.1039957455529077  0.3719414688592624  1.0000
  C   C33       1.0  0.017748790856025196  0.0903670356428989  0.8012244045476679  1.0000
  C   C34       1.0  0.0903658638583877  0.0177490605482049  0.3012247685101529  1.0000
  C   C35       1.0  0.23715172141331944  0.8056331498654784  0.835818419003573  1.0000
  C   C36       1.0  0.8056312983717149  0.23715461014337078  0.3358183205998344  1.0000
  N   N1        1.0  0.3519598145386809  0.49372830825165437  0.643107444941272  1.0000
  N   N2        1.0  0.4937288178123183  0.3519580703784797  0.14310778524178153  1.0000
  N   N3        1.0  0.26670909367609147  0.3620307418767439  0.5408116525956643  1.0000
  N   N4        1.0  0.36203007661676884  0.2667075608112199  0.040812848300184605  1.0000
  N   N5        1.0  0.7078283529278764  0.7650754544754863  0.4358428403690128  1.0000
  N   N6        1.0  0.7650766838770053  0.7078271799155257  0.9358424469488971  1.0000
  N   N7        1.0  0.5903186555993046  0.7144939043748835  0.5843666177026068  1.0000
  N   N8        1.0  0.7144922025296482  0.5903185770909188  0.08436624753347391  1.0000
  O   O1        1.0  0.6441534780532266  0.46981136523844197  0.7974155998684085  1.0000
  O   O2        1.0  0.46980867105497737  0.6441513776059367  0.29741487390882076  1.0000
  O   O3        1.0  0.7988116610745665  0.32869506127809683  0.6638181922096963  1.0000
  O   O4        1.0  0.32869405172074556  0.7988107840040682  0.16381822603398183  1.0000
  O   O5        1.0  0.25971868881395466  0.6702238917310552  0.8877698624506681  1.0000
  O   O6        1.0  0.6702210351250742  0.25972059015366267  0.3877700044121043  1.0000
  O   O7        1.0  0.31827635890683587  0.8193464405095412  0.7499493713553139  1.0000
  O   O8        1.0  0.8193443757619433  0.3182799985115707  0.24995079989340507  1.0000
  O   O9        1.0  0.026476625128147167  0.49833926807397694  0.381777800093083  1.0000
  O   O10       1.0  0.4983397674899521  0.026475927268371904  0.8817786654199224  1.0000
