data_image0
_chemical_formula_structural       Zn2H38C54N2O8
_chemical_formula_sum              "Zn2 H38 C54 N2 O8"
_cell_length_a       13.821146123524425
_cell_length_b       15.314987460673628
_cell_length_c       17.33115077226984
_cell_angle_alpha    89.26962990998214
_cell_angle_beta     82.62355094836555
_cell_angle_gamma    89.47914505752206

_space_group_name_H-M_alt    "P 1"
_space_group_IT_number       1

loop_
  _space_group_symop_operation_xyz
  'x, y, z'

loop_
  _atom_site_type_symbol
  _atom_site_label
  _atom_site_symmetry_multiplicity
  _atom_site_fract_x
  _atom_site_fract_y
  _atom_site_fract_z
  _atom_site_occupancy
  Zn  Zn1       1.0  0.3980805023892557  0.4965582569533352  0.5019851165682072  1.0000
  Zn  Zn2       1.0  0.5987673520764858  0.49642241350635885  0.4960069010088689  1.0000
  H   H1        1.0  0.23581504199124478  0.3922988139884751  0.5779719108384429  1.0000
  H   H2        1.0  0.7607232838425728  0.6000721552538407  0.4236075603523872  1.0000
  H   H3        1.0  0.25840617611186895  0.597570927641442  0.41953089113297193  1.0000
  H   H4        1.0  0.7377858531246773  0.3936403165980309  0.5808369134298559  1.0000
  H   H5        1.0  0.10657673080562087  0.665426235757991  0.3705567119519202  1.0000
  H   H6        1.0  0.8895994434760153  0.3280335148361786  0.6326251692670513  1.0000
  H   H7        1.0  0.9267139851911562  0.6666653148115599  0.37249927251782117  1.0000
  H   H8        1.0  0.06922334635030578  0.3270175113937412  0.6308854649725859  1.0000
  H   H9        1.0  0.6362301262224789  0.6126138118663816  0.2596052771451269  1.0000
  H   H10       1.0  0.3370984241128027  0.4574044697113421  0.758326360652724  1.0000
  H   H11       1.0  0.5846043168231175  0.6161226924675629  0.9915036452753017  1.0000
  H   H12       1.0  0.38701442262657076  0.5221217481264516  0.0108760977763041  1.0000
  H   H13       1.0  0.32673520651674437  0.4729339455759884  0.9024859865158704  1.0000
  H   H14       1.0  0.6329079668421189  0.6535443165565196  0.12024230636336598  1.0000
  H   H15       1.0  0.4267063796181035  0.44775815090292775  0.1029702850714642  1.0000
  H   H16       1.0  0.5608743532800131  0.6579565887373349  0.8689458224110923  1.0000
  H   H17       1.0  0.34385029849597265  0.2184601083759645  0.5277363794137245  1.0000
  H   H18       1.0  0.656223332423707  0.7746802191531968  0.4670275868174231  1.0000
  H   H19       1.0  0.6559078970593929  0.2178768608314954  0.47855843619649363  1.0000
  H   H20       1.0  0.3444686035232322  0.7755175106848567  0.5174414389020543  1.0000
  H   H21       1.0  0.7477157575737792  0.07677134143661847  0.45843344180293855  1.0000
  H   H22       1.0  0.2525975307250334  0.9165054488186185  0.5361836992547993  1.0000
  H   H23       1.0  0.7478241785662049  0.915353808553476  0.45406750284606556  1.0000
  H   H24       1.0  0.25229613730013506  0.07803173421310558  0.5401622517612595  1.0000
  H   H25       1.0  0.7547840451694511  0.7593413849498487  0.6584564380090755  1.0000
  H   H26       1.0  0.6493804063287315  0.8169124028952481  0.6368922898211126  1.0000
  H   H27       1.0  0.7171421333432092  0.8562159266344408  0.709573373237113  1.0000
  H   H28       1.0  0.5645748577660682  0.7810397773522482  0.7713816221057287  1.0000
  H   H29       1.0  0.6701445184733926  0.7255841260181769  0.7934836779704001  1.0000
  H   H30       1.0  0.6551167217906125  0.6184151766829585  0.6874494580166869  1.0000
  H   H31       1.0  0.5575663455818612  0.677340714282792  0.6586503757489199  1.0000
  H   H32       1.0  0.3638092812261887  0.24972808947103425  0.356023326767435  1.0000
  H   H33       1.0  0.3677032471426357  0.2068688967618044  0.2607565600839409  1.0000
  H   H34       1.0  0.4590700888623046  0.1771333738082106  0.31986110703661563  1.0000
  H   H35       1.0  0.5242576105994557  0.28968598657733924  0.21944013042035246  1.0000
  H   H36       1.0  0.5202256677623537  0.33066769622973163  0.31425169334708875  1.0000
  H   H37       1.0  0.3608949687526674  0.405639935011635  0.3004440546196889  1.0000
  H   H38       1.0  0.3652468941988544  0.36437684759560085  0.20484722386631662  1.0000
  C   C1        1.0  0.5006123302165761  0.6688908634824101  0.49032451053775367  1.0000
  C   C2        1.0  0.4988151001262791  0.32477005716096846  0.5058089297649746  1.0000
  C   C3        1.0  0.4117723900858578  0.1813908516996392  0.516706703539235  1.0000
  C   C4        1.0  0.5884594173650582  0.8119764256393935  0.47830855850448023  1.0000
  C   C5        1.0  0.4998632743740641  0.2268049399710961  0.5041506053895121  1.0000
  C   C6        1.0  0.5002920721196205  0.7667622130357612  0.49147151643032344  1.0000
  C   C7        1.0  0.5881876559824236  0.1811137846324371  0.48867382817026334  1.0000
  C   C8        1.0  0.41203403702451874  0.8124590823509336  0.5069426550599445  1.0000
  C   C9        1.0  0.5901115508517519  0.08963364952270327  0.4852888972046047  1.0000
  C   C10       1.0  0.4101472990695426  0.9038936078727177  0.5097099301006055  1.0000
  C   C11       1.0  0.5000966802730601  0.04307509711887998  0.49870902428812525  1.0000
  C   C12       1.0  0.5001671918609815  0.9503806325369978  0.49607753217338774  1.0000
  C   C13       1.0  0.40996933728227697  0.08999839260675199  0.5147474454119206  1.0000
  C   C14       1.0  0.5902859143157001  0.9034223006308224  0.47999517190603314  1.0000
  C   C15       1.0  0.6793521015083427  0.0408134306362697  0.46894298038203186  1.0000
  C   C16       1.0  0.32083811112138955  0.9526285399782424  0.5257564759225204  1.0000
  C   C17       1.0  0.6794219641420295  0.9517226826613407  0.4664818970761715  1.0000
  C   C18       1.0  0.3207492331776435  0.0417038588192895  0.5280330620364782  1.0000
  C   C19       1.0  0.19586922864927905  0.4372146534649416  0.5440125238391644  1.0000
  C   C20       1.0  0.800563599254481  0.5551991590523427  0.4576883793899215  1.0000
  C   C21       1.0  0.20869143284409114  0.5531811834331888  0.4544506422648313  1.0000
  C   C22       1.0  0.7874299895816533  0.43879937695292875  0.5467989847569543  1.0000
  C   C23       1.0  0.46898292556967647  0.5198195435802262  0.6493661021373144  1.0000
  C   C24       1.0  0.5249186355336803  0.4985321056347232  0.3464986693521795  1.0000
  C   C25       1.0  0.10753758780297318  0.5571478272608346  0.4531358609341254  1.0000
  C   C26       1.0  0.8884524032338419  0.43570651544856537  0.5493224361140392  1.0000
  C   C27       1.0  0.0493409033636354  0.4962220876614865  0.5008726505569359  1.0000
  C   C28       1.0  0.946773773810655  0.4968492722557939  0.5018880281480449  1.0000
  C   C29       1.0  0.09407603499558088  0.43456941821631284  0.5474743424777984  1.0000
  C   C30       1.0  0.9021922727256849  0.5584746753051134  0.4551556911126086  1.0000
  C   C31       1.0  0.06111319115462518  0.619015716093017  0.4067866093664351  1.0000
  C   C32       1.0  0.9349582241161298  0.3743159814564905  0.5961890296619786  1.0000
  C   C33       1.0  0.9620306505639531  0.619720224937815  0.4078609723544134  1.0000
  C   C34       1.0  0.03405943940521888  0.3737506452831809  0.5952272726217134  1.0000
  C   C35       1.0  0.45916286484105473  0.5430662075094616  0.7335902921544317  1.0000
  C   C36       1.0  0.5288224936483913  0.5120165180922386  0.2604081327528008  1.0000
  C   C37       1.0  0.5213062696719389  0.6035975422274047  0.7638532417294928  1.0000
  C   C38       1.0  0.46924233797685116  0.4639579915787593  0.2159288445063084  1.0000
  C   C39       1.0  0.5136386503392457  0.6119425522598759  0.844549183257108  1.0000
  C   C40       1.0  0.46992818735648  0.4869041939235784  0.13785761861156234  1.0000
  C   C41       1.0  0.44782138581022934  0.5622176138261351  0.8958682334559711  1.0000
  C   C42       1.0  0.5254179811816114  0.5565367388716422  0.10200205082406202  1.0000
  C   C43       1.0  0.3808750315645994  0.5093458143232751  0.8637337755004497  1.0000
  C   C44       1.0  0.5872881122052006  0.6005385868821875  0.14669866830340794  1.0000
  C   C45       1.0  0.38684933747015987  0.5001209567970973  0.7837237326539823  1.0000
  C   C46       1.0  0.5890643170991724  0.5779361005226991  0.2246132459098575  1.0000
  C   C47       1.0  0.4495055655861719  0.5564232532792701  0.9795179843184699  1.0000
  C   C48       1.0  0.5220132760439711  0.5798923970844782  0.020460509039416798  1.0000
  C   C49       1.0  0.5919968520747857  0.6590930735712418  0.7104677177369256  1.0000
  C   C50       1.0  0.6277341603911922  0.7420971076188818  0.745566233363192  1.0000
  C   C51       1.0  0.6906886613120375  0.7968325044697054  0.6844167539340519  1.0000
  C   C52       1.0  0.41055902302149144  0.3862419015190852  0.24866725440062262  1.0000
  C   C53       1.0  0.4739470236447119  0.30919195568944247  0.2710050394427627  1.0000
  C   C54       1.0  0.41285092157997366  0.23136655279569138  0.30358731217774  1.0000
  N   N1        1.0  0.2501151937058594  0.49497368700950517  0.4988192685627413  1.0000
  N   N2        1.0  0.7462273658400774  0.496715352898171  0.501926149577166  1.0000
  O   O1        1.0  0.41806512116413325  0.6311912353003349  0.49769300973054  1.0000
  O   O2        1.0  0.5805984816869552  0.3631009969978791  0.5046711813305225  1.0000
  O   O3        1.0  0.5836136478110203  0.6309403961115548  0.4829958291004034  1.0000
  O   O4        1.0  0.41605462856739445  0.3624351395913409  0.5075535632724382  1.0000
  O   O5        1.0  0.39084314835901773  0.503718657382066  0.6203718288393534  1.0000
  O   O6        1.0  0.6046222864713895  0.4941165787344204  0.3758489528502055  1.0000
  O   O7        1.0  0.5551151762544109  0.5152849273416821  0.6129148228326005  1.0000
  O   O8        1.0  0.43954269720893535  0.4953069547249171  0.3845518010537745  1.0000
