data_image0
_chemical_formula_structural       Cd2H30C46N4O12
_chemical_formula_sum              "Cd2 H30 C46 N4 O12"
_cell_length_a       6.802961458588196
_cell_length_b       12.470843144414268
_cell_length_c       14.508363251647793
_cell_angle_alpha    103.39134338441059
_cell_angle_beta     100.50095795298787
_cell_angle_gamma    97.73314668015738

_space_group_name_H-M_alt    "P 1"
_space_group_IT_number       1

loop_
  _space_group_symop_operation_xyz
  'x, y, z'

loop_
  _atom_site_type_symbol
  _atom_site_label
  _atom_site_symmetry_multiplicity
  _atom_site_fract_x
  _atom_site_fract_y
  _atom_site_fract_z
  _atom_site_occupancy
  Cd  Cd1       1.0  0.19380492006363428  0.16467627394834491  0.4905225225181624  1.0000
  Cd  Cd2       1.0  0.8061928751956414  0.8353273377406084  0.5094773930819514  1.0000
  H   H1        1.0  0.7909897411520248  0.09971890176724685  0.5186378817722854  1.0000
  H   H2        1.0  0.2090149210547807  0.900287220251123  0.481362505102922  1.0000
  H   H3        1.0  0.7840288063779324  0.04426783124649351  0.4111704289034819  1.0000
  H   H4        1.0  0.2159740892178377  0.95573748052837  0.5888289338262567  1.0000
  H   H5        1.0  0.08582872312124579  0.2269738784605053  0.7128622755385693  1.0000
  H   H6        1.0  0.9141695662313013  0.7730181047300209  0.28713100003711395  1.0000
  H   H7        1.0  0.08246680044537416  0.394793420055372  0.8457791698272246  1.0000
  H   H8        1.0  0.9175331552191891  0.6051950237315539  0.1542189948192174  1.0000
  H   H9        1.0  0.15911030807677665  0.5866966933730213  0.8192154192456585  1.0000
  H   H10       1.0  0.8408830059991671  0.413294234151394  0.18078476702054758  1.0000
  H   H11       1.0  0.2288170963323566  0.7036860197438486  0.70475278690067  1.0000
  H   H12       1.0  0.7711743725929023  0.29631247348831385  0.2952488922946728  1.0000
  H   H13       1.0  0.28093721656981796  0.7144308434493428  0.5428737880534485  1.0000
  H   H14       1.0  0.719047422626268  0.28556518256579727  0.45712605361009656  1.0000
  H   H15       1.0  0.3218057121490149  0.6190415400983015  0.3789061616802982  1.0000
  H   H16       1.0  0.6781851789443747  0.38095951814884194  0.6210946489013978  1.0000
  H   H17       1.0  0.31828808791001967  0.4382078504980955  0.2559452135980109  1.0000
  H   H18       1.0  0.6817032259901126  0.5617941970679966  0.7440510247503128  1.0000
  H   H19       1.0  0.2608900677235866  0.2562693959379985  0.3041033969397944  1.0000
  H   H20       1.0  0.7391027574634348  0.7437326665584151  0.6958922896322619  1.0000
  H   H21       1.0  0.45905130431893326  0.6830040336919865  0.1850390150859624  1.0000
  H   H22       1.0  0.5409507084450027  0.3169992563325935  0.8149708583672323  1.0000
  H   H23       1.0  0.9815643498588287  0.7826174078301947  0.0025656000273386456  1.0000
  H   H24       1.0  0.018441242652819812  0.21737859009132174  0.9974340311802907  1.0000
  H   H25       1.0  0.9822679616885209  0.9452785294865791  0.14267471235339715  1.0000
  H   H26       1.0  0.0177320343445828  0.05472266145489612  0.857321421314012  1.0000
  H   H27       1.0  0.1692750988190639  0.43388929206295773  0.03786595963082112  1.0000
  H   H28       1.0  0.830726407399524  0.5661039451592274  0.9621409774176827  1.0000
  H   H29       1.0  0.5706908862330308  0.6921849393125612  0.976784756007021  1.0000
  H   H30       1.0  0.4293148426945663  0.307807482718829  0.023220999175983116  1.0000
  C   C1        1.0  0.11650868764737511  0.3113126825147462  0.7033068605713026  1.0000
  C   C2        1.0  0.8834913683162001  0.6886801109192863  0.2966874391498494  1.0000
  C   C3        1.0  0.11667054007211423  0.40618720734619984  0.7779951231152396  1.0000
  C   C4        1.0  0.8833300565049739  0.5938029779604579  0.22200141147624922  1.0000
  C   C5        1.0  0.1592477288431483  0.5114534259958747  0.7630401256307452  1.0000
  C   C6        1.0  0.8407513078726367  0.48854092157798595  0.23695856083848102  1.0000
  C   C7        1.0  0.19843253473258932  0.5220791374393559  0.6729304070764996  1.0000
  C   C8        1.0  0.8015661050387591  0.4779184842378755  0.327071719214203  1.0000
  C   C9        1.0  0.23177323963344784  0.6276618005100831  0.6500782959234358  1.0000
  C   C10       1.0  0.768226052406476  0.3723333423769547  0.3499219664675338  1.0000
  C   C11       1.0  0.2614115713213252  0.6337898631072962  0.5606377178299766  1.0000
  C   C12       1.0  0.7385856315998395  0.36620782986440054  0.4393622277236063  1.0000
  C   C13       1.0  0.2634113090779878  0.5344105203240874  0.48810411081613136  1.0000
  C   C14       1.0  0.7365915792646618  0.46559054958466123  0.511895701197176  1.0000
  C   C15       1.0  0.2955588443776946  0.53766386549934  0.39515712015845145  1.0000
  C   C16       1.0  0.7044377135280085  0.4623405481286654  0.6048442400113103  1.0000
  C   C17       1.0  0.294276249853425  0.4386149977087684  0.32823156686200866  1.0000
  C   C18       1.0  0.7057188153745598  0.561389422545112  0.6717696619556791  1.0000
  C   C19       1.0  0.2638673306054216  0.33690900310836724  0.3543048779186719  1.0000
  C   C20       1.0  0.7361278948520464  0.6630913692851623  0.6456906520274543  1.0000
  C   C21       1.0  0.23281805068687328  0.42794572769542344  0.5082508094487537  1.0000
  C   C22       1.0  0.7671866414851678  0.5720561955692176  0.49174866045332527  1.0000
  C   C23       1.0  0.19561926033266272  0.42138565432568253  0.6018857934694283  1.0000
  C   C24       1.0  0.8043821280791477  0.5786111803428255  0.39811433647535216  1.0000
  C   C25       1.0  0.20549726018850825  0.0018780144747694025  0.3218602615796939  1.0000
  C   C26       1.0  0.7945014499166163  0.9981281556032829  0.6781389167588473  1.0000
  C   C27       1.0  0.21767943039248658  0.9048711051398829  0.24134300925641136  1.0000
  C   C28       1.0  0.7823252504235043  0.09513503843468382  0.7586566944904477  1.0000
  C   C29       1.0  0.35348324897866956  0.8310028042376064  0.25355381795451143  1.0000
  C   C30       1.0  0.6465199464127164  0.16900758782894343  0.7464453051567119  1.0000
  C   C31       1.0  0.3540364936692982  0.7403846573185862  0.17559202052803613  1.0000
  C   C32       1.0  0.6459659419013801  0.25961962202494254  0.8244132806917791  1.0000
  C   C33       1.0  0.2194275765793138  0.7236659945170633  0.08651276401298708  1.0000
  C   C34       1.0  0.7805787705486935  0.276336609653896  0.9134918288046309  1.0000
  C   C35       1.0  0.08396460019513799  0.7967116697852958  0.07313094555252768  1.0000
  C   C36       1.0  0.9160445514008726  0.20329021204553044  0.9268696015341362  1.0000
  C   C37       1.0  0.0853880030695181  0.8866330194969622  0.15048302190145793  1.0000
  C   C38       1.0  0.9146208632371183  0.11337226577441585  0.8495168662365985  1.0000
  C   C39       1.0  0.5060839791002039  0.8430961173201797  0.34691509831271367  1.0000
  C   C40       1.0  0.49392760588167306  0.156912579696197  0.653083710452556  1.0000
  C   C41       1.0  0.35785403264306126  0.5689454009333659  0.008401164937737272  1.0000
  C   C42       1.0  0.6421430586230343  0.4310521627011426  0.9916028793859228  1.0000
  C   C43       1.0  0.31544534744988073  0.46193786837482526  0.022234751542775693  1.0000
  C   C44       1.0  0.6845466434797203  0.5380579951737731  0.9777698456512455  1.0000
  C   C45       1.0  0.5414232032787679  0.6079527020001836  0.986693256018647  1.0000
  C   C46       1.0  0.4585846964574216  0.3920414980374575  0.01330963420478782  1.0000
  N   N1        1.0  0.2351853923812897  0.33202130952095404  0.44166275007199124  1.0000
  N   N2        1.0  0.7648133962634773  0.6679764846058448  0.5583339111919443  1.0000
  N   N3        1.0  0.15574774309389738  0.31900591022413494  0.6184439153338701  1.0000
  N   N4        1.0  0.8442519345344122  0.6809901788694577  0.3815531410804028  1.0000
  O   O1        1.0  0.8404411185785957  0.11564061563408502  0.4620919449113785  1.0000
  O   O2        1.0  0.15955757291735037  0.8843655328877773  0.5379079165555112  1.0000
  O   O3        1.0  0.27121942972735985  0.9976788142958956  0.4099412658940978  1.0000
  O   O4        1.0  0.7287808474921886  0.002327435381076307  0.5900553112831446  1.0000
  O   O5        1.0  0.1302488492891669  0.0829871901068628  0.30169176459124  1.0000
  O   O6        1.0  0.8697408416690064  0.9170147131917263  0.6983091243034139  1.0000
  O   O7        1.0  0.6819439425662425  0.9014910737638575  0.35843368410922954  1.0000
  O   O8        1.0  0.3180739842086382  0.09851005922334374  0.6415633426547985  1.0000
  O   O9        1.0  0.457865137320752  0.7860533380285375  0.4038813690732397  1.0000
  O   O10       1.0  0.5421431025796011  0.21395868945533897  0.596119250552654  1.0000
  O   O11       1.0  0.20513587074698592  0.6331739840535705  0.007559154561363432  1.0000
  O   O12       1.0  0.7948665503174509  0.3668218115577205  0.9924470452255677  1.0000
