data_image0
_chemical_formula_structural       Na4H48C24S4N4O12
_chemical_formula_sum              "Na4 H48 C24 S4 N4 O12"
_cell_length_a       6.276129748753261
_cell_length_b       8.442351939078472
_cell_length_c       15.732304031876833
_cell_angle_alpha    93.72041607322342
_cell_angle_beta     101.51367183207498
_cell_angle_gamma    90.00736374363399

_space_group_name_H-M_alt    "P 1"
_space_group_IT_number       1

loop_
  _space_group_symop_operation_xyz
  'x, y, z'

loop_
  _atom_site_type_symbol
  _atom_site_label
  _atom_site_symmetry_multiplicity
  _atom_site_fract_x
  _atom_site_fract_y
  _atom_site_fract_z
  _atom_site_occupancy
  Na  Na1       1.0  0.8603028628426798  0.1873549024169421  0.46232810160821447  1.0000
  Na  Na2       1.0  0.3978512446592362  0.3126596895270736  0.537598958506308  1.0000
  Na  Na3       1.0  0.13969604929779678  0.8126494445963742  0.5376719809848537  1.0000
  Na  Na4       1.0  0.6021475866176687  0.687339872967236  0.4624041136731022  1.0000
  H   H1        1.0  0.11443037262186809  0.879441075003129  0.22689463915077104  1.0000
  H   H2        1.0  0.8875496978783273  0.6203525290915055  0.7730776701496749  1.0000
  H   H3        1.0  0.8855618780558956  0.12055494619647081  0.7731065073928247  1.0000
  H   H4        1.0  0.11244918785253329  0.3796506380654492  0.22692172976392297  1.0000
  H   H5        1.0  0.856940583792358  0.9033614704522179  0.32881735659857  1.0000
  H   H6        1.0  0.5282599513448644  0.5959637232651858  0.6711472107546539  1.0000
  H   H7        1.0  0.14305661870101724  0.0966381006514609  0.6711849516947908  1.0000
  H   H8        1.0  0.47173551672648967  0.404031137022443  0.32885160293476184  1.0000
  H   H9        1.0  0.7388651603283732  0.0718922295252824  0.27701591902899736  1.0000
  H   H10       1.0  0.4623455022602769  0.427227721794914  0.722895382484978  1.0000
  H   H11       1.0  0.26113210048978885  0.9281096868258558  0.7229890258020288  1.0000
  H   H12       1.0  0.5376548994753776  0.5727694868425744  0.2771058170428162  1.0000
  H   H13       1.0  0.5143923307152533  0.8331416265223339  0.22305279910404605  1.0000
  H   H14       1.0  0.2910667979110854  0.6657146216079539  0.7767943318091354  1.0000
  H   H15       1.0  0.48560810457026077  0.1668579924562081  0.7769453166571765  1.0000
  H   H16       1.0  0.7089270914432149  0.3342826142343612  0.22320444776381979  1.0000
  H   H17       1.0  0.7419720673670864  0.7318134861648175  0.19747168129224946  1.0000
  H   H18       1.0  0.5440569856609442  0.7673580210096701  0.8025067332737092  1.0000
  H   H19       1.0  0.2580398112113116  0.2681884611913858  0.8025306046728318  1.0000
  H   H20       1.0  0.455938597941909  0.2326427819554482  0.19749168027691869  1.0000
  H   H21       1.0  0.519157696854343  0.8266910279459269  0.06251183628376818  1.0000
  H   H22       1.0  0.45633135984376577  0.6723455863992172  0.9373829287409874  1.0000
  H   H23       1.0  0.48084751200302367  0.17330261529443192  0.9374896068637566  1.0000
  H   H24       1.0  0.5436641555413004  0.3276516480663574  0.06261597912866528  1.0000
  H   H25       1.0  0.5240694961589724  0.021960638228406996  0.1104529951172211  1.0000
  H   H26       1.0  0.4136992580542226  0.4769932408768867  0.8895086003828963  1.0000
  H   H27       1.0  0.47593428306271324  0.978043733585167  0.8895449300084762  1.0000
  H   H28       1.0  0.5863010297846286  0.5229992700330541  0.11048796165893288  1.0000
  H   H29       1.0  0.792430552063344  0.003542015917823  0.015520244099811027  1.0000
  H   H30       1.0  0.7770743792052527  0.49601977795634167  0.9844780489792838  1.0000
  H   H31       1.0  0.20757306706590126  0.9964540318077011  0.9844786225738102  1.0000
  H   H32       1.0  0.22291959376538986  0.5039822351723444  0.015518376596688192  1.0000
  H   H33       1.0  0.9160903267166418  0.8389213118061889  0.0680423759541071  1.0000
  H   H34       1.0  0.8475593695423739  0.6608215879620685  0.9318798774673877  1.0000
  H   H35       1.0  0.08391662645576049  0.16107826550229015  0.9319594309406722  1.0000
  H   H36       1.0  0.15243783295100843  0.3391779831416032  0.06812243082597999  1.0000
  H   H37       1.0  0.9019242584288845  0.1769506237750704  0.15052766578300947  1.0000
  H   H38       1.0  0.7520646136412236  0.3226058356462218  0.8494844860293042  1.0000
  H   H39       1.0  0.09806644432891429  0.823050190552884  0.8494697272881948  1.0000
  H   H40       1.0  0.24794231036878495  0.6773925690385312  0.1505160025966461  1.0000
  H   H41       1.0  0.1339548743669212  0.0823341473060424  0.12398166962807267  1.0000
  H   H42       1.0  0.010353310613453496  0.4176416805816174  0.8761160765942788  1.0000
  H   H43       1.0  0.8660456093503655  0.9176665936678887  0.8760222135274985  1.0000
  H   H44       1.0  0.98965217386786  0.5823662294242808  0.12388402486653396  1.0000
  H   H45       1.0  0.11816937382124587  0.20552530282716217  0.3081007141473008  1.0000
  H   H46       1.0  0.8101591569855982  0.2942821834018119  0.6918442793510806  1.0000
  H   H47       1.0  0.8818327513253548  0.7944766455568554  0.6919014376269953  1.0000
  H   H48       1.0  0.189844591438991  0.705719770838094  0.3081573651305475  1.0000
  C   C1        1.0  0.029452330379307095  0.9916997172979906  0.23446989801713156  1.0000
  C   C2        1.0  0.7952285605841993  0.507966676114357  0.7655517122291683  1.0000
  C   C3        1.0  0.9705432614818574  0.008301063969263105  0.7655304223015732  1.0000
  C   C4        1.0  0.20477350899037816  0.49203291978958663  0.23444843859682854  1.0000
  C   C5        1.0  0.8196268510631767  0.9584783983637309  0.266299940639712  1.0000
  C   C6        1.0  0.5534955381457819  0.5408047287414204  0.7336542199416269  1.0000
  C   C7        1.0  0.18037044055207466  0.04152593556108291  0.7337012848353834  1.0000
  C   C8        1.0  0.4465031792343267  0.4591901360253487  0.266344214751811  1.0000
  C   C9        1.0  0.6663430928593357  0.8493362522975118  0.19992453930733228  1.0000
  C   C10       1.0  0.46617757308026603  0.649758341361725  0.7999648139462605  1.0000
  C   C11       1.0  0.3336590740954292  0.15066808472969484  0.8000764354684761  1.0000
  C   C12       1.0  0.5338146847377345  0.35023891032256677  0.20003256615128603  1.0000
  C   C13       1.0  0.6199335711237736  0.9126870237703881  0.10928795768428046  1.0000
  C   C14       1.0  0.5104239421875647  0.5864202688240567  0.8906237342422115  1.0000
  C   C15       1.0  0.38006527004614543  0.08731376197600577  0.8907119836384465  1.0000
  C   C16       1.0  0.4895683755899255  0.4135805730576366  0.10937124476823358  1.0000
  C   C17       1.0  0.8297972532531117  0.9499256164082296  0.07855211857987139  1.0000
  C   C18       1.0  0.7511387116876875  0.549600620574523  0.9214285038883074  1.0000
  C   C19       1.0  0.17020806563022722  0.05007398397484761  0.9214476532501477  1.0000
  C   C20       1.0  0.24886009756706776  0.45039899978075937  0.07856948357623136  1.0000
  C   C21       1.0  0.9802166485854613  0.0607412031157182  0.1450748378955069  1.0000
  C   C22       1.0  0.8354688446256305  0.4389419268070753  0.8549696677512484  1.0000
  C   C23       1.0  0.0197822189940808  0.939260762487024  0.8549257861066974  1.0000
  C   C24       1.0  0.16453653258248832  0.5610600188234685  0.14503274061642907  1.0000
  S   S1        1.0  0.31747182991293943  0.03733684671217931  0.38775455115438007  1.0000
  S   S2        1.0  0.9296007401142248  0.4625582945235179  0.6121831548135929  1.0000
  S   S3        1.0  0.682531939415739  0.9626663018493177  0.6122465048280004  1.0000
  S   S4        1.0  0.07039963245902918  0.537437741490244  0.3878167264453721  1.0000
  N   N1        1.0  0.18613375103662824  0.09833848528213451  0.2939193132031619  1.0000
  N   N2        1.0  0.8923999463450158  0.4014682363577649  0.7060379263545256  1.0000
  N   N3        1.0  0.8138715832452517  0.9016623238877769  0.7060785989488847  1.0000
  N   N4        1.0  0.10760381747812175  0.5985349266689753  0.2939618584491369  1.0000
  O   O1        1.0  0.4911086896111598  0.15733170547604658  0.416840860933469  1.0000
  O   O2        1.0  0.0745756335755203  0.34290068356523307  0.5831662410257933  1.0000
  O   O3        1.0  0.508885223399993  0.8426667174552378  0.5831579657296045  1.0000
  O   O4        1.0  0.9254165752940721  0.6570929489911778  0.4168360825162906  1.0000
  O   O5        1.0  0.1711330054148448  0.0384721177319349  0.45118445605940133  1.0000
  O   O6        1.0  0.7198626800397603  0.460911548654849  0.5486827648673296  1.0000
  O   O7        1.0  0.828864243274168  0.9615310797322464  0.5488122732000631  1.0000
  O   O8        1.0  0.28013782182884467  0.5390903938732947  0.45131989419964197  1.0000
  O   O9        1.0  0.3941096484362275  0.8772517228440933  0.3684673770021263  1.0000
  O   O10       1.0  0.024783806642012997  0.6228907361543533  0.63141394385039  1.0000
  O   O11       1.0  0.6058922555403753  0.12273956343703667  0.6315324441930769  1.0000
  O   O12       1.0  0.9752263402671273  0.3771064931531782  0.3685854831001122  1.0000
