data_image0
_chemical_formula_structural       Zn2H38C48N12O10
_chemical_formula_sum              "Zn2 H38 C48 N12 O10"
_cell_length_a       9.594795729124916
_cell_length_b       12.099163074987269
_cell_length_c       12.148
_cell_angle_alpha    64.26594533389267
_cell_angle_beta     75.91876759855822
_cell_angle_gamma    77.608541914745

_space_group_name_H-M_alt    "P 1"
_space_group_IT_number       1

loop_
  _space_group_symop_operation_xyz
  'x, y, z'

loop_
  _atom_site_type_symbol
  _atom_site_label
  _atom_site_symmetry_multiplicity
  _atom_site_fract_x
  _atom_site_fract_y
  _atom_site_fract_z
  _atom_site_occupancy
  Zn  Zn1       1.0  0.4459520901091806  0.3070965084237329  0.8026783634169874  1.0000
  Zn  Zn2       1.0  0.5540483301706942  0.692903275007005  0.1973217317942967  1.0000
  H   H1        1.0  0.009921749836770704  0.3006299462945705  0.774204159700993  1.0000
  H   H2        1.0  0.9900785354032848  0.6993707618554765  0.22579556156588151  1.0000
  H   H3        1.0  0.7651055450492238  0.0157488945547968  0.8294132117212314  1.0000
  H   H4        1.0  0.23489594974973474  0.9842508888759411  0.17058585382719116  1.0000
  H   H5        1.0  0.20844459905245566  0.9238334280907666  0.8922811337401981  1.0000
  H   H6        1.0  0.7915558212274192  0.0761663553399714  0.10771896147108602  1.0000
  H   H7        1.0  0.1236501822448375  0.7445608697762296  0.004627356448402492  1.0000
  H   H8        1.0  0.8763491635159609  0.2554389136545083  0.9953729452449736  1.0000
  H   H9        1.0  0.1788537245790067  0.759136295527668  0.8480833247356826  1.0000
  H   H10       1.0  0.8211466957008752  0.24086348790307002  0.15191594729483174  1.0000
  H   H11       1.0  0.9080010556645137  0.6795873169546881  0.8225827574140182  1.0000
  H   H12       1.0  0.0919981550564657  0.3204133911953591  0.17741717033494098  1.0000
  H   H13       1.0  0.15857214399428438  0.5295950708463054  0.11719304503598234  1.0000
  H   H14       1.0  0.8414270667266949  0.4704056373037417  0.8828068827129769  1.0000
  H   H15       1.0  0.487567642473529  0.080126928141226  0.07755349547799986  1.0000
  H   H16       1.0  0.5124326427665267  0.9198737800088211  0.9224462257888674  1.0000
  H   H17       1.0  0.4179932083084523  0.46698602529836114  0.9642148080354858  1.0000
  H   H18       1.0  0.5820050629332627  0.5330137581323768  0.03578570013998218  1.0000
  H   H19       1.0  0.5666040433310187  0.1616603543517243  0.324335797652985  1.0000
  H   H20       1.0  0.4333962419090442  0.8383403537983227  0.6756639236138896  1.0000
  H   H21       1.0  0.5898899931031636  0.0353298259268726  0.28001205871123597  1.0000
  H   H22       1.0  0.4101093526576279  0.9646699575038653  0.71998824298214  1.0000
  H   H23       1.0  0.41127165290980383  0.8972431243550432  0.352997483899287  1.0000
  H   H24       1.0  0.5887287673700711  0.1027566590756948  0.6470026113119971  1.0000
  H   H25       1.0  0.053606626766786326  0.9254285688991217  0.6368071467531776  1.0000
  H   H26       1.0  0.9463925839541929  0.0745721392509253  0.36319195781501173  1.0000
  H   H27       1.0  0.1097758700036167  0.132380042145563  0.5953355617704048  1.0000
  H   H28       1.0  0.8902234757571819  0.8676197412851749  0.4046639167422015  1.0000
  H   H29       1.0  0.3226561665774241  0.21898555376697  0.43761677472227933  1.0000
  H   H30       1.0  0.677342104664298  0.7810142296637679  0.5623837334531885  1.0000
  H   H31       1.0  0.0935089658409467  0.7512632353292332  0.5822097689446011  1.0000
  H   H32       1.0  0.9064914544389282  0.24873654810150472  0.4177895030859132  1.0000
  H   H33       1.0  0.2017212600081137  0.764760438366153  0.43542547803946247  1.0000
  H   H34       1.0  0.7982800997510183  0.235240269783894  0.5645740367453199  1.0000
  H   H35       1.0  0.17862903518705753  0.5266156252321039  0.7187613383070542  1.0000
  H   H36       1.0  0.8213712500529979  0.4733850829179431  0.28123920614059006  1.0000
  H   H37       1.0  0.6267200473233459  0.5450739473628232  0.6255396503752593  1.0000
  H   H38       1.0  0.37328037295652905  0.4549258360679147  0.3744596216552623  1.0000
  C   C1        1.0  0.2607207985026108  0.15399258183992973  0.8312482098386907  1.0000
  C   C2        1.0  0.7392793516976326  0.8460090510294265  0.16875278384530654  1.0000
  C   C3        1.0  0.12332670184728299  0.1156694395092117  0.8294419521431848  1.0000
  C   C4        1.0  0.8766737184325991  0.8843303439215262  0.1705581430681065  1.0000
  C   C5        1.0  0.0037073043249832953  0.20412531446829976  0.7974938774589616  1.0000
  C   C6        1.0  0.9962943255137944  0.7958735442431291  0.2025063852146474  1.0000
  C   C7        1.0  0.8740487210020262  0.1679290265487197  0.7986873820849283  1.0000
  C   C8        1.0  0.12595156423803647  0.8320716816013275  0.20131233918193908  1.0000
  C   C9        1.0  0.7415062994191572  0.2617621442907421  0.7780307622451302  1.0000
  C   C10       1.0  0.2584941208607177  0.738237639139996  0.2219693329661537  1.0000
  C   C11       1.0  0.8661094644040903  0.0441054121710778  0.8277083869161855  1.0000
  C   C12       1.0  0.1338909558757848  0.9558943712596603  0.1722917082950985  1.0000
  C   C13       1.0  0.9865240990812368  0.9552461430239206  0.8602904585814456  1.0000
  C   C14       1.0  0.0134763211986382  0.0447536404068174  0.13970881344907576  1.0000
  C   C15       1.0  0.11467261031589264  0.9905473026522104  0.8630504897697191  1.0000
  C   C16       1.0  0.8853278099639824  0.009452480778527702  0.13694960544157186  1.0000
  C   C17       1.0  0.0871300881659138  0.7418338725334337  0.9267221911659718  1.0000
  C   C18       1.0  0.9128703321139614  0.2581659108973042  0.07327790404531224  1.0000
  C   C19       1.0  0.03967412324394814  0.6179159367862539  0.96462884274937  1.0000
  C   C20       1.0  0.9603262970359339  0.382083846644484  0.03537042928114428  1.0000
  C   C21       1.0  0.9495253092949058  0.6006024171603102  0.8998238540827687  1.0000
  C   C22       1.0  0.0504740364658929  0.3993973662704278  0.10017644761060751  1.0000
  C   C23       1.0  0.08947741946139588  0.5163059296539529  0.06547481574313707  1.0000
  C   C24       1.0  0.9105217912595833  0.48369477849609416  0.9345242888250522  1.0000
  C   C25       1.0  0.4695446342952039  0.172772706290246  0.07549704148551935  1.0000
  C   C26       1.0  0.5304567254639353  0.8272280018598012  0.9245016501184936  1.0000
  C   C27       1.0  0.4369675413272347  0.368892725698899  0.021225756501820535  1.0000
  C   C28       1.0  0.5630328789526403  0.631107057731839  0.9787743387094637  1.0000
  C   C29       1.0  0.5132347872859029  0.11219989266113833  0.292356022807894  1.0000
  C   C30       1.0  0.48676455847488853  0.8877998907695996  0.707644278885489  1.0000
  C   C31       1.0  0.3803092131388723  0.06393879191455912  0.3847707657692041  1.0000
  C   C32       1.0  0.6196901326219192  0.9360609915161789  0.6152295359241717  1.0000
  C   C33       1.0  0.3461384579237219  0.9490005888096533  0.4062897090251099  1.0000
  C   C34       1.0  0.653861962356153  0.0509991946210775  0.5937120325477209  1.0000
  C   C35       1.0  0.22999180332952565  0.8976102379207873  0.4982427024043687  1.0000
  C   C36       1.0  0.770007542431273  0.1023895455099506  0.5017575992890073  1.0000
  C   C37       1.0  0.14483181492894906  0.9643259619208423  0.5656079206281106  1.0000
  C   C38       1.0  0.8551686053509258  0.0356738215098957  0.4343921745831736  1.0000
  C   C39       1.0  0.1758855915555344  0.0812347418736294  0.5417432436494565  1.0000
  C   C40       1.0  0.8241136191654447  0.9187659662764176  0.4582566840995029  1.0000
  C   C41       1.0  0.2942837050157863  0.1303049720157432  0.4527259370408956  1.0000
  C   C42       1.0  0.7057165802242693  0.869695736134304  0.5472746074067416  1.0000
  C   C43       1.0  0.19940162332540007  0.7711234319326864  0.5233179409058621  1.0000
  C   C44       1.0  0.8005987969544747  0.22887635149805166  0.4766813311246593  1.0000
  C   C45       1.0  0.2838380355543606  0.5586331065934617  0.6758835825961639  1.0000
  C   C46       1.0  0.7161611751666186  0.4413676015565855  0.32411552197202537  1.0000
  C   C47       1.0  0.5112440742588404  0.5712361060583931  0.6250659655529204  1.0000
  C   C48       1.0  0.4887552715019581  0.4287636773723449  0.3749343361404627  1.0000
  N   N1        1.0  0.44063156621123767  0.279566689869867  0.980078352564469  1.0000
  N   N2        1.0  0.5593677795495609  0.7204330935608709  0.019921949128914172  1.0000
  N   N3        1.0  0.4617981906504056  0.3236730267602539  0.13648525515301904  1.0000
  N   N4        1.0  0.5382010200705736  0.6763276813897932  0.8635146725959401  1.0000
  N   N5        1.0  0.482650481418574  0.19889417733622142  0.16906714083073376  1.0000
  N   N6        1.0  0.5173488643422246  0.8011056060945166  0.8309331608626421  1.0000
  N   N7        1.0  0.3069714653054376  0.6714017016297475  0.5877686728944836  1.0000
  N   N8        1.0  0.6930290900142566  0.3285971570816812  0.412232619441987  1.0000
  N   N9        1.0  0.4516285711391035  0.6808569565662026  0.5535352218606703  1.0000
  N   N10       1.0  0.5483718491407785  0.3191428268645353  0.44646405016984375  1.0000
  N   N11       1.0  0.4118523376362617  0.492849499657062  0.7017044550046947  1.0000
  N   N12       1.0  0.5881480826436132  0.5071502837736759  0.29829564020658944  1.0000
  O   O1        1.0  0.26766820207903663  0.2722540095727979  0.7789061407212258  1.0000
  O   O2        1.0  0.7323297990830397  0.7277476232965583  0.22109444274617823  1.0000
  O   O3        1.0  0.3599541074524097  0.075016004519334  0.8810420684898405  1.0000
  O   O4        1.0  0.6400460427478336  0.9249856283500222  0.11895892519415692  1.0000
  O   O5        1.0  0.7361091106178961  0.36012361248986485  0.7903124449079044  1.0000
  O   O6        1.0  0.26389130966198593  0.6398761709408731  0.20968847348415653  1.0000
  O   O7        1.0  0.6365463844965262  0.2300035843359538  0.7511421632095576  1.0000
  O   O8        1.0  0.36345390074352935  0.7699971238140932  0.24885755805731685  1.0000
  O   O9        1.0  0.9674948585187195  0.8360572218239355  0.8893065630225007  1.0000
  O   O10       1.0  0.03250542672133611  0.1639434863261116  0.11069233506359669  1.0000
