data_image0
_chemical_formula_structural       Mn3H12C12O18
_chemical_formula_sum              "Mn3 H12 C12 O18"
_cell_length_a       8.321492506942215
_cell_length_b       8.321462025465559
_cell_length_c       8.321458933418544
_cell_angle_alpha    89.29487479134441
_cell_angle_beta     89.29453115036786
_cell_angle_gamma    89.29441514060791

_space_group_name_H-M_alt    "P 1"
_space_group_IT_number       1

loop_
  _space_group_symop_operation_xyz
  'x, y, z'

loop_
  _atom_site_type_symbol
  _atom_site_label
  _atom_site_symmetry_multiplicity
  _atom_site_fract_x
  _atom_site_fract_y
  _atom_site_fract_z
  _atom_site_occupancy
  Mn  Mn1       1.0  0.5000145295243854  0.9999983935313067  3.498141227709959e-05  1.0000
  Mn  Mn2       1.0  1.650317621230021e-05  0.499999923803536  2.3555058205983454e-06  1.0000
  Mn  Mn3       1.0  0.9999858134765702  8.887180272082903e-07  0.5000027903843217  1.0000
  H   H1        1.0  0.2403606349371756  0.9549036102523233  0.1960475192448214  1.0000
  H   H2        1.0  0.19606222580932103  0.24038332517800856  0.9548874038578815  1.0000
  H   H3        1.0  0.9548992284755755  0.19603480070906437  0.24039409348617358  1.0000
  H   H4        1.0  0.7595802985257906  0.04511244124062589  0.8039673954370058  1.0000
  H   H5        1.0  0.8039794279436023  0.7595985349689015  0.045101175792780196  1.0000
  H   H6        1.0  0.04510768031332189  0.8039537190880777  0.7596153793963507  1.0000
  H   H7        1.0  0.2421963723242158  0.8091774232111105  0.06811184291615999  1.0000
  H   H8        1.0  0.0681258062157823  0.24221285934577708  0.8091612986185339  1.0000
  H   H9        1.0  0.8091792394693795  0.06812971246914398  0.2422211246473295  1.0000
  H   H10       1.0  0.7577660116957503  0.1908213379504105  0.9318753631530113  1.0000
  H   H11       1.0  0.9318845731240373  0.7577802540733104  0.19081078738962984  1.0000
  H   H12       1.0  0.19082299410747075  0.9318865450123326  0.7577927744451498  1.0000
  C   C1        1.0  0.5460448414523782  0.6160378331623875  0.995802310009843  1.0000
  C   C2        1.0  0.9958170946401593  0.5460363691800225  0.6160398110773639  1.0000
  C   C3        1.0  0.6160307177872113  0.9958191802152855  0.546056126914344  1.0000
  C   C4        1.0  0.4539740159905037  0.3839528149948848  0.004187702706289498  1.0000
  C   C5        1.0  0.004209042886827799  0.4539650022892304  0.3839559130656338  1.0000
  C   C6        1.0  0.3839440021824103  0.004201246266781302  0.4539857975236074  1.0000
  C   C7        1.0  0.6164287309658222  0.45250532413478334  0.9912615153289224  1.0000
  C   C8        1.0  0.9912837914915754  0.6164173133046306  0.4524952292217036  1.0000
  C   C9        1.0  0.4524904024233436  0.9912811705013523  0.6164421434345255  1.0000
  C   C10       1.0  0.3835745849044514  0.5475095973243784  0.008724748082926191  1.0000
  C   C11       1.0  0.0087446765237758  0.3835659932727751  0.5475007546729103  1.0000
  C   C12       1.0  0.5474926807516242  0.008739069409017497  0.38358762865702534  1.0000
  O   O1        1.0  0.2721368411034675  0.9228779190086344  0.08540074467836689  1.0000
  O   O2        1.0  0.0854059745249529  0.2721442475878391  0.9228673591303431  1.0000
  O   O3        1.0  0.9228817965445585  0.0853848967042055  0.272151088583115  1.0000
  O   O4        1.0  0.727840149826285  0.0771207925008497  0.9146306851533976  1.0000
  O   O5        1.0  0.9146332795486956  0.7278484271917307  0.0771114677389946  1.0000
  O   O6        1.0  0.07712872221184597  0.9146107499065723  0.7278521983686871  1.0000
  O   O7        1.0  0.6037943027337178  0.7557240116956763  0.9900346580241572  1.0000
  O   O8        1.0  0.9900469963444251  0.6037726902999341  0.7557138151273435  1.0000
  O   O9        1.0  0.7557072669197352  0.9900475064957558  0.6037959389821734  1.0000
  O   O10       1.0  0.3962331054375525  0.24428937743923748  0.009965653671954997  1.0000
  O   O11       1.0  0.0099850765484035  0.3962189348335413  0.24427355977952903  1.0000
  O   O12       1.0  0.2442722497180512  0.009982405770394102  0.3962337323195157  1.0000
  O   O13       1.0  0.7567106650247054  0.3934068295090967  0.9794729628851042  1.0000
  O   O14       1.0  0.9794943656969152  0.7567040715486543  0.3934045378819987  1.0000
  O   O15       1.0  0.39340441288607764  0.9794880369795039  0.7567203059387564  1.0000
  O   O16       1.0  0.24331778689273878  0.606589626156989  0.0205059799311158  1.0000
  O   O17       1.0  0.0205293474249828  0.24330569613677971  0.60657786861357  1.0000
  O   O18       1.0  0.6065823068447924  0.0205202069729253  0.24332883187972942  1.0000
