data_image0
_chemical_formula_structural       Cs2H2C16N8O4
_chemical_formula_sum              "Cs2 H2 C16 N8 O4"
_cell_length_a       5.869500434357081
_cell_length_b       9.27750189024513
_cell_length_c       9.75157728275144
_cell_angle_alpha    112.73342236401909
_cell_angle_beta     90.91956217339244
_cell_angle_gamma    100.2422116494972

_space_group_name_H-M_alt    "P 1"
_space_group_IT_number       1

loop_
  _space_group_symop_operation_xyz
  'x, y, z'

loop_
  _atom_site_type_symbol
  _atom_site_label
  _atom_site_symmetry_multiplicity
  _atom_site_fract_x
  _atom_site_fract_y
  _atom_site_fract_z
  _atom_site_occupancy
  Cs  Cs1       1.0  0.11374726450466002  0.27963525811292567  0.010969477883094202  1.0000
  Cs  Cs2       1.0  0.8862569695896525  0.7203646987833779  0.9890315801943217  1.0000
  H   H1        1.0  0.03802510609264693  0.8869282227932943  0.389144434111671  1.0000
  H   H2        1.0  0.9619740180041135  0.11307174432132433  0.6108555549925044  1.0000
  C   C1        1.0  0.2534801732000033  0.9312146495042555  0.5877108101510089  1.0000
  C   C2        1.0  0.746518950896757  0.06878531761037013  0.41228917895316636  1.0000
  C   C3        1.0  0.4430137326596438  0.8584062136982881  0.6106719773589475  1.0000
  C   C4        1.0  0.5569836879535047  0.14159375498534396  0.3893279965652496  1.0000
  C   C5        1.0  0.4744376445438548  0.7411816103471127  0.4729445696806708  1.0000
  C   C6        1.0  0.5255618292260137  0.2588195549156467  0.527054842582764  1.0000
  C   C7        1.0  0.29294565407041523  0.7399234467895682  0.3597710788275421  1.0000
  C   C8        1.0  0.7070534691197494  0.26007650930246484  0.6402309571432454  1.0000
  C   C9        1.0  0.6346979304618825  0.6405274381313291  0.4332008437533403  1.0000
  C   C10       1.0  0.3652994901512585  0.3594725305522957  0.5667991301708568  1.0000
  C   C11       1.0  0.6520177203301785  0.5384215293208714  0.2837863803497882  1.0000
  C   C12       1.0  0.3479814037665819  0.46157843779374735  0.7162136087543871  1.0000
  C   C13       1.0  0.7916346185528127  0.6392246275997805  0.5440188398525763  1.0000
  C   C14       1.0  0.2083665582473699  0.36077653058268316  0.4559816110241428  1.0000
  C   C15       1.0  0.5758750004074429  0.9138574683559781  0.7482189091737794  1.0000
  C   C16       1.0  0.42412582717292924  0.08614249718963408  0.2517810951103741  1.0000
  N   N1        1.0  0.16872894530722254  0.853813126789106  0.43728063470635453  1.0000
  N   N2        1.0  0.8312701787895379  0.14618684032551954  0.5627193543978208  1.0000
  N   N3        1.0  0.9170919758446914  0.6408045159673749  0.6393868079819711  1.0000
  N   N4        1.0  0.082908851735688  0.3591954495782375  0.36061319630218236  1.0000
  N   N5        1.0  0.6775074549578264  0.4540455969682142  0.1620139083798691  1.0000
  N   N6        1.0  0.3224916686856361  0.5459543646351149  0.8379871041576124  1.0000
  N   N7        1.0  0.6897150732346305  0.964641390640715  0.8627881880787456  1.0000
  N   N8        1.0  0.31028745828265863  0.035358578847180404  0.13721080795208  1.0000
  O   O1        1.0  0.17781909721337288  0.04436298074731581  0.6789801964262167  1.0000
  O   O2        1.0  0.8221803756498929  0.9556381734928507  0.3210212627038302  1.0000
  O   O3        1.0  0.2608321063554229  0.6560141288747586  0.22550548171741977  1.0000
  O   O4        1.0  0.7391690708980576  0.3439870348189871  0.7744939457259931  1.0000
