data_image0
_chemical_formula_structural       K2Ni2H84C110N10O26
_chemical_formula_sum              "K2 Ni2 H84 C110 N10 O26"
_cell_length_a       12.49498245342319
_cell_length_b       14.53916569301489
_cell_length_c       18.093913836300256
_cell_angle_alpha    83.53189121388499
_cell_angle_beta     68.81293037323871
_cell_angle_gamma    86.42461227055985

_space_group_name_H-M_alt    "P 1"
_space_group_IT_number       1

loop_
  _space_group_symop_operation_xyz
  'x, y, z'

loop_
  _atom_site_type_symbol
  _atom_site_label
  _atom_site_symmetry_multiplicity
  _atom_site_fract_x
  _atom_site_fract_y
  _atom_site_fract_z
  _atom_site_occupancy
  K   K1        1.0  0.4302712037774228  0.5002921119921453  0.9169541485637039  1.0000
  K   K2        1.0  0.5697268653531538  0.49970457597603246  0.0830431956325199  1.0000
  Ni  Ni1       1.0  0.2096735499943208  0.022917030840645197  0.4831912675903992  1.0000
  Ni  Ni2       1.0  0.7903259908953117  0.977085212567097  0.516810733257273  1.0000
  H   H1        1.0  0.24427875375801733  0.3811151372102016  0.44392039342346107  1.0000
  H   H2        1.0  0.14515021513781792  0.3425083362987279  0.343127833469559  1.0000
  H   H3        1.0  0.9480394950744823  0.043611449476408395  0.3151204049783587  1.0000
  H   H4        1.0  0.9757563556674568  0.8598834470814012  0.3523876330205267  1.0000
  H   H5        1.0  0.27066347126249474  0.6681712971924725  0.4635745216909868  1.0000
  H   H6        1.0  0.37037185059556066  0.7056480925176059  0.5662324458035711  1.0000
  H   H7        1.0  0.3756018393254691  0.9988741034052707  0.7095710850644323  1.0000
  H   H8        1.0  0.3342391950557868  0.18200144516892888  0.6815375603911917  1.0000
  H   H9        1.0  0.9227563671239949  0.28900733732430695  0.39080676985685153  1.0000
  H   H10       1.0  0.8532686914463881  0.3819568873278528  0.29187320295128677  1.0000
  H   H11       1.0  0.0897163393182367  0.23156528442261498  0.10529925832973668  1.0000
  H   H12       1.0  0.15449395318418624  0.1377494568039452  0.2037352981421776  1.0000
  H   H13       1.0  0.9675893748897549  0.2825568351456908  0.05251187755797568  1.0000
  H   H14       1.0  0.0431161826506141  0.3886762140758365  0.029526986605112892  1.0000
  H   H15       1.0  0.8302885959404734  0.4403591691685449  0.9365353978181401  1.0000
  H   H16       1.0  0.18494192640487483  0.8041677861965866  0.26965634212653095  1.0000
  H   H17       1.0  0.17251419748645697  0.6648937759907055  0.20855041047063594  1.0000
  H   H18       1.0  0.057269684685593306  0.5108017467307918  0.44001515350684156  1.0000
  H   H19       1.0  0.06250464557471959  0.6540735095617689  0.5022275828323473  1.0000
  H   H20       1.0  0.0717552097556151  0.5466026230983587  0.19350584801999554  1.0000
  H   H21       1.0  0.10700196522453348  0.42684871200659547  0.20336498689919577  1.0000
  H   H22       1.0  0.2378745998634315  0.7611918632004945  0.7166985834791362  1.0000
  H   H23       1.0  0.31370348525489783  0.6766049393606437  0.8153483707464982  1.0000
  H   H24       1.0  0.6349365753420458  0.8173838631940599  0.6981433971179951  1.0000
  H   H25       1.0  0.5580486278585397  0.9006841850631135  0.6015662458678576  1.0000
  H   H26       1.0  0.6076702494994421  0.8045620152520454  0.8307625263676995  1.0000
  H   H27       1.0  0.687566769282327  0.7045449054843048  0.7910671677551518  1.0000
  H   H28       1.0  0.6951688922180497  0.6987598892731198  0.9866914568359205  1.0000
  H   H29       1.0  0.13805342005682775  0.3819111735426261  0.5856821924765255  1.0000
  H   H30       1.0  0.20013093322221212  0.527540185025444  0.6152681605043283  1.0000
  H   H31       1.0  0.5299813505987957  0.39924333069536994  0.5936005662942918  1.0000
  H   H32       1.0  0.4703562168831183  0.2580621597665099  0.5596819423434525  1.0000
  H   H33       1.0  0.5158384121551478  0.6435960729135956  0.6217384610980687  1.0000
  H   H34       1.0  0.5720276033590963  0.545632470082353  0.5683425745087263  1.0000
  H   H35       1.0  0.6544926266365962  0.5101172206067517  0.7379782502332546  1.0000
  H   H36       1.0  0.2137515718758536  0.22083613527526322  0.9314993316466625  1.0000
  H   H37       1.0  0.2293657525700468  0.46234747794165537  0.8499101392313829  1.0000
  H   H38       1.0  0.1039280606042325  0.44761215008097816  0.8277483581775015  1.0000
  H   H39       1.0  0.24350001588617692  0.4239588022990617  0.7566303071947188  1.0000
  H   H40       1.0  0.1274603933663769  0.19155100156002192  0.8537728341335722  1.0000
  H   H41       1.0  0.16764425781684622  0.26118291625925133  0.7604170401557153  1.0000
  H   H42       1.0  0.03565373355850449  0.28550890778858934  0.838331895439225  1.0000
  H   H43       1.0  0.7557172369059301  0.6188898655517789  0.5560844385889323  1.0000
  H   H44       1.0  0.8548484580627473  0.6574945931856391  0.6568726599018859  1.0000
  H   H45       1.0  0.05197299399291208  0.9563915197799419  0.6848672922078902  1.0000
  H   H46       1.0  0.024258000128604396  0.1401139985446207  0.6476050847097736  1.0000
  H   H47       1.0  0.7293568383172586  0.3318275585352951  0.5364171558242886  1.0000
  H   H48       1.0  0.6296361794453135  0.29435626665145526  0.4337694849292787  1.0000
  H   H49       1.0  0.6243746552407076  0.0011225200091971004  0.29044483401547433  1.0000
  H   H50       1.0  0.6657473990331368  0.8180021354322236  0.3184702647946054  1.0000
  H   H51       1.0  0.07725604201497299  0.7109949592991002  0.6091926148401112  1.0000
  H   H52       1.0  0.14673442809291973  0.6180405280407371  0.7081311231538405  1.0000
  H   H53       1.0  0.9102724262302003  0.76842790047354  0.8946990358430111  1.0000
  H   H54       1.0  0.8455082995840826  0.8622500200026196  0.7962618676045281  1.0000
  H   H55       1.0  0.03240283253197161  0.7174349864482038  0.9474901165385815  1.0000
  H   H56       1.0  0.9568647894323874  0.6113169526219693  0.9704809629840835  1.0000
  H   H57       1.0  0.16971017025296217  0.5596416794046207  0.06346305235642552  1.0000
  H   H58       1.0  0.8150894424615344  0.19583388436869603  0.7303323586561704  1.0000
  H   H59       1.0  0.8275070046165567  0.3351043889580153  0.7914400054366126  1.0000
  H   H60       1.0  0.9427271362278019  0.489206015881784  0.559981484311102  1.0000
  H   H61       1.0  0.9375067112664867  0.345935698002684  0.4977659014588767  1.0000
  H   H62       1.0  0.9282459266050154  0.4534044645561934  0.8064897904989365  1.0000
  H   H63       1.0  0.892995718870111  0.5731590531505119  0.7966308857707246  1.0000
  H   H64       1.0  0.762112895764396  0.23880964937930574  0.2833125253471209  1.0000
  H   H65       1.0  0.6862944118724171  0.3233945322471358  0.1846570512751313  1.0000
  H   H66       1.0  0.36506664804183936  0.18261284474370848  0.3018521252743581  1.0000
  H   H67       1.0  0.44193906865555027  0.0993131628728392  0.39843911511407976  1.0000
  H   H68       1.0  0.3923304132236892  0.19543330404789563  0.1692376214498026  1.0000
  H   H69       1.0  0.3124355218435895  0.295452500756376  0.20893404678003685  1.0000
  H   H70       1.0  0.3048316779712223  0.301238198618691  0.013307907737370813  1.0000
  H   H71       1.0  0.861947856669964  0.6180903853925341  0.4143199968824974  1.0000
  H   H72       1.0  0.7998712703366949  0.4724599888666178  0.38473171696979586  1.0000
  H   H73       1.0  0.47002259376410643  0.6007561577836357  0.4063989458743364  1.0000
  H   H74       1.0  0.5296433583153686  0.7419393893771796  0.44031900822735537  1.0000
  H   H75       1.0  0.48416452323448306  0.3564082550000763  0.3782586456364427  1.0000
  H   H76       1.0  0.4279752728874869  0.45437255679779304  0.431658351586904  1.0000
  H   H77       1.0  0.34550713408861367  0.4898794790338671  0.2620214403848776  1.0000
  H   H78       1.0  0.7862421425318118  0.7791619228554866  0.0685006159422841  1.0000
  H   H79       1.0  0.7706339115725099  0.5376533665926572  0.15008366907719764  1.0000
  H   H80       1.0  0.8960699354008242  0.5523866150364682  0.172248813948201  1.0000
  H   H81       1.0  0.7564946402541112  0.5760378679671375  0.24336566705878232  1.0000
  H   H82       1.0  0.8725306484383425  0.8084491279673641  0.14623034446261574  1.0000
  H   H83       1.0  0.8323451312099124  0.7388158187104847  0.23958501436594304  1.0000
  H   H84       1.0  0.9643355381002082  0.7144926004754311  0.16167214492247695  1.0000
  C   C1        1.0  0.22717152241111901  0.2288206787782343  0.483506048863859  1.0000
  C   C2        1.0  0.21623306350927146  0.31429373839100094  0.43819294355902355  1.0000
  C   C3        1.0  0.1667942923232104  0.294523768285039  0.3862148383590096  1.0000
  C   C4        1.0  0.14695742527413103  0.1967423826490347  0.39968505815715355  1.0000
  C   C5        1.0  0.0890521474961972  0.15208091819343386  0.36175572305184284  1.0000
  C   C6        1.0  0.0739988062931261  0.056944336976769705  0.37510661372338205  1.0000
  C   C7        1.0  0.003464454229337802  0.009518671225244198  0.3446500627657868  1.0000
  C   C8        1.0  0.01764467504143141  0.9172844366518547  0.36323523167506266  1.0000
  C   C9        1.0  0.0979197854168561  0.9082482444445644  0.40419150301404727  1.0000
  C   C10       1.0  0.1455984919726276  0.8238284233132376  0.4230498700676221  1.0000
  C   C11       1.0  0.2176168645423147  0.8183669369267432  0.4671362096541785  1.0000
  C   C12       1.0  0.27285477258034513  0.7338522016057138  0.4859806610765602  1.0000
  C   C13       1.0  0.32424395128145284  0.75302766882578  0.5371561253159243  1.0000
  C   C14       1.0  0.3035605757629867  0.8496609804833638  0.5479776249944235  1.0000
  C   C15       1.0  0.33922575341026834  0.8932107902177081  0.5994841784831235  1.0000
  C   C16       1.0  0.32188117058736765  0.987955421746186  0.6056793602969746  1.0000
  C   C17       1.0  0.34594712771426117  0.0337715312576492  0.6640881274602037  1.0000
  C   C18       1.0  0.3246992545012972  0.1258183127025703  0.6499667841848334  1.0000
  C   C19       1.0  0.28837445631371145  0.13673500479728057  0.5824410813533162  1.0000
  C   C20       1.0  0.26906597889944095  0.22255457060689574  0.5457140181438902  1.0000
  C   C21       1.0  0.0445434496226156  0.20696278800613038  0.30427358973979307  1.0000
  C   C22       1.0  0.9601090887376814  0.277081479554333  0.328157016978288  1.0000
  C   C23       1.0  0.9208730305317018  0.32915869831541755  0.2735945055520689  1.0000
  C   C24       1.0  0.9662712721806699  0.31292833753033034  0.1929347149765235  1.0000
  C   C25       1.0  0.0504198107890446  0.2436455525638976  0.16776728201212168  1.0000
  C   C26       1.0  0.0879580788455527  0.19109214441942163  0.22370715079568265  1.0000
  C   C27       1.0  0.9594083409749746  0.3566448553380681  0.06250732579761116  1.0000
  C   C28       1.0  0.8679292161311024  0.3998957859494467  0.03135240656688863  1.0000
  C   C29       1.0  0.1270928660445136  0.7397454617131701  0.39024847973902854  1.0000
  C   C30       1.0  0.15445279979432766  0.7404584143150003  0.30780840779775076  1.0000
  C   C31       1.0  0.14749061549999004  0.6613051472795063  0.2729867008365616  1.0000
  C   C32       1.0  0.11429404113279418  0.5781344743085766  0.32122922172219154  1.0000
  C   C33       1.0  0.08362624591520533  0.5763037366257323  0.40387800223998477  1.0000
  C   C34       1.0  0.08902299037139023  0.6561914541977741  0.4377368470912799  1.0000
  C   C35       1.0  0.129913506100074  0.4960692894573526  0.2108183889029505  1.0000
  C   C36       1.0  0.2536809053457247  0.5124224228153835  0.15397611584621274  1.0000
  C   C37       1.0  0.39134377171218665  0.838009552985035  0.652808312221765  1.0000
  C   C38       1.0  0.3249004526263021  0.7731414344298456  0.7128603399733535  1.0000
  C   C39       1.0  0.3663473852354784  0.7262033905981297  0.7685678180712684  1.0000
  C   C40       1.0  0.4770612516226224  0.7438964164031534  0.7651938275813704  1.0000
  C   C41       1.0  0.5468250423939338  0.8056451613939686  0.7041730686225732  1.0000
  C   C42       1.0  0.5033018275678245  0.8523463910997153  0.6486777583742906  1.0000
  C   C43       1.0  0.6069292195394383  0.7282930563095675  0.8358565286626103  1.0000
  C   C44       1.0  0.6057271496480398  0.6911728047758883  0.9181961375860223  1.0000
  C   C45       1.0  0.29987549126914104  0.3083261067528085  0.569872451318659  1.0000
  C   C46       1.0  0.22452222276453432  0.38583002561357915  0.58640483917587  1.0000
  C   C47       1.0  0.2585300616940033  0.467631738759188  0.6035665137642494  1.0000
  C   C48       1.0  0.36859782524439316  0.4738990402421592  0.606624050612801  1.0000
  C   C49       1.0  0.44406799866260377  0.3971341024829655  0.5917732823345858  1.0000
  C   C50       1.0  0.40933208929856596  0.31614146022096185  0.5733752361436544  1.0000
  C   C51       1.0  0.5067897668162545  0.5686142913271084  0.6229823449810397  1.0000
  C   C52       1.0  0.5288245219973718  0.5230842694423927  0.6965336347417618  1.0000
  C   C53       1.0  0.22664321196312193  0.2953571349682491  0.9110495567594227  1.0000
  C   C54       1.0  0.19081622397350628  0.4205187466108242  0.8201860147235536  1.0000
  C   C55       1.0  0.1254346628801244  0.26196631694670464  0.825230162713865  1.0000
  C   C56       1.0  0.7728280284121922  0.771181562748545  0.516494844350106  1.0000
  C   C57       1.0  0.7837664186963381  0.6857098916638904  0.5618100502086704  1.0000
  C   C58       1.0  0.833206940620073  0.705479174475812  0.6137866824694739  1.0000
  C   C59       1.0  0.8530447146339102  0.8032591788306574  0.6003163660538461  1.0000
  C   C60       1.0  0.9109507973680879  0.847922720158607  0.6382431024900582  1.0000
  C   C61       1.0  0.9260006519963254  0.943060673141872  0.624893496246365  1.0000
  C   C62       1.0  0.9965385448111519  0.9904842691008042  0.655345497231849  1.0000
  C   C63       1.0  0.9823660673370894  0.08271784359669708  0.6367590375157305  1.0000
  C   C64       1.0  0.902084968410108  0.0917526322856261  0.5958076831097329  1.0000
  C   C65       1.0  0.8544156444468739  0.17617525376057588  0.5769423314511074  1.0000
  C   C66       1.0  0.7823913957268332  0.18163256427490646  0.5328594767743482  1.0000
  C   C67       1.0  0.7271551648419391  0.266148001770496  0.5140162067833386  1.0000
  C   C68       1.0  0.6757633672550725  0.24697322024041307  0.4628435344480408  1.0000
  C   C69       1.0  0.6964433342910682  0.15033920225969408  0.452022937451062  1.0000
  C   C70       1.0  0.6607704322550633  0.10678867347956361  0.4005211123839985  1.0000
  C   C71       1.0  0.6781141419630359  0.012044041287524  0.3943278033518637  1.0000
  C   C72       1.0  0.6540387977357868  0.9662258200535945  0.3359237481694349  1.0000
  C   C73       1.0  0.6752926883833086  0.8741790611227884  0.35004250449291857  1.0000
  C   C74       1.0  0.7116234751224513  0.8632637725464463  0.4175632903914489  1.0000
  C   C75       1.0  0.7309336351157186  0.777445595651578  0.4542881547743034  1.0000
  C   C76       1.0  0.9554629768496598  0.7930394795197772  0.6957245051911085  1.0000
  C   C77       1.0  0.0398965621203615  0.7229180177756619  0.6718431801617014  1.0000
  C   C78       1.0  0.07912585211174422  0.6708380016021279  0.7264076116646478  1.0000
  C   C79       1.0  0.033719974559112104  0.6870662510513836  0.8070678148406927  1.0000
  C   C80       1.0  0.9495747812413667  0.75635181760925  0.8322330654193518  1.0000
  C   C81       1.0  0.9120458510758456  0.8089080345617033  0.7762911963824023  1.0000
  C   C82       1.0  0.0405770395481255  0.6433455554905125  0.9374975812956876  1.0000
  C   C83       1.0  0.13205195141230064  0.6000925293643247  0.9686531754359323  1.0000
  C   C84       1.0  0.8729298669605967  0.26025755970864844  0.6097427734585423  1.0000
  C   C85       1.0  0.8455751456890895  0.25954255274859145  0.6921828571170251  1.0000
  C   C86       1.0  0.8525296791792485  0.33869371126970543  0.7270066381292678  1.0000
  C   C87       1.0  0.8857131171702052  0.42187194723894084  0.6787661024690904  1.0000
  C   C88       1.0  0.9163800740407383  0.4237026776748394  0.5961153180150659  1.0000
  C   C89       1.0  0.9109919361038336  0.3438143025698324  0.562254417208905  1.0000
  C   C90       1.0  0.8700850948930068  0.5039370925376191  0.7891762795157788  1.0000
  C   C91       1.0  0.7463178220310455  0.4875798086429981  0.8460211119809669  1.0000
  C   C92       1.0  0.6086430417533039  0.1619877961683187  0.34720002917560316  1.0000
  C   C93       1.0  0.6750896614282739  0.22685870477929623  0.2871508033899273  1.0000
  C   C94       1.0  0.6336453377711777  0.27379606480199203  0.23144164102163953  1.0000
  C   C95       1.0  0.5229316280277702  0.2560995704981436  0.23481204157778268  1.0000
  C   C96       1.0  0.4531687004377006  0.19435082805186002  0.29583203538855674  1.0000
  C   C97       1.0  0.49668589286242343  0.14764957677247278  0.3513304864055868  1.0000
  C   C98       1.0  0.3930713551576588  0.27170434296108675  0.16414510853492462  1.0000
  C   C99       1.0  0.3942743076386392  0.3088239055966896  0.0818053456371786  1.0000
  C   C100      1.0  0.7001266387052283  0.6916754566078466  0.43013008052604107  1.0000
  C   C101      1.0  0.7754790733705904  0.6141708418789804  0.41359796135684224  1.0000
  C   C102      1.0  0.7414703911272299  0.5323691224269068  0.3964348366490782  1.0000
  C   C103      1.0  0.631405173337079  0.5261032124032212  0.39337433582593206  1.0000
  C   C104      1.0  0.5559359118504618  0.6028667679407602  0.40822445366980276  1.0000
  C   C105      1.0  0.5906709187575601  0.6838601028627805  0.4266248691024686  1.0000
  C   C106      1.0  0.4932139387617482  0.4313921200422898  0.3770160398023278  1.0000
  C   C107      1.0  0.47117326861360453  0.47691934894005783  0.30346701260400977  1.0000
  C   C108      1.0  0.7733530527126008  0.7046416260006152  0.08894969947917278  1.0000
  C   C109      1.0  0.8091817869320649  0.5794800156851634  0.17980949595159512  1.0000
  C   C110      1.0  0.8745563888582667  0.7380338106997185  0.1747719082486226  1.0000
  N   N1        1.0  0.18841679904584652  0.15566386720638556  0.45746643484903154  1.0000
  N   N2        1.0  0.12755996846136242  0.9947107614139981  0.41530322903922473  1.0000
  N   N3        1.0  0.24047074601378426  0.8904846291736065  0.5030256580815189  1.0000
  N   N4        1.0  0.2823912168164285  0.051067607510326206  0.5572691402933286  1.0000
  N   N5        1.0  0.18376914035057013  0.3245413782685418  0.8547070547734136  1.0000
  N   N6        1.0  0.8115835756830235  0.8443390720694594  0.5425352973106284  1.0000
  N   N7        1.0  0.8724369684430259  0.005292164862282802  0.584699902261967  1.0000
  N   N8        1.0  0.7595365774895769  0.10951625895210532  0.4969734478655922  1.0000
  N   N9        1.0  0.7176084504568934  0.9489304853608259  0.4427354199627869  1.0000
  N   N10       1.0  0.8162261929852193  0.675459456364578  0.14529224072582994  1.0000
  O   O1        1.0  0.9217479420934181  0.36897316784300227  0.1447099905385869  1.0000
  O   O2        1.0  0.7702447674912847  0.41787551017821295  0.07643506176490424  1.0000
  O   O3        1.0  0.9039489546989756  0.413323563307415  0.9529501193924688  1.0000
  O   O4        1.0  0.11019020092328452  0.4950935772934528  0.29330608149548  1.0000
  O   O5        1.0  0.336074654971064  0.5039751559658683  0.17883275692751247  1.0000
  O   O6        1.0  0.2656289350844361  0.5306995147693951  0.08065509011999691  1.0000
  O   O7        1.0  0.5091984258105883  0.696802005030456  0.8247129052046132  1.0000
  O   O8        1.0  0.6880606702146821  0.729228330499083  0.9340873548908988  1.0000
  O   O9        1.0  0.5389433779368886  0.6333212785005599  0.9631571209118092  1.0000
  O   O10       1.0  0.3937322809394459  0.5568746803917863  0.6247762382686302  1.0000
  O   O11       1.0  0.6395612887851528  0.5269615330179248  0.6855696622428908  1.0000
  O   O12       1.0  0.4533879766709391  0.49087284577512236  0.7572591504380453  1.0000
  O   O13       1.0  0.276717371837421  0.344985213535864  0.9405353769217015  1.0000
  O   O14       1.0  0.0782349518124832  0.6310151525598258  0.8552940611681875  1.0000
  O   O15       1.0  0.22973762481216653  0.5821037982355933  0.9235655163771666  1.0000
  O   O16       1.0  0.09604219408109319  0.5866731071259821  0.047055007438473205  1.0000
  O   O17       1.0  0.8898066393984506  0.504913493876515  0.7066911674961532  1.0000
  O   O18       1.0  0.6639259888027524  0.4960215424573491  0.821163953275196  1.0000
  O   O19       1.0  0.734374917203624  0.4693034299821477  0.9193408123633161  1.0000
  O   O20       1.0  0.4908013299477858  0.3031946955506442  0.17528733923037976  1.0000
  O   O21       1.0  0.31194079746469333  0.2707690656731998  0.06591019425750487  1.0000
  O   O22       1.0  0.46105901114874115  0.36667404588844477  0.03684149660964658  1.0000
  O   O23       1.0  0.6062714445059143  0.4431317272156788  0.3752199312473294  1.0000
  O   O24       1.0  0.36043748688294397  0.47303862599360263  0.31443050673906464  1.0000
  O   O25       1.0  0.5466142517221543  0.5091273234145319  0.2427379579518245  1.0000
  O   O26       1.0  0.7232832620027166  0.6550114867683234  0.05946244091471445  1.0000
