data_image0
_chemical_formula_structural       Cu4H16C24N32O4
_chemical_formula_sum              "Cu4 H16 C24 N32 O4"
_cell_length_a       6.812777509551404
_cell_length_b       8.617190312700298
_cell_length_c       17.016813364659345
_cell_angle_alpha    76.98437015332998
_cell_angle_beta     78.49314580233279
_cell_angle_gamma    66.77496916634928

_space_group_name_H-M_alt    "P 1"
_space_group_IT_number       1

loop_
  _space_group_symop_operation_xyz
  'x, y, z'

loop_
  _atom_site_type_symbol
  _atom_site_label
  _atom_site_symmetry_multiplicity
  _atom_site_fract_x
  _atom_site_fract_y
  _atom_site_fract_z
  _atom_site_occupancy
  Cu  Cu1       1.0  0.5568989892762918  0.7791779692501778  0.7645031659622104  1.0000
  Cu  Cu2       1.0  0.10058703540383375  0.7207016536540677  0.7354380178629893  1.0000
  Cu  Cu3       1.0  0.4431058516813523  0.2208181573743033  0.23549528617204624  1.0000
  Cu  Cu4       1.0  0.8994091847613747  0.27930482822140595  0.26456499410738826  1.0000
  H   H1        1.0  0.9602858522246797  0.09177300463522899  0.821252758035726  1.0000
  H   H2        1.0  0.8721146880493652  0.4079529539344193  0.6786551339110287  1.0000
  H   H3        1.0  0.03971288410561183  0.908221854833343  0.17874649853659713  1.0000
  H   H4        1.0  0.1278809398732365  0.5920522734023452  0.321349156699604  1.0000
  H   H5        1.0  0.642763439076511  0.013755856361285596  0.8941120431300289  1.0000
  H   H6        1.0  0.5496348982516965  0.48613121716686447  0.6056478231295299  1.0000
  H   H7        1.0  0.3572351088496931  0.9862403397434892  0.10588969280095736  1.0000
  H   H8        1.0  0.4503636798062304  0.513875214182683  0.3943528415756318  1.0000
  H   H9        1.0  0.6987791040760031  0.776183468592336  0.015102550601333989  1.0000
  H   H10       1.0  0.4895345113789988  0.723716716799231  0.4847064112764982  1.0000
  H   H11       1.0  0.30121315912703805  0.22381659850329066  0.9849003936545413  1.0000
  H   H12       1.0  0.510472706525377  0.2762845258633461  0.5152913896625078  1.0000
  H   H13       1.0  0.3757083430855207  0.7059441494974124  0.9708832089207318  1.0000
  H   H14       1.0  0.05199763751957702  0.7939104883640197  0.529211126496797  1.0000
  H   H15       1.0  0.6242839066023578  0.2940532853745594  0.0291166556172726  1.0000
  H   H16       1.0  0.9480021084069962  0.2060908490418143  0.47079113187155014  1.0000
  C   C1        1.0  0.9726401791743775  0.988285682964147  0.8724349114499571  1.0000
  C   C2        1.0  0.8324393566071043  0.511470552823667  0.6274872485679024  1.0000
  C   C3        1.0  0.027357776509212804  0.011709258601918302  0.12756810312127698  1.0000
  C   C4        1.0  0.16756098433150896  0.48853330629105335  0.37251303933624763  1.0000
  C   C5        1.0  0.8008454044896497  0.9438630329898102  0.9143649177883402  1.0000
  C   C6        1.0  0.6583288545295296  0.5558869792329232  0.5854220973103705  1.0000
  C   C7        1.0  0.199156696560209  0.05613698671990619  0.08563568513874029  1.0000
  C   C8        1.0  0.34167149194793495  0.4441194142221719  0.4145768069458811  1.0000
  C   C9        1.0  0.8315992191127685  0.8117778306270012  0.9805080024877595  1.0000
  C   C10       1.0  0.6234193579716208  0.6879645545676425  0.5192998460110585  1.0000
  C   C11       1.0  0.1683922526978351  0.1882209535126549  0.019494928225213898  1.0000
  C   C12       1.0  0.3765855103483205  0.31204054013142  0.4806982267213157  1.0000
  C   C13       1.0  0.040509070756464045  0.7231660522516634  0.002197235212207706  1.0000
  C   C14       1.0  0.7654794763315353  0.7766386336552529  0.49775777198389887  1.0000
  C   C15       1.0  0.9594865353426916  0.27683274135089414  0.9978060511524018  1.0000
  C   C16       1.0  0.2345247969763734  0.22336393933492363  0.5022422712126796  1.0000
  C   C17       1.0  0.2096348727459802  0.7704578713799396  0.9585136599562529  1.0000
  C   C18       1.0  0.9380302233849492  0.7293314621424116  0.541531384063738  1.0000
  C   C19       1.0  0.7903569838491223  0.2295383373705988  0.041488775405156296  1.0000
  C   C20       1.0  0.061980132726873326  0.2706659442694601  0.4584668504487438  1.0000
  C   C21       1.0  0.08252675478603787  0.5839098476728211  0.07110885248935969  1.0000
  C   C22       1.0  0.7373788686157069  0.9160661571227423  0.4289181687056994  1.0000
  C   C23       1.0  0.9174706169632292  0.4160876408651006  0.9288933652502819  1.0000
  C   C24       1.0  0.26263286282286924  0.08392998527324379  0.5710808761812769  1.0000
  N   N1        1.0  0.9255346993329213  0.5412405213350552  0.12168426728121058  1.0000
  N   N2        1.0  0.588155213391332  0.9588352816270814  0.37834985271960153  1.0000
  N   N3        1.0  0.07446074018558616  0.4587660426379188  0.8783225026880783  1.0000
  N   N4        1.0  0.4118614246742214  0.0411569866237542  0.6216478652919404  1.0000
  N   N5        1.0  0.02764125945094522  0.41535223379735  0.17641913062811193  1.0000
  N   N6        1.0  0.6192319214241239  0.08473820956658067  0.3236358451346816  1.0000
  N   N7        1.0  0.9723549551754122  0.5846517137377558  0.8235852649901572  1.0000
  N   N8        1.0  0.38077587764514953  0.9152592189539562  0.6763634444598663  1.0000
  N   N9        1.0  0.23921778465540214  0.38136628017134916  0.16001945930263156  1.0000
  N   N10       1.0  0.780618678403876  0.118657529849969  0.3400358093314607  1.0000
  N   N11       1.0  0.7607821333906777  0.6186298212044435  0.8399779318131377  1.0000
  N   N12       1.0  0.2193804891272256  0.8813488888680895  0.6599642685574023  1.0000
  N   N13       1.0  0.2788342370664338  0.48471853402460857  0.09389238778938848  1.0000
  N   N14       1.0  0.857482261383936  0.015230078028885399  0.4061516752698039  1.0000
  N   N15       1.0  0.7211678258753982  0.5152711525570551  0.906104822997747  1.0000
  N   N16       1.0  0.14251887371653293  0.9847763312119894  0.5938479343532987  1.0000
  N   N17       1.0  0.17471778366464083  0.9029246378895266  0.8951691565383652  1.0000
  N   N18       1.0  0.9720404432025522  0.5968073540307728  0.6048506383055566  1.0000
  N   N19       1.0  0.8252790041503035  0.09707539762025869  0.10483226436968347  1.0000
  N   N20       1.0  0.027960689128491402  0.4031977880399183  0.3951496631414883  1.0000
  N   N21       1.0  0.3886796660747579  0.6204541063379949  0.7793031519151936  1.0000
  N   N22       1.0  0.7887083515973291  0.8793507924028106  0.7206139093346023  1.0000
  N   N23       1.0  0.6113220366754465  0.3795458565371845  0.22069486664558716  1.0000
  N   N24       1.0  0.21128983336782173  0.12065441282529579  0.27938932619396434  1.0000
  N   N25       1.0  0.4762860215779982  0.4676316212164621  0.8029188830886934  1.0000
  N   N26       1.0  0.7473122302309537  0.0321901375121882  0.6970325291411326  1.0000
  N   N27       1.0  0.5237195698946239  0.5323541880657531  0.19707688227246928  1.0000
  N   N28       1.0  0.25268457420055074  0.9678175010187078  0.3029647408232349  1.0000
  N   N29       1.0  0.5632632169610194  0.32411011084899854  0.8262025524177898  1.0000
  N   N30       1.0  0.7141922684995381  0.17573535902866408  0.6737833942215018  1.0000
  N   N31       1.0  0.4367284300704953  0.6758884080580716  0.17378828038105346  1.0000
  N   N32       1.0  0.28580215377836293  0.8242683327510392  0.3262093717483977  1.0000
  O   O1        1.0  0.33507557173754127  0.9482884781602294  0.8556688913994888  1.0000
  O   O2        1.0  0.13830382263635274  0.5513959526653665  0.6443632573755308  1.0000
  O   O3        1.0  0.6649211970233965  0.051706390785525996  0.14433083343859465  1.0000
  O   O4        1.0  0.8616955412751537  0.4486092272997766  0.35563880452043145  1.0000
