data_image0
_chemical_formula_structural       Zn16H32C96S16O68
_chemical_formula_sum              "Zn16 H32 C96 S16 O68"
_cell_length_a       19.68653289943117
_cell_length_b       19.68795845622623
_cell_length_c       33.434542032236536
_cell_angle_alpha    79.01371338035625
_cell_angle_beta     79.01888937823126
_cell_angle_gamma    63.844948630726904

_space_group_name_H-M_alt    "P 1"
_space_group_IT_number       1

loop_
  _space_group_symop_operation_xyz
  'x, y, z'

loop_
  _atom_site_type_symbol
  _atom_site_label
  _atom_site_symmetry_multiplicity
  _atom_site_fract_x
  _atom_site_fract_y
  _atom_site_fract_z
  _atom_site_occupancy
  Zn  Zn1       1.0  0.0561956698104069  0.40118483413152  0.4787566243417912  1.0000
  Zn  Zn2       1.0  0.9825354154898137  0.482459045311579  0.5600177541833274  1.0000
  Zn  Zn3       1.0  0.060071363091594804  0.5599994454287939  0.4824702039382487  1.0000
  Zn  Zn4       1.0  0.9012040919791746  0.5561653840486399  0.47875607335276976  1.0000
  Zn  Zn5       1.0  0.693715526967175  0.34884017617746105  0.2712621620453389  1.0000
  Zn  Zn6       1.0  0.6899112983170639  0.19000793886689132  0.26750621798268537  1.0000
  Zn  Zn7       1.0  0.7674694126904384  0.2675439056581368  0.189986185933968  1.0000
  Zn  Zn8       1.0  0.8487906119210678  0.1937646468992044  0.2712632120672821  1.0000
  Zn  Zn9       1.0  0.2674736524782801  0.7675345431848869  0.6900077474719807  1.0000
  Zn  Zn10      1.0  0.3487908456685958  0.6937761432622125  0.7712784474841781  1.0000
  Zn  Zn11      1.0  0.19372830683580844  0.8488121749111243  0.7712920044887069  1.0000
  Zn  Zn12      1.0  0.18991093994386432  0.6899910994854892  0.7675383694470097  1.0000
  Zn  Zn13      1.0  0.5600749621509635  0.059987512104939425  0.9824998849258433  1.0000
  Zn  Zn14      1.0  0.40120648396926134  0.05618060003770613  0.9787630405520031  1.0000
  Zn  Zn15      1.0  0.5562120527033372  0.9011522094433103  0.9787798406460267  1.0000
  Zn  Zn16      1.0  0.4825720575250756  0.9824559022921018  0.06002151840193189  1.0000
  H   H1        1.0  0.2862922492884863  0.5105784012104381  0.4093404425699915  1.0000
  H   H2        1.0  0.4636371046057377  0.23940234511771052  0.3406183834746841  1.0000
  H   H3        1.0  0.7715489308406376  0.5473209714989977  0.648485494507902  1.0000
  H   H4        1.0  0.4785297686601027  0.7026893222095155  0.6015012736989787  1.0000
  H   H5        1.0  0.0473394531838949  0.2715271697981976  0.64845798334823  1.0000
  H   H6        1.0  0.20269289571371024  0.9785284622736938  0.6015260604731906  1.0000
  H   H7        1.0  0.8008480874316604  0.779040919126956  0.4021474508998678  1.0000
  H   H8        1.0  0.9490405254965142  0.9709581521467073  0.347900849938405  1.0000
  H   H9        1.0  0.702743211740497  0.47852516345287893  0.10152325725439941  1.0000
  H   H10       1.0  0.5472908542146442  0.7715312169956691  0.14845874134579864  1.0000
  H   H11       1.0  0.0868912327475115  0.10877827871248513  0.20996712057424818  1.0000
  H   H12       1.0  0.16311784756218373  0.14118577102333055  0.04000346404755818  1.0000
  H   H13       1.0  0.4490738835726589  0.4709601723268193  0.8478774640859184  1.0000
  H   H14       1.0  0.30088659809374724  0.2790387414251184  0.9021212691111913  1.0000
  H   H15       1.0  0.9636284376083495  0.7394061916054755  0.8406256965780085  1.0000
  H   H16       1.0  0.7862822910748123  0.010584252151716066  0.9093457339467077  1.0000
  H   H17       1.0  0.8100420037669167  0.5271784024596968  0.4187054284592335  1.0000
  H   H18       1.0  0.9397527456399642  0.22295343995849498  0.3313378752642606  1.0000
  H   H19       1.0  0.7227507169116123  0.4400599124614927  0.33137777683756287  1.0000
  H   H20       1.0  0.027355405854109397  0.3098711312579495  0.4186410618971265  1.0000
  H   H21       1.0  0.135623184493106  0.6357551908084105  0.5270779613795469  1.0000
  H   H22       1.0  0.1143929300023956  0.6142463987984854  0.7228889277917644  1.0000
  H   H23       1.0  0.22294460009968023  0.7229099811451289  0.6144836058050414  1.0000
  H   H24       1.0  0.0270991174511579  0.5271154164376738  0.6355168543108787  1.0000
  H   H25       1.0  0.7230614963544112  0.22287847466321156  0.11440602900076867  1.0000
  H   H26       1.0  0.526990025548912  0.02714914135501807  0.13559380469713736  1.0000
  H   H27       1.0  0.6355977491224466  0.13575664992670503  0.0270817086891242  1.0000
  H   H28       1.0  0.6144199009817299  0.1142430320339684  0.22288778219110839  1.0000
  H   H29       1.0  0.22275106707309797  0.940053878189204  0.831382949165615  1.0000
  H   H30       1.0  0.5273530251930012  0.8098697777737767  0.9186467611176781  1.0000
  H   H31       1.0  0.3101927669790641  0.027131839822374076  0.9186793194712521  1.0000
  H   H32       1.0  0.43990766021708794  0.7229010962646285  0.8313132899259654  1.0000
  C   C1        1.0  0.0613016619757332  0.3158318019609895  0.5617248385603374  1.0000
  C   C2        1.0  0.06997241747786379  0.5700446322083649  0.5699167453908769  1.0000
  C   C3        1.0  0.1843635720829866  0.4389371849840273  0.4385723928869394  1.0000
  C   C4        1.0  0.9380334390624439  0.6843504127945441  0.4385474809941242  1.0000
  C   C5        1.0  0.9300660349992571  0.4299494966898579  0.43010254578874196  1.0000
  C   C6        1.0  0.8158328353112411  0.5612921335062708  0.5617359884958545  1.0000
  C   C7        1.0  0.5655401884604245  0.31109193437685423  0.3114503456255733  1.0000
  C   C8        1.0  0.680111540880354  0.17996533333852216  0.1800600057048669  1.0000
  C   C9        1.0  0.6887779559470816  0.4341820680451747  0.1883060966876258  1.0000
  C   C10       1.0  0.9346357446722279  0.1883373498529934  0.18872679671537898  1.0000
  C   C11       1.0  0.8199209245018722  0.32004506404469885  0.31994074996897126  1.0000
  C   C12       1.0  0.8119034416014372  0.06553364809828818  0.31145740967575347  1.0000
  C   C13       1.0  0.4341982581382098  0.6887469785525652  0.6882950018216504  1.0000
  C   C14       1.0  0.3199487221451847  0.8200401405184009  0.8199251591209559  1.0000
  C   C15       1.0  0.18876411987893962  0.9341773842055333  0.6883039958290877  1.0000
  C   C16       1.0  0.0655178032876478  0.8111048418516874  0.8114418737685013  1.0000
  C   C17       1.0  0.1800645778751218  0.6799733632002967  0.6800703013587465  1.0000
  C   C18       1.0  0.31190672005285347  0.5655389614055795  0.811444274359985  1.0000
  C   C19       1.0  0.4380405936077665  0.18435458599358878  0.938526719555817  1.0000
  C   C20       1.0  0.4300892850519205  0.929949087738116  0.9300839674324234  1.0000
  C   C21       1.0  0.6843435925260195  0.9389484823549881  0.9385651722822032  1.0000
  C   C22       1.0  0.5612821494876172  0.8158299429027878  0.061718879855113984  1.0000
  C   C23       1.0  0.5699201208252944  0.07006344706027076  0.06992990420307879  1.0000
  C   C24       1.0  0.3153809167358972  0.06172547343739149  0.061278980053721496  1.0000
  C   C25       1.0  0.902119156193919  0.40203831674477186  0.4020457286544996  1.0000
  C   C26       1.0  0.8479939047584962  0.3480558186069089  0.34790025682241316  1.0000
  C   C27       1.0  0.8291191336131263  0.4478510511825106  0.38840075314669775  1.0000
  C   C28       1.0  0.9209932885679281  0.3022707651092275  0.36154317786580475  1.0000
  C   C29       1.0  0.8022648653665669  0.4210461310296624  0.36154530671417007  1.0000
  C   C30       1.0  0.9478795726185184  0.3290333690045842  0.38839586130263365  1.0000
  C   C31       1.0  0.09799917899299972  0.5980092293314101  0.5979165429027375  1.0000
  C   C32       1.0  0.1520612554389373  0.6520234656193155  0.6520471993330117  1.0000
  C   C33       1.0  0.14136705896407878  0.6413146981254413  0.5818683306573007  1.0000
  C   C34       1.0  0.1086808873549501  0.6087264069602585  0.6680862852050635  1.0000
  C   C35       1.0  0.16819504884845324  0.668129481347499  0.6087345410258251  1.0000
  C   C36       1.0  0.08187505721479481  0.5819193894457937  0.6412221927937479  1.0000
  C   C37       1.0  0.3036097324925251  0.45382759373201526  0.4012389524958023  1.0000
  C   C38       1.0  0.44626940726580244  0.29615226333839206  0.3487407041455626  1.0000
  C   C39       1.0  0.25902591770712036  0.41359124248060647  0.41365000940837854  1.0000
  C   C40       1.0  0.49087335852786396  0.3363832771199284  0.33638755292241734  1.0000
  C   C41       1.0  0.3780484068412022  0.3387971259017776  0.37236495239555  1.0000
  C   C42       1.0  0.37178024351357664  0.4111507161722657  0.37760396791747997  1.0000
  C   C43       1.0  0.726379506313279  0.57622190260183  0.6287867904905865  1.0000
  C   C44       1.0  0.5236723027062737  0.673796891951838  0.6212181354859609  1.0000
  C   C45       1.0  0.7409191346900242  0.5863672943958137  0.5863956219122954  1.0000
  C   C46       1.0  0.5091116835061769  0.6636323860887501  0.663607699064485  1.0000
  C   C47       1.0  0.6027497929437046  0.6419732542331219  0.6084971896280605  1.0000
  C   C48       1.0  0.6473083074729615  0.6079982971670006  0.6415250677524326  1.0000
  C   C49       1.0  0.076246750381614  0.22635001250436906  0.6287720898255812  1.0000
  C   C50       1.0  0.17379963493065992  0.023676208862383377  0.621230830983734  1.0000
  C   C51       1.0  0.086391963640267  0.2409082003857606  0.5863805794044197  1.0000
  C   C52       1.0  0.16363570689633627  0.009098987953166205  0.6636207782864999  1.0000
  C   C53       1.0  0.14199119820280262  0.10274689750329456  0.6084937218336107  1.0000
  C   C54       1.0  0.1080186259218223  0.1472861850520317  0.6415273946302092  1.0000
  C   C55       1.0  0.8448904119488319  0.7998833364132881  0.39753842158943786  1.0000
  C   C56       1.0  0.9050525357198325  0.950049162274595  0.3524992527471084  1.0000
  C   C57       1.0  0.9135748304596022  0.7590418845040007  0.41365103983964246  1.0000
  C   C58       1.0  0.836360192180365  0.9908628595668035  0.3363929215911412  1.0000
  C   C59       1.0  0.9082929202336771  0.8804655682515229  0.37475263706495804  1.0000
  C   C60       1.0  0.8417386990815459  0.8694007362878794  0.3752446009920191  1.0000
  C   C61       1.0  0.6520785250459867  0.15203348212687465  0.15204385696760167  1.0000
  C   C62       1.0  0.5979794351684546  0.09800985428384482  0.09792065747554088  1.0000
  C   C63       1.0  0.6681764401542978  0.16815506140675027  0.10872743306286742  1.0000
  C   C64       1.0  0.5818991859015553  0.08189541914700271  0.14123018644601606  1.0000
  C   C65       1.0  0.6413347595609835  0.14132989346430946  0.08187102854473238  1.0000
  C   C66       1.0  0.608723260746153  0.10871298541160718  0.16808425725204756  1.0000
  C   C67       1.0  0.6738176750979507  0.5236720509916708  0.12122760547154597  1.0000
  C   C68       1.0  0.5762277357551255  0.7263561470868043  0.12877357899757408  1.0000
  C   C69       1.0  0.6636417919972929  0.5090925817508917  0.16361910276647504  1.0000
  C   C70       1.0  0.5863831886057441  0.7409204072385905  0.08637998929011557  1.0000
  C   C71       1.0  0.6080104549505378  0.6472883253293206  0.14152604281061795  1.0000
  C   C72       1.0  0.6420023772058772  0.6027460964793788  0.10849386960319406  1.0000
  C   C73       1.0  0.0799341203895949  0.12488298533857291  0.17753444860024808  1.0000
  C   C74       1.0  0.1700472395980412  0.12501872169238482  0.0724390866186511  1.0000
  C   C75       1.0  0.009081347099254298  0.1635591427483973  0.16359098109927564  1.0000
  C   C76       1.0  0.24090324850626393  0.08638766603326077  0.08638954104554128  1.0000
  C   C77       1.0  0.1113591688525588  0.13905789424600098  0.10558283416151679  1.0000
  C   C78       1.0  0.13858429557643603  0.1107822122622792  0.1443824179934481  1.0000
  C   C79       1.0  0.3479926035950172  0.8480422534671421  0.8479001503143734  1.0000
  C   C80       1.0  0.40211843651244555  0.9020245250864035  0.9020437888317971  1.0000
  C   C81       1.0  0.30225780115625167  0.921037998825227  0.8615539099029659  1.0000
  C   C82       1.0  0.44787421722129045  0.8290276354228892  0.8884031189090819  1.0000
  C   C83       1.0  0.3291109779467121  0.947834620327974  0.8884058947969178  1.0000
  C   C84       1.0  0.4209851314782184  0.8022532945648421  0.8615490313522897  1.0000
  C   C85       1.0  0.40507209995961807  0.45006664783561245  0.8524897416260657  1.0000
  C   C86       1.0  0.3449099966204869  0.2998977282182337  0.8975271522478678  1.0000
  C   C87       1.0  0.3363774435510294  0.4908838601627962  0.8363874665498796  1.0000
  C   C88       1.0  0.4135984175700784  0.25905773575502883  0.9136361834569584  1.0000
  C   C89       1.0  0.34174796718049555  0.36942351217357594  0.8752407206286674  1.0000
  C   C90       1.0  0.4083067454167447  0.3804879922164375  0.874748297829548  1.0000
  C   C91       1.0  0.9462590585268627  0.7961568536392676  0.8487436331107433  1.0000
  C   C92       1.0  0.8035999450385418  0.9538366088579406  0.901241038130081  1.0000
  C   C93       1.0  0.9908641786881772  0.836388977812767  0.8363851484685936  1.0000
  C   C94       1.0  0.7590167295480299  0.913600568457582  0.9136472101510905  1.0000
  C   C95       1.0  0.871771601452771  0.9111561455611009  0.877606619054724  1.0000
  C   C96       1.0  0.8780420363161597  0.8388021125925887  0.8723686003675651  1.0000
  S   S1        1.0  0.2994094151858775  0.32414422506986534  0.3967603518148194  1.0000
  S   S2        1.0  0.45043415134475145  0.4258153859157758  0.35327385046430476  1.0000
  S   S3        1.0  0.6591164603120775  0.6343082305806436  0.5618781179919096  1.0000
  S   S4        1.0  0.5909182909716009  0.6156907618185984  0.6881335227337144  1.0000
  S   S5        1.0  0.1343473311576062  0.15912019036084504  0.5618631426357084  1.0000
  S   S6        1.0  0.11568311376513662  0.09089403491733353  0.6881461171324189  1.0000
  S   S7        1.0  0.9743892422427223  0.8045942428823807  0.4018918235094802  1.0000
  S   S8        1.0  0.7756093368876621  0.9452511217417056  0.34811997950378526  1.0000
  S   S9        1.0  0.6156647160260035  0.5908911542972249  0.1881443356570145  1.0000
  S   S10       1.0  0.6343647580030023  0.6591234939994807  0.06186335697240253  1.0000
  S   S11       1.0  0.0132380974221604  0.18294315391484872  0.1104339565006711  1.0000
  S   S12       1.0  0.23670835285831518  0.06702018485582775  0.13954084825839888  1.0000
  S   S13       1.0  0.2756220154962818  0.4452734964236171  0.8481169671570825  1.0000
  S   S14       1.0  0.474407081991501  0.30461035198579367  0.901885641793278  1.0000
  S   S15       1.0  0.9504255251966784  0.9258213507270622  0.8532737495422821  1.0000
  S   S16       1.0  0.7994013458180548  0.8241499380490679  0.8967623113074621  1.0000
  O   O1        1.0  0.9999981092067857  0.4999935207859995  0.5000309516298032  1.0000
  O   O2        1.0  0.0771359161052132  0.3159662028389151  0.5227185865786979  1.0000
  O   O3        1.0  0.030882742656629603  0.5309041025498473  0.5851741939408086  1.0000
  O   O4        1.0  0.15705848399144173  0.5052431540828478  0.4501134556203467  1.0000
  O   O5        1.0  0.0259626325202831  0.37418653994916434  0.5811988283174541  1.0000
  O   O6        1.0  0.1531478905747008  0.3920997891165642  0.4465393751735646  1.0000
  O   O7        1.0  0.0851666100244799  0.5853484178660082  0.5308191440618018  1.0000
  O   O8        1.0  0.0044748053440386995  0.6568992271870044  0.4501527630064145  1.0000
  O   O9        1.0  0.8875721049987533  0.4961882200845832  0.44206864921587635  1.0000
  O   O10       1.0  0.8912156402455338  0.6533202001642596  0.4464748683380646  1.0000
  O   O11       1.0  0.9963299794687543  0.38749968118086314  0.4420394754698975  1.0000
  O   O12       1.0  0.8742037061549296  0.5259490526572109  0.5811979742231513  1.0000
  O   O13       1.0  0.8159323118297905  0.577164284548999  0.5227307408395844  1.0000
  O   O14       1.0  0.7500110250120429  0.25000311072827225  0.2500147829729045  1.0000
  O   O15       1.0  0.5967085289467348  0.3579812612758673  0.303475084381887  1.0000
  O   O16       1.0  0.664862660221246  0.1646745925164837  0.21915945903142384  1.0000
  O   O17       1.0  0.7240941613180069  0.3757994604473892  0.16885438910676956  1.0000
  O   O18       1.0  0.5928988603121751  0.24480509959758484  0.2998869903767059  1.0000
  O   O19       1.0  0.6729424414193517  0.43407812906513504  0.22731723683458677  1.0000
  O   O20       1.0  0.7192702231325043  0.21904592193610747  0.16480844882286758  1.0000
  O   O21       1.0  0.8760499487052016  0.22376970902177357  0.16927941666723711  1.0000
  O   O22       1.0  0.8623435080803077  0.2537301278667172  0.308042494897009  1.0000
  O   O23       1.0  0.9346562897871705  0.17250321911303965  0.227635237143339  1.0000
  O   O24       1.0  0.753625048726164  0.3624339783868748  0.3080417683929539  1.0000
  O   O25       1.0  0.7454881093148131  0.09302170720145851  0.29983704461941574  1.0000
  O   O26       1.0  0.8587595261402469  0.09653345849064733  0.3035201900253668  1.0000
  O   O27       1.0  0.24998582864610336  0.7500042715044585  0.7500064045840772  1.0000
  O   O28       1.0  0.3758154876101756  0.7240645076192322  0.6688368045910805  1.0000
  O   O29       1.0  0.362382186142618  0.7537508373016166  0.8080043747590506  1.0000
  O   O30       1.0  0.17294293365743843  0.9340483610678948  0.7273112257738743  1.0000
  O   O31       1.0  0.43409703478223355  0.6728848486967536  0.7273017390366261  1.0000
  O   O32       1.0  0.2240627503297078  0.875815238767096  0.6688319330274481  1.0000
  O   O33       1.0  0.2536396960151706  0.8624396852174387  0.8080306395898657  1.0000
  O   O34       1.0  0.09669017496405272  0.8579889091565815  0.8034616620666312  1.0000
  O   O35       1.0  0.16484937643584627  0.6646608272697919  0.7191642711252653  1.0000
  O   O36       1.0  0.09287309051998699  0.7448179156919607  0.799873813174159  1.0000
  O   O37       1.0  0.21917135370176774  0.719109860034351  0.66481052958828  1.0000
  O   O38       1.0  0.358724579417668  0.5965801375118789  0.803502224311856  1.0000
  O   O39       1.0  0.2454909711912876  0.5929869249973905  0.7998187601864613  1.0000
  O   O40       1.0  0.49998084270974635  0.9999982079309364  5.945807380616322e-06  1.0000
  O   O41       1.0  0.5044776438345976  0.15686427994060645  0.950133893317819  1.0000
  O   O42       1.0  0.3876108146445176  0.9962125956946366  0.9420238444040122  1.0000
  O   O43       1.0  0.653140466823885  0.8921022266065107  0.9465308542252869  1.0000
  O   O44       1.0  0.39119030510811825  0.15336235436655699  0.9464439354148979  1.0000
  O   O45       1.0  0.657030422601018  0.005257289469959388  0.9500976849734712  1.0000
  O   O46       1.0  0.4963383656145055  0.8875012697185485  0.9420303767231814  1.0000
  O   O47       1.0  0.5771159361936994  0.8159356167060138  0.022710131674756426  1.0000
  O   O48       1.0  0.5307808168219381  0.030974235863944023  0.08518118493856257  1.0000
  O   O49       1.0  0.5259374916241342  0.8742094590784291  0.08117133783259324  1.0000
  O   O50       1.0  0.5851497301633088  0.08533696427415549  0.03082605910670109  1.0000
  O   O51       1.0  0.315354480929301  0.07762148991284334  0.022372802151160397  1.0000
  O   O52       1.0  0.3739661295483856  0.026299049345425426  0.08072577590525751  1.0000
  O   O53       1.0  0.7825035776936531  0.5175805754387427  0.39996750314621454  1.0000
  O   O54       1.0  0.967512190633741  0.23252074589065336  0.34997036901283707  1.0000
  O   O55       1.0  0.7325427377819552  0.4676436607028122  0.35000109812942537  1.0000
  O   O56       1.0  0.01758909907024281  0.28235407409920305  0.3999702678297012  1.0000
  O   O57       1.0  0.1589088722552816  0.6588023408535264  0.5412209567473665  1.0000
  O   O58       1.0  0.09110725380377001  0.5912423472023605  0.7087238791598407  1.0000
  O   O59       1.0  0.20889289469594272  0.7087943990797997  0.5912748232935952  1.0000
  O   O60       1.0  0.0411719155523116  0.5412621566289957  0.6587055774111831  1.0000
  O   O61       1.0  0.7088339800605185  0.20883758460811902  0.09124327316883549  1.0000
  O   O62       1.0  0.5412449037752722  0.041215972039445554  0.15873758289392725  1.0000
  O   O63       1.0  0.6588566292689394  0.15882847831977617  0.04122224379996451  1.0000
  O   O64       1.0  0.5911798833374604  0.09119557921012951  0.20872308671192738  1.0000
  O   O65       1.0  0.23252883425538332  0.9676409841967911  0.8500086557510471  1.0000
  O   O66       1.0  0.5175787413074603  0.7823576169214659  0.8999751067017171  1.0000
  O   O67       1.0  0.28251157719028436  0.01757099182123769  0.899999296819125  1.0000
  O   O68       1.0  0.4675243360225423  0.7325110858804463  0.8500018678594473  1.0000
