data_image0
_chemical_formula_structural       Zr6H46C66N6O32
_chemical_formula_sum              "Zr6 H46 C66 N6 O32"
_cell_length_a       14.058124666829334
_cell_length_b       14.046892595415995
_cell_length_c       14.146693887172736
_cell_angle_alpha    85.92214299606111
_cell_angle_beta     88.05585240904391
_cell_angle_gamma    89.20965580095414

_space_group_name_H-M_alt    "P 1"
_space_group_IT_number       1

loop_
  _space_group_symop_operation_xyz
  'x, y, z'

loop_
  _atom_site_type_symbol
  _atom_site_label
  _atom_site_symmetry_multiplicity
  _atom_site_fract_x
  _atom_site_fract_y
  _atom_site_fract_z
  _atom_site_occupancy
  Zr  Zr1       1.0  0.8050908104028521  0.18565229053989188  0.04721194114537039  1.0000
  Zr  Zr2       1.0  0.008440390049187799  0.28511490717402677  0.14473376310616  1.0000
  Zr  Zr3       1.0  0.9239633136947987  0.9646494520666878  0.0400694685225034  1.0000
  Zr  Zr4       1.0  0.9026730150392267  0.07512948189462783  0.25816636056708825  1.0000
  Zr  Zr5       1.0  0.03277544596100059  0.1735404638680649  0.9307670663234049  1.0000
  Zr  Zr6       1.0  0.12629730849724297  0.06001854298655472  0.14226419899572562  1.0000
  H   H1        1.0  0.5561418698294529  0.8340458956430653  0.7953005147162671  1.0000
  H   H2        1.0  0.36931146485174776  0.8457439320790032  0.7825288260320988  1.0000
  H   H3        1.0  0.37552268897248803  0.4076054564329609  0.3877203071553836  1.0000
  H   H4        1.0  0.5634164285308003  0.3922551892783162  0.3969178778108571  1.0000
  H   H5        1.0  0.2595822873432354  0.7870089488471665  0.5123564523736448  1.0000
  H   H6        1.0  0.2482339693879254  0.8087049435183857  0.69687121040959  1.0000
  H   H7        1.0  0.6827654075031546  0.4562276418146072  0.6757043974068964  1.0000
  H   H8        1.0  0.6986987541279746  0.43437644419540794  0.4905104192480678  1.0000
  H   H9        1.0  0.27505765139154886  0.5701440991378136  0.8051838381030832  1.0000
  H   H10       1.0  0.2806010814065232  0.7541080289365639  0.8312085575918999  1.0000
  H   H11       1.0  0.6543022070195262  0.6823104615429899  0.3745649113623131  1.0000
  H   H12       1.0  0.6504965653031716  0.4973590589759527  0.3484129535418177  1.0000
  H   H13       1.0  0.8228639299320192  0.2616226098707202  0.2270241430198752  1.0000
  H   H14       1.0  0.8668363360115379  0.0915466389321864  0.882492081940711  1.0000
  H   H15       1.0  0.003029547447141598  0.9063956216720187  0.2083839684122779  1.0000
  H   H16       1.0  0.1819315789896478  0.2283605561586342  0.0490540356246996  1.0000
  H   H17       1.0  0.6657411731010255  0.7915676340205878  0.1146859875703541  1.0000
  H   H18       1.0  0.691467189577473  0.833156118745521  0.32357296422886606  1.0000
  H   H19       1.0  0.6035435113029806  0.4285947241839239  0.1015410079747525  1.0000
  H   H20       1.0  0.7707262073118953  0.5127165079413416  0.2041910502817146  1.0000
  H   H21       1.0  0.32883686218848845  0.8144452036943408  0.08450353719923238  1.0000
  H   H22       1.0  0.16538772768888066  0.7536022113369186  0.961529187015401  1.0000
  H   H23       1.0  0.22918997559258972  0.4259130686246523  0.8573290198608774  1.0000
  H   H24       1.0  0.2650886578560119  0.4615544188038855  0.0661153091666549  1.0000
  H   H25       1.0  0.5132314422519784  0.7229482401946402  0.057575273715769995  1.0000
  H   H26       1.0  0.41955751961347687  0.5286147957697268  0.12105697944969049  1.0000
  H   H27       1.0  0.9545231204656089  0.44787940718961033  0.7381019945684103  1.0000
  H   H28       1.0  0.7486194961544399  0.3988327084616826  0.8054088036495912  1.0000
  H   H29       1.0  0.9498939908678921  0.47301281759818903  0.3790829899094064  1.0000
  H   H30       1.0  0.8351217223136159  0.30686619300588813  0.4801549935140415  1.0000
  H   H31       1.0  0.12277118252026041  0.9362268359282739  0.723683462950781  1.0000
  H   H32       1.0  0.990443478234539  0.7749826826169725  0.8066532495272583  1.0000
  H   H33       1.0  0.9848127572730689  0.7977863353477589  0.4517994033416173  1.0000
  H   H34       1.0  0.1889379860627187  0.868582188798314  0.4027136327043479  1.0000
  H   H35       1.0  0.9247450716855071  0.6728333500742352  0.6819403347735076  1.0000
  H   H36       1.0  0.017817407416053796  0.5752198839571039  0.5107445476392414  1.0000
  H   H37       1.0  0.24300086625648018  0.34486554087335014  0.33965987347944093  1.0000
  H   H38       1.0  0.2994654980103134  0.1370254111886879  0.40015049033985417  1.0000
  H   H39       1.0  0.6574537621105063  0.1376268689830837  0.4536997135504777  1.0000
  H   H40       1.0  0.5728399246034713  0.25341137887513554  0.281496048227261  1.0000
  H   H41       1.0  0.3416899405892337  0.9699299069960007  0.9025375732200159  1.0000
  H   H42       1.0  0.2796931249662933  0.10907286385796058  0.7360371399675003  1.0000
  H   H43       1.0  0.6303580620350359  0.10724799115203613  0.7901197201679793  1.0000
  H   H44       1.0  0.6713996107982254  0.8994633427418464  0.864985451392343  1.0000
  H   H45       1.0  0.5524092671994082  0.1632072015535613  0.6411018678553332  1.0000
  H   H46       1.0  0.3767070655421989  0.08066411366584701  0.5489303412039916  1.0000
  C   C1        1.0  0.5540592323549163  0.985959466038331  0.7421253090777143  1.0000
  C   C2        1.0  0.5174713386778294  0.894546320149047  0.7627975052070468  1.0000
  C   C3        1.0  0.41828760329048004  0.9003752306026414  0.7549955610486521  1.0000
  C   C4        1.0  0.3926871906573055  0.9939776634460177  0.7265958447680774  1.0000
  C   C5        1.0  0.37542685594012676  0.2580326088020612  0.44801534118834496  1.0000
  C   C6        1.0  0.413803729320783  0.3479264921859624  0.42225703791899594  1.0000
  C   C7        1.0  0.5131461647213199  0.34017008763877504  0.427719780280718  1.0000
  C   C8        1.0  0.5370923699821404  0.24703548115321897  0.4597395976299907  1.0000
  C   C9        1.0  0.1088418176711627  0.7443109655157797  0.529856571096076  1.0000
  C   C10       1.0  0.19985562009831884  0.7654655859310325  0.5592401134891672  1.0000
  C   C11       1.0  0.1935447038122362  0.7778738439214268  0.6567332848617512  1.0000
  C   C12       1.0  0.10045198638283641  0.7597681457849604  0.689701913652037  1.0000
  C   C13       1.0  0.8320145283007675  0.5039942749601565  0.6607736122259382  1.0000
  C   C14       1.0  0.7424494930353092  0.479707643926858  0.6296290624570418  1.0000
  C   C15       1.0  0.7512019135215624  0.46669049385283773  0.5323110906994586  1.0000
  C   C16       1.0  0.844505397604621  0.4865223139244962  0.501404573793593  1.0000
  C   C17       1.0  0.3297760729730824  0.5508445763864601  0.949992408556497  1.0000
  C   C18       1.0  0.3082054126056093  0.6007816304047251  0.8639902687223113  1.0000
  C   C19       1.0  0.31250572796640336  0.6983347651917529  0.8769303556836974  1.0000
  C   C20       1.0  0.3405038487115774  0.7105111289188032  0.9689085180007879  1.0000
  C   C21       1.0  0.6005857443776604  0.7011108729466712  0.22956441569260022  1.0000
  C   C22       1.0  0.6222484748760592  0.6511571342376641  0.3154157316581773  1.0000
  C   C23       1.0  0.6195360303489892  0.5533546861132875  0.3020381667309593  1.0000
  C   C24       1.0  0.5925315861006907  0.5412698711197876  0.2097238119225864  1.0000
  C   C25       1.0  0.7235122891820253  0.011590424945744405  0.9422543163831206  1.0000
  C   C26       1.0  0.8004930740964582  0.3965841243881343  0.1137703292328709  1.0000
  C   C27       1.0  0.6912441183986359  0.1559433697728991  0.2577689550941429  1.0000
  C   C28       1.0  0.8589247781069389  0.3031239953109193  0.8511059493043618  1.0000
  C   C29       1.0  0.19938391266223474  0.2344604154886269  0.2551653135150929  1.0000
  C   C30       1.0  0.133726215081424  0.8564574048354885  0.06449512507996498  1.0000
  C   C31       1.0  0.9278588628378514  0.2806762833732251  0.357794719947492  1.0000
  C   C32       1.0  0.1305550336851198  0.37235975681417705  0.9665147328740885  1.0000
  C   C33       1.0  0.017504316961513704  0.9651678268480098  0.8342431088535349  1.0000
  C   C34       1.0  0.7944949792306347  0.8839267349737554  0.21698261691098256  1.0000
  C   C35       1.0  0.07579042657159359  0.954270628766679  0.3472693265189264  1.0000
  C   C36       1.0  0.23665292626708376  0.0799791262984755  0.9293277486131473  1.0000
  C   C37       1.0  0.6525086422532522  0.7838978289800949  0.19152190536170371  1.0000
  C   C38       1.0  0.7058682102126141  0.8354372948249421  0.2471979835621596  1.0000
  C   C39       1.0  0.6396787062642844  0.4705134183371414  0.15135220650575576  1.0000
  C   C40       1.0  0.7355678237826524  0.46488669631328616  0.15934634397368092  1.0000
  C   C41       1.0  0.2942530398208376  0.7809499025514628  0.027616994758247415  1.0000
  C   C42       1.0  0.1998395805779651  0.7941017248277975  0.013371632666036202  1.0000
  C   C43       1.0  0.2176406235164734  0.42217641412241846  0.9341325894938279  1.0000
  C   C44       1.0  0.2753192926357357  0.4702238987828053  0.9889744366829235  1.0000
  C   C45       1.0  0.5036067243504974  0.6540016922172285  0.09719828195161992  1.0000
  C   C46       1.0  0.42928754136376307  0.597462425671303  0.081306812645181  1.0000
  C   C47       1.0  0.8767781618877349  0.4526954015086845  0.7405965019131813  1.0000
  C   C48       1.0  0.8259857991853462  0.3919007134959571  0.8011838486550502  1.0000
  C   C49       1.0  0.8967007447915236  0.43829438673513726  0.4275300950914769  1.0000
  C   C50       1.0  0.8822739528830965  0.3429282904080893  0.4267128192479319  1.0000
  C   C51       1.0  0.0691198354557514  0.9012785750935421  0.7710428989481883  1.0000
  C   C52       1.0  0.0494661579906008  0.8076340168674392  0.7643308893225154  1.0000
  C   C53       1.0  0.062451333470278286  0.7996565280763832  0.45322849421204836  1.0000
  C   C54       1.0  0.11144505056062572  0.8688188541285128  0.40102282275928763  1.0000
  C   C55       1.0  0.9753186564023862  0.6614929060425185  0.6235827842048424  1.0000
  C   C56       1.0  0.9669153908873651  0.586519337652007  0.5688818083970872  1.0000
  C   C57       1.0  0.24583692830387346  0.26739957412353027  0.3377801256139321  1.0000
  C   C58       1.0  0.2995830736706607  0.2148737865880648  0.4004588959329212  1.0000
  C   C59       1.0  0.614223361596558  0.19184160972730524  0.4154087974414368  1.0000
  C   C60       1.0  0.6216783297180369  0.20458599635762206  0.3194158036978507  1.0000
  C   C61       1.0  0.3001386385643983  0.026462318932530603  0.8660368932916285  1.0000
  C   C62       1.0  0.3150141071495368  0.04733298658053541  0.7715355158078268  1.0000
  C   C63       1.0  0.6267101265696836  0.029367428629058202  0.7938835866285031  1.0000
  C   C64       1.0  0.67333900159759  0.9771873749677342  0.8625806034501053  1.0000
  C   C65       1.0  0.4917400311954835  0.11701837577129483  0.6336190221991204  1.0000
  C   C66       1.0  0.4374932606877735  0.1267730966056391  0.556170017555317  1.0000
  N   N1        1.0  0.4784857732756932  0.04329516381574191  0.7051834181604023  1.0000
  N   N2        1.0  0.4507639088188709  0.2003207150191599  0.48441638914441393  1.0000
  N   N3        1.0  0.051994328639189284  0.7250164634369228  0.613681246394222  1.0000
  N   N4        1.0  0.8903574785061038  0.5229168124107347  0.5780583931882504  1.0000
  N   N5        1.0  0.3636521611250885  0.6190117134992621  0.009683120647942196  1.0000
  N   N6        1.0  0.569070699027904  0.6326674700603547  0.1690090777200695  1.0000
  O   O1        1.0  0.7820050772388355  0.9503982018617592  0.9798230766267935  1.0000
  O   O2        1.0  0.8895402478896202  0.4035665435956517  0.1267916517431615  1.0000
  O   O3        1.0  0.684706934657669  0.17116280651872273  0.1681274188332651  1.0000
  O   O4        1.0  0.7951697845042817  0.26206041694873505  0.9066362966852424  1.0000
  O   O5        1.0  0.9414323560329478  0.2670235660696463  0.8335044705297889  1.0000
  O   O6        1.0  0.7557761690620453  0.10540488135660551  0.2999377098878496  1.0000
  O   O7        1.0  0.7612824558321307  0.3321086632245809  0.0693314185413172  1.0000
  O   O8        1.0  0.7069789314794762  0.09505975643495652  0.9712074160493599  1.0000
  O   O9        1.0  0.9448042024687808  0.23611363081204229  0.029640157388776314  1.0000
  O   O10       1.0  0.8555767443123302  0.0648772152491759  0.11992570486637529  1.0000
  O   O11       1.0  0.8636049357383442  0.22217225438057409  0.18892681614339327  1.0000
  O   O12       1.0  0.8930555740152  0.09917395185969721  0.9440253067794869  1.0000
  O   O13       1.0  0.14449257490164058  0.297428234983144  0.2143755199767554  1.0000
  O   O14       1.0  0.0453345015110358  0.8493392865130502  0.04805348881378532  1.0000
  O   O15       1.0  0.913449422137873  0.19096712940847746  0.3695009145347398  1.0000
  O   O16       1.0  0.09787408894838727  0.31650677888099926  0.9079417084830937  1.0000
  O   O17       1.0  0.0345828934619661  0.054378524271705  0.8219552558147001  1.0000
  O   O18       1.0  0.8281150081254296  0.9371211354355894  0.27750138844674416  1.0000
  O   O19       1.0  0.1375474835473298  0.9935606102989708  0.2885481591484904  1.0000
  O   O20       1.0  0.24368330200208985  0.061288017513028606  0.018542500964848302  1.0000
  O   O21       1.0  0.9912007168458175  0.9872330497289143  0.36176434172838173  1.0000
  O   O22       1.0  0.17977982276794785  0.14176392798120932  0.8900233889101514  1.0000
  O   O23       1.0  0.975515182977098  0.3232721869609706  0.28886002444039593  1.0000
  O   O24       1.0  0.8364560852550724  0.8667176305783498  0.13775041790609782  1.0000
  O   O25       1.0  0.9588760496515788  0.9261268074954645  0.8962435812728913  1.0000
  O   O26       1.0  0.09081934050390568  0.3873624504309278  0.0475129945211989  1.0000
  O   O27       1.0  0.2186558256168638  0.15239747687436994  0.2243993984468773  1.0000
  O   O28       1.0  0.1693949941976456  0.9131609500293721  0.12045525057435917  1.0000
  O   O29       1.0  0.044370429581754  0.0502267236685938  0.0223924788456387  1.0000
  O   O30       1.0  0.022294153714987896  0.1438092922638745  0.20271869636988532  1.0000
  O   O31       1.0  0.9940276703317892  0.9701498823492191  0.17869084095701027  1.0000
  O   O32       1.0  0.11904456442191248  0.20140553383484425  0.060422195654489  1.0000
