data_image0
_chemical_formula_structural       Na2P2H40C28N4O4
_chemical_formula_sum              "Na2 P2 H40 C28 N4 O4"
_cell_length_a       8.300477742020123
_cell_length_b       8.669092542397523
_cell_length_c       12.420036915945044
_cell_angle_alpha    95.18162937544798
_cell_angle_beta     90.01429550658234
_cell_angle_gamma    118.58205632787052

_space_group_name_H-M_alt    "P 1"
_space_group_IT_number       1

loop_
  _space_group_symop_operation_xyz
  'x, y, z'

loop_
  _atom_site_type_symbol
  _atom_site_label
  _atom_site_symmetry_multiplicity
  _atom_site_fract_x
  _atom_site_fract_y
  _atom_site_fract_z
  _atom_site_occupancy
  Na  Na1       1.0  0.1856967965524348  0.7351239779373699  0.8242300303090817  1.0000
  Na  Na2       1.0  0.5496281610196475  0.7353829454513133  0.32421711928553526  1.0000
  P   P1        1.0  0.3120802524040657  0.7542162717612018  0.5501710033797879  1.0000
  P   P2        1.0  0.4415778787811462  0.7537082294738227  0.05029468055143842  1.0000
  H   H1        1.0  0.30692762318606986  0.07584820728836661  0.5154513303301942  1.0000
  H   H2        1.0  0.7687572364813063  0.07532421964246083  0.015801532017015108  1.0000
  H   H3        1.0  0.3811184209581029  0.31854137900110413  0.39745765376360975  1.0000
  H   H4        1.0  0.9367944613094605  0.3180631088098878  0.8977748842454434  1.0000
  H   H5        1.0  0.1779198683850822  0.3568856986620332  0.7760679464055686  1.0000
  H   H6        1.0  0.17898497793391502  0.3565243613091554  0.27627003121381233  1.0000
  H   H7        1.0  0.20640102492839668  0.0951793734021606  0.700943406428735  1.0000
  H   H8        1.0  0.8890233268611921  0.094687883101642  0.20124923936591446  1.0000
  H   H9        1.0  0.5093411253188052  0.17798558233248232  0.7576282371398338  1.0000
  H   H10       1.0  0.6692696890454639  0.17854327249430213  0.2576030363137605  1.0000
  H   H11       1.0  0.6157903828461001  0.11899055249956093  0.8602452839684392  1.0000
  H   H12       1.0  0.5034382521387997  0.11956044532757203  0.35995083973955394  1.0000
  H   H13       1.0  0.9362024461291725  0.914463001065549  0.8933286810933512  1.0000
  H   H14       1.0  0.9786315278297689  0.914709323656453  0.39330233383987695  1.0000
  H   H15       1.0  0.722676501635199  0.7272651364505337  0.9158671365360579  1.0000
  H   H16       1.0  0.00484484225976448  0.7272687781264865  0.415599567814887  1.0000
  H   H17       1.0  0.5615153239118768  0.22594813654390583  0.06696111274333562  1.0000
  H   H18       1.0  0.664216331639899  0.22613788260877501  0.5669070871096127  1.0000
  H   H19       1.0  0.4492779207008796  0.35809267641691633  0.07366658539104523  1.0000
  H   H20       1.0  0.9085300053692649  0.35809534791494013  0.5738387688506565  1.0000
  H   H21       1.0  0.24814492481996817  0.995863931324898  0.031578980489840106  1.0000
  H   H22       1.0  0.7475217116584858  0.9959038136695569  0.5316283185813051  1.0000
  H   H23       1.0  0.18754245476114306  0.13720394507666364  0.9649392407395186  1.0000
  H   H24       1.0  0.9495155989037727  0.13725961865111466  0.4651130192078981  1.0000
  H   H25       1.0  0.7126203704549849  0.4256509322929034  0.9260921397098161  1.0000
  H   H26       1.0  0.7131607267397228  0.4260451441850819  0.4260702368281458  1.0000
  H   H27       1.0  0.49927292982152943  0.4068513717422988  0.8816041091801454  1.0000
  H   H28       1.0  0.907734086458795  0.4071532888639454  0.3818153646625363  1.0000
  H   H29       1.0  0.6618494544679264  0.4952097812719104  0.7012826623818286  1.0000
  H   H30       1.0  0.8337131822957388  0.4955355002730642  0.20123895790018767  1.0000
  H   H31       1.0  0.8847499912527468  0.5823855599426367  0.6456909398586819  1.0000
  H   H32       1.0  0.697973539480273  0.5826619832390918  0.14549202239990686  1.0000
  H   H33       1.0  0.5714053432448409  0.7714826475495473  0.7724050568974337  1.0000
  H   H34       1.0  0.20046413002493327  0.7719095738294683  0.2722825416151836  1.0000
  H   H35       1.0  0.7679898272413864  0.9805210553500529  0.7659148511222328  1.0000
  H   H36       1.0  0.2126188763503691  0.9808720983668239  0.2657465339779535  1.0000
  H   H37       1.0  0.8961223392337986  0.8641211545697448  0.6279290644292674  1.0000
  H   H38       1.0  0.9682297998754165  0.8643686946251848  0.12768950383783562  1.0000
  H   H39       1.0  0.6583149662717531  0.7176864577816957  0.5947270115092851  1.0000
  H   H40       1.0  0.05959530259163867  0.717828984055025  0.09461207154784293  1.0000
  C   C1        1.0  0.2947611742635273  0.19198125229408455  0.545041011287694  1.0000
  C   C2        1.0  0.8970297414341744  0.19147183960210873  0.04533721678451031  1.0000
  C   C3        1.0  0.3361771581835455  0.3263768802546919  0.479403050753831  1.0000
  C   C4        1.0  0.9897822360221225  0.3258547037695649  0.979680344038805  1.0000
  C   C5        1.0  0.31926588737577777  0.475092319953049  0.5197788919233306  1.0000
  C   C6        1.0  0.1553512657107987  0.47462237537831  0.02000456618419121  1.0000
  C   C7        1.0  0.2195953022249953  0.3476216428322162  0.6934132402646683  1.0000
  C   C8        1.0  0.12791254760481513  0.34720448417842686  0.19363339727445356  1.0000
  C   C9        1.0  0.2595180206999288  0.48545311544804554  0.6280582558573402  1.0000
  C   C10       1.0  0.22561021490621158  0.48504793271820296  0.12826559352181022  1.0000
  C   C11       1.0  0.2366121165322497  0.20241057805176152  0.6511142264673213  1.0000
  C   C12       1.0  0.9657787570478717  0.201936026576476  0.15139537099909722  1.0000
  C   C13       1.0  0.5174389955190719  0.16704763680846213  0.8447056809030261  1.0000
  C   C14       1.0  0.6498530140796744  0.16745256130909067  0.3446384526816504  1.0000
  C   C15       1.0  0.8176533878907578  0.7965667876701662  0.853457816615283  1.0000
  C   C16       1.0  0.9792284249581088  0.7968344495110459  0.35330046776937973  1.0000
  C   C17       1.0  0.4749809596759249  0.26432634303129293  0.021286109779772706  1.0000
  C   C18       1.0  0.7891812193793797  0.2644545301883526  0.5213550596377774  1.0000
  C   C19       1.0  0.2969677546116073  0.1026932163187766  0.9786907515021357  1.0000
  C   C20       1.0  0.8055921172374239  0.10278848252193029  0.4787759472628111  1.0000
  C   C21       1.0  0.5642214418850671  0.33639771352059705  0.9162428973395936  1.0000
  C   C22       1.0  0.7722663646867218  0.33670681052411316  0.4163009145927108  1.0000
  C   C23       1.0  0.7945742752389503  0.6155347928366692  0.6956072782673888  1.0000
  C   C24       1.0  0.8212792318017534  0.6158684775481404  0.19545368840513086  1.0000
  C   C25       1.0  0.7206110308459229  0.8383910515994587  0.7639058544027864  1.0000
  C   C26       1.0  0.11803840701041686  0.8387309015008101  0.2637448592566828  1.0000
  C   C27       1.0  0.7674903119147274  0.764185816424515  0.658475085663902  1.0000
  C   C28       1.0  0.9969427554356968  0.7644305592012728  0.15830251202177695  1.0000
  N   N1        1.0  0.24815903566655356  0.6368938728419523  0.6554503286339755  1.0000
  N   N2        1.0  0.3883209780865542  0.6365084758065009  0.15562618963711125  1.0000
  N   N3        1.0  0.3551924948310657  0.6194223196109834  0.4666463040506558  1.0000
  N   N4        1.0  0.26358933752128877  0.6189280796211064  0.9668371113850613  1.0000
  O   O1        1.0  0.3368005793369946  0.037820357208652  0.874917903484999  1.0000
  O   O2        1.0  0.7009936649785259  0.03802926803106029  0.37496108520849714  1.0000
  O   O3        1.0  0.8864208173325495  0.6839382864778473  0.8016996096032831  1.0000
  O   O4        1.0  0.797872025571138  0.6844211484877719  0.3015057338085044  1.0000
