data_image0
_chemical_formula_structural       Er4Cu6H60C48N12O48
_chemical_formula_sum              "Er4 Cu6 H60 C48 N12 O48"
_cell_length_a       13.388814184266671
_cell_length_b       13.388725343863578
_cell_length_c       14.250063250859641
_cell_angle_alpha    90.00099138439356
_cell_angle_beta     89.99883989596118
_cell_angle_gamma    120.0007213917767

_space_group_name_H-M_alt    "P 1"
_space_group_IT_number       1

loop_
  _space_group_symop_operation_xyz
  'x, y, z'

loop_
  _atom_site_type_symbol
  _atom_site_label
  _atom_site_symmetry_multiplicity
  _atom_site_fract_x
  _atom_site_fract_y
  _atom_site_fract_z
  _atom_site_occupancy
  Er  Er1       1.0  0.6666641038208496  0.3333357967258123  0.6683246398196445  1.0000
  Er  Er2       1.0  0.3333190786596207  0.6666563530309517  0.8316799455190491  1.0000
  Er  Er3       1.0  0.33331929216605993  0.6666636762923873  0.33167234034685567  1.0000
  Er  Er4       1.0  0.6666675441089892  0.3333204735753624  0.16831282392606534  1.0000
  Cu  Cu1       1.0  0.5000056311819563  0.5000119449012388  0.4999998935524984  1.0000
  Cu  Cu2       1.0  0.4999907719837396  0.9999948763475075  0.5000109554359824  1.0000
  Cu  Cu3       1.0  0.9999924785838701  0.4999790652347614  0.49999796184081896  1.0000
  Cu  Cu4       1.0  0.9999986016988134  0.5000117135788855  0.9999950410072032  1.0000
  Cu  Cu5       1.0  0.5000045920315941  6.005150588307764e-06  0.9999866123451822  1.0000
  Cu  Cu6       1.0  0.5000057142540939  0.49998205314954447  1.2638867381999997e-05  1.0000
  H   H1        1.0  0.3236984729734828  0.3598942518296722  0.4163369427663497  1.0000
  H   H2        1.0  0.6401134845879284  0.9638027736392587  0.41634514467159517  1.0000
  H   H3        1.0  0.03620828109767183  0.676295081212544  0.41634643714470326  1.0000
  H   H4        1.0  0.9637980184697882  0.6401164769243975  0.0836686547411176  1.0000
  H   H5        1.0  0.676323616881035  0.036215610158990226  0.08365245935928557  1.0000
  H   H6        1.0  0.3598757763339293  0.3236741866525392  0.08366129231612258  1.0000
  H   H7        1.0  0.6763000075494433  0.6401125437143804  0.5836502127986236  1.0000
  H   H8        1.0  0.3598818389156122  0.03619224075046647  0.5836616598636012  1.0000
  H   H9        1.0  0.9638073323196181  0.3236960749528776  0.5836638759233492  1.0000
  H   H10       1.0  0.03620215583772793  0.3598946000085377  0.9163395533805738  1.0000
  H   H11       1.0  0.32369822581544133  0.9637947115791192  0.9163346960128107  1.0000
  H   H12       1.0  0.6401055024757057  0.6762990210450893  0.9163462139270564  1.0000
  H   H13       1.0  0.3044270627647805  0.16830920758225434  0.47447987904797617  1.0000
  H   H14       1.0  0.8316956116828891  0.1361378703919981  0.4744809375803455  1.0000
  H   H15       1.0  0.863884029264348  0.6955686493215083  0.47446971908578917  1.0000
  H   H16       1.0  0.13613405153217445  0.8317070757065398  0.0255295345311808  1.0000
  H   H17       1.0  0.6955690254059237  0.8638738446028568  0.025516071854752895  1.0000
  H   H18       1.0  0.1683018247168065  0.30443018514677084  0.025520052409859797  1.0000
  H   H19       1.0  0.6955702932085474  0.831707675359695  0.5255262238935714  1.0000
  H   H20       1.0  0.16829014050804178  0.8638622340108032  0.5255195513252815  1.0000
  H   H21       1.0  0.13613936897129977  0.30443115393793363  0.5255258572017354  1.0000
  H   H22       1.0  0.8638663537246388  0.16830078260154838  0.9744920068364351  1.0000
  H   H23       1.0  0.3044339983127031  0.13612542004777592  0.9744731888600597  1.0000
  H   H24       1.0  0.8317018921102389  0.695559423467401  0.9744776292355366  1.0000
  H   H25       1.0  0.28785837818143983  0.26043205561411037  0.5554853339634747  1.0000
  H   H26       1.0  0.7395823003316268  0.027453481803107072  0.5554917999283902  1.0000
  H   H27       1.0  0.9725668611607147  0.7121420392411224  0.555492323158461  1.0000
  H   H28       1.0  0.02744814086152324  0.7395943831757777  0.9445278456904518  1.0000
  H   H29       1.0  0.7121399264852217  0.9725577708327721  0.9444958728428359  1.0000
  H   H30       1.0  0.2604172497886666  0.28787382708699744  0.9445072471820167  1.0000
  H   H31       1.0  0.7121414186975984  0.7395898554843896  0.4445151549854386  1.0000
  H   H32       1.0  0.2604134462577367  0.9725635167090164  0.44452061879078286  1.0000
  H   H33       1.0  0.02743059551286821  0.287834409947699  0.4445250074754128  1.0000
  H   H34       1.0  0.9725537273811256  0.260420975052483  0.05548316945490229  1.0000
  H   H35       1.0  0.28786180368570047  0.02744278741998573  0.05548145812308999  1.0000
  H   H36       1.0  0.7395809996402251  0.7121361871718574  0.05548411891881239  1.0000
  H   H37       1.0  0.39597898954753674  0.3102833026437111  0.29346271763687065  1.0000
  H   H38       1.0  0.6897178261035961  0.0856833086220091  0.2934714503736799  1.0000
  H   H39       1.0  0.91432851380187  0.6040277044443557  0.2934721109527416  1.0000
  H   H40       1.0  0.0856934269270369  0.6897294395645447  0.2065427975392709  1.0000
  H   H41       1.0  0.6040564763786238  0.9143310196523944  0.2065305789107867  1.0000
  H   H42       1.0  0.3102637082156294  0.3959536846662389  0.20654250348592026  1.0000
  H   H43       1.0  0.6040368469674037  0.6897270500676386  0.706532858807641  1.0000
  H   H44       1.0  0.310271953400694  0.914305299314947  0.70653605591351  1.0000
  H   H45       1.0  0.08569979691682057  0.3959761491068009  0.7065403073514958  1.0000
  H   H46       1.0  0.9143122685597405  0.31027163467177127  0.7934647086979112  1.0000
  H   H47       1.0  0.3959649578761386  0.08569614248498424  0.7934621906115636  1.0000
  H   H48       1.0  0.689726417912354  0.6040300952093105  0.7934607922513022  1.0000
  H   H49       1.0  0.46286030403024375  0.25799245546488697  0.3684515034146471  1.0000
  H   H50       1.0  0.7420058174677637  0.20486498032883557  0.3684519369327219  1.0000
  H   H51       1.0  0.7951425523003055  0.5371378951194075  0.3684548227670348  1.0000
  H   H52       1.0  0.2048620743632271  0.741995678221798  0.131555757095235  1.0000
  H   H53       1.0  0.5371656412260465  0.7951518335710049  0.1315488272626624  1.0000
  H   H54       1.0  0.2579905165483894  0.4628492695944716  0.13155860965752447  1.0000
  H   H55       1.0  0.5371438975964223  0.7420071249985937  0.6315630203373246  1.0000
  H   H56       1.0  0.257984446975108  0.7951335993710772  0.6315555694305244  1.0000
  H   H57       1.0  0.20486828687356262  0.46286401062545224  0.6315519816768569  1.0000
  H   H58       1.0  0.7951353515634666  0.2579867770351996  0.8684426263031921  1.0000
  H   H59       1.0  0.4628741888223119  0.2048644015926229  0.8684481525045908  1.0000
  H   H60       1.0  0.7419922561387294  0.537125431865192  0.8684397738170516  1.0000
  C   C1        1.0  0.4459279276183423  0.260794427291664  0.5699237747525814  1.0000
  C   C2        1.0  0.7391997766646909  0.1851526554781984  0.5699210852759576  1.0000
  C   C3        1.0  0.8148556310391798  0.554067217954902  0.569923352326519  1.0000
  C   C4        1.0  0.18513900965418656  0.7392077000750064  0.9300843069417439  1.0000
  C   C5        1.0  0.554055186170686  0.8148550609711052  0.9300793173051858  1.0000
  C   C6        1.0  0.2608048717207226  0.44595466669444056  0.9300987615803534  1.0000
  C   C7        1.0  0.5540750033443018  0.7392228558837458  0.43007110011902927  1.0000
  C   C8        1.0  0.2607922046954129  0.8148666145656591  0.430069579207874  1.0000
  C   C9        1.0  0.18513346351519294  0.44590863065702285  0.43006661008217145  1.0000
  C   C10       1.0  0.8148658153359704  0.2608166519074259  0.0699210942381612  1.0000
  C   C11       1.0  0.4459436718154635  0.18514090038578254  0.0699113469249326  1.0000
  C   C12       1.0  0.7392033491360834  0.5540558326179124  0.0699227797345543  1.0000
  C   C13       1.0  0.3491790923363141  0.25385004765301034  0.5082364882408044  1.0000
  C   C14       1.0  0.7461575905886306  0.09534495076802323  0.5082398649250308  1.0000
  C   C15       1.0  0.9046718570511418  0.6508230577241605  0.5082386452695501  1.0000
  C   C16       1.0  0.09534308737333669  0.7461665808211109  0.9917733614836377  1.0000
  C   C17       1.0  0.6508255209333812  0.9046667711627167  0.991753940631021  1.0000
  C   C18       1.0  0.25384062916213423  0.3491837845586758  0.991766543035659  1.0000
  C   C19       1.0  0.6508231763053304  0.746170885465496  0.49176400067678117  1.0000
  C   C20       1.0  0.2538317805492198  0.9046604975214193  0.49176413274588526  1.0000
  C   C21       1.0  0.09533691879024542  0.3491629856086078  0.4917639485579599  1.0000
  C   C22       1.0  0.904660936963559  0.2538466212908546  0.008235548370024  1.0000
  C   C23       1.0  0.349182415459353  0.09533654366088481  0.0082290043085607  1.0000
  C   C24       1.0  0.7461604694289009  0.6508144175726046  0.008236050962963799  1.0000
  C   C25       1.0  0.4488052200157212  0.3312521474353999  0.3573371908109806  1.0000
  C   C26       1.0  0.6687472478500283  0.1175438801541802  0.3573417987726869  1.0000
  C   C27       1.0  0.8824605620680044  0.5511980388684774  0.35734328109337093  1.0000
  C   C28       1.0  0.11753931649106876  0.6687433649852537  0.1426703287804187  1.0000
  C   C29       1.0  0.5512232246905455  0.8824703188231242  0.1426602282095004  1.0000
  C   C30       1.0  0.331246075592297  0.4487851398792273  0.1426707347728211  1.0000
  C   C31       1.0  0.5512066817912994  0.6687516833105817  0.6426639996282403  1.0000
  C   C32       1.0  0.3312423852387667  0.8824523432839158  0.6426636023236723  1.0000
  C   C33       1.0  0.11754775163162635  0.4487944418651182  0.6426621197956804  1.0000
  C   C34       1.0  0.8824545441308517  0.3312441494195327  0.8573343704541615  1.0000
  C   C35       1.0  0.44879453687671866  0.11754109645435307  0.857331137717743  1.0000
  C   C36       1.0  0.6687443662272018  0.5511998181182279  0.8573318592196698  1.0000
  C   C37       1.0  0.565737400017639  0.4367909132300696  0.3380528113704173  1.0000
  C   C38       1.0  0.5632043865628233  0.12892106559809943  0.3380517486007832  1.0000
  C   C39       1.0  0.8710648293577068  0.43426627517021643  0.3380590200816797  1.0000
  C   C40       1.0  0.1289161052485213  0.5631962406499156  0.1619570009062699  1.0000
  C   C41       1.0  0.4342931317052178  0.8710756892745765  0.1619537901526087  1.0000
  C   C42       1.0  0.4367964386867343  0.5657057531649344  0.16195971738684278  1.0000
  C   C43       1.0  0.43428364188082486  0.563208258727535  0.661955396457209  1.0000
  C   C44       1.0  0.4367804803715742  0.8710634921011217  0.6619494419387593  1.0000
  C   C45       1.0  0.1289296626240884  0.5657235954927842  0.6619470826685114  1.0000
  C   C46       1.0  0.8710707175719393  0.43678337349328433  0.8380484000823714  1.0000
  C   C47       1.0  0.565710385052597  0.12891113181350275  0.838033365203074  1.0000
  C   C48       1.0  0.5631934564224751  0.43428124537863516  0.8380386661197079  1.0000
  N   N1        1.0  0.39030236264598267  0.34711904664086995  0.43889470457914104  1.0000
  N   N2        1.0  0.6528907873464859  0.043185795267589824  0.4388981785684223  1.0000
  N   N3        1.0  0.9568205022913574  0.6096982948026834  0.4388991787994455  1.0000
  N   N4        1.0  0.04318244342339035  0.6528989289334818  0.0611147760769484  1.0000
  N   N5        1.0  0.6097219374058441  0.95683102835428  0.06109853204902999  1.0000
  N   N6        1.0  0.34710018675526305  0.39027965502535267  0.061110473295911995  1.0000
  N   N7        1.0  0.6097036714391494  0.6528996148127604  0.5611015737767531  1.0000
  N   N8        1.0  0.3470930706721804  0.9568072404181508  0.5611093278106907  1.0000
  N   N9        1.0  0.043192785836716076  0.3902862238056032  0.5611062219780577  1.0000
  N   N10       1.0  0.9568157212748571  0.3471066885714221  0.9388892215119994  1.0000
  N   N11       1.0  0.39029280570589725  0.04318340543851209  0.938886518169795  1.0000
  N   N12       1.0  0.6528945672064239  0.6097009907683032  0.9388935241233651  1.0000
  O   O1        1.0  0.545430913216471  0.35164405454580827  0.5630639479306936  1.0000
  O   O2        1.0  0.6483401623180356  0.1937834393632229  0.5630602922488206  1.0000
  O   O3        1.0  0.8061921786477199  0.45456213803759477  0.563061607382771  1.0000
  O   O4        1.0  0.19377805647637572  0.6483533976511212  0.9369466176038085  1.0000
  O   O5        1.0  0.454557502515371  0.8062062883254979  0.9369419142316531  1.0000
  O   O6        1.0  0.35163264558999424  0.5454616520632597  0.9369941136681276  1.0000
  O   O7        1.0  0.45456865261484586  0.6483810752387029  0.4369351375439052  1.0000
  O   O8        1.0  0.35163918351815954  0.8062111209822335  0.43693177565742747  1.0000
  O   O9        1.0  0.1937832098400565  0.5454094910815571  0.436914320096264  1.0000
  O   O10       1.0  0.8062334061362506  0.35167327956590094  0.0630419415014956  1.0000
  O   O11       1.0  0.545439546092851  0.19378700102869573  0.063035416719849  1.0000
  O   O12       1.0  0.6483541069007688  0.45455238999878844  0.06306462069626659  1.0000
  O   O13       1.0  0.42424493574182526  0.17924592424355984  0.6256227225168869  1.0000
  O   O14       1.0  0.8207453102559085  0.24504777925372415  0.62561388306667  1.0000
  O   O15       1.0  0.7549848032091474  0.575750768867671  0.6256213917657332  1.0000
  O   O16       1.0  0.24501626636200086  0.8207463413190086  0.8743800848659545  1.0000
  O   O17       1.0  0.5757195507447154  0.7549683275612226  0.8743827344414752  1.0000
  O   O18       1.0  0.1792771345429998  0.4242893964914174  0.8743767992987869  1.0000
  O   O19       1.0  0.5757694916668115  0.8207673314345174  0.37436443294920707  1.0000
  O   O20       1.0  0.17925582612345914  0.7550056563470947  0.37436064132751307  1.0000
  O   O21       1.0  0.24499871647749666  0.4242246794352269  0.3743650619362028  1.0000
  O   O22       1.0  0.7549811969535226  0.17929134765580546  0.1256386497657473  1.0000
  O   O23       1.0  0.4242810937704249  0.2450138966669685  0.1256247716911076  1.0000
  O   O24       1.0  0.8207515994352124  0.5757364410741914  0.1256201806512962  1.0000
  O   O25       1.0  0.6026814125105631  0.5235192177951333  0.3930206380886005  1.0000
  O   O26       1.0  0.47649222565680555  0.07916819123324358  0.3930385905512708  1.0000
  O   O27       1.0  0.9207960113926036  0.3972914451385209  0.3930530933115008  1.0000
  O   O28       1.0  0.07917336923963349  0.4764962015090433  0.1069499976409674  1.0000
  O   O29       1.0  0.39734670950213785  0.9208456851046805  0.10697092727674826  1.0000
  O   O30       1.0  0.5235282537321738  0.6026339872336095  0.10699733280944197  1.0000
  O   O31       1.0  0.3973288182913208  0.476496740736536  0.6069644121853202  1.0000
  O   O32       1.0  0.5234979541828012  0.9208259916335493  0.6069661087721272  1.0000
  O   O33       1.0  0.07917960788813645  0.6026769654529505  0.606955114697783  1.0000
  O   O34       1.0  0.9208293388569544  0.5235018849764971  0.8930315438033245  1.0000
  O   O35       1.0  0.6026593946174116  0.07913854861362063  0.893007807018229  1.0000
  O   O36       1.0  0.4764738307693364  0.39733932787692067  0.893021401257762  1.0000
  O   O37       1.0  0.623488252138543  0.4349276276308629  0.2687444864390045  1.0000
  O   O38       1.0  0.5650483247246569  0.18850002208869646  0.2687283102184708  1.0000
  O   O39       1.0  0.8115011003563666  0.37653662401810095  0.268727495526754  1.0000
  O   O40       1.0  0.18848179822894912  0.5650358113423762  0.2312803540984945  1.0000
  O   O41       1.0  0.3765489509233221  0.8114856997575473  0.23126653020037213  1.0000
  O   O42       1.0  0.4349381749889148  0.6234713611762502  0.23126164903344906  1.0000
  O   O43       1.0  0.37653828806129747  0.5650451325167296  0.7312700368843179  1.0000
  O   O44       1.0  0.43493735103886894  0.8114732701087064  0.7312581434455864  1.0000
  O   O45       1.0  0.1885060890194765  0.6234659439730592  0.731269484439288  1.0000
  O   O46       1.0  0.8114849965592299  0.43493843621695294  0.768731362797993  1.0000
  O   O47       1.0  0.6234546813757191  0.18849951197672965  0.7687192216386477  1.0000
  O   O48       1.0  0.5650379750440848  0.3765398393689807  0.7687255067787929  1.0000
