data_image0
_chemical_formula_structural       Zn2H26C38I4N2O8
_chemical_formula_sum              "Zn2 H26 C38 I4 N2 O8"
_cell_length_a       10.851793530985548
_cell_length_b       14.712932198857613
_cell_length_c       16.171753916408697
_cell_angle_alpha    89.40465954248778
_cell_angle_beta     89.60795205416014
_cell_angle_gamma    88.31248116626855

_space_group_name_H-M_alt    "P 1"
_space_group_IT_number       1

loop_
  _space_group_symop_operation_xyz
  'x, y, z'

loop_
  _atom_site_type_symbol
  _atom_site_label
  _atom_site_symmetry_multiplicity
  _atom_site_fract_x
  _atom_site_fract_y
  _atom_site_fract_z
  _atom_site_occupancy
  Zn  Zn1       1.0  0.49733831342289414  0.4029015680271255  0.503087512904898  1.0000
  Zn  Zn2       1.0  0.5002537133809781  0.5959079968211894  0.49628167407610135  1.0000
  H   H1        1.0  0.9085562779285752  0.5875020207750054  0.384856155918584  1.0000
  H   H2        1.0  0.4448597609299014  0.9407504747707303  0.2950828576262766  1.0000
  H   H3        1.0  0.4845564237873177  0.8383538162019587  0.3465373589265468  1.0000
  H   H4        1.0  0.7727899257478015  0.058651825761188485  0.6520730498593752  1.0000
  H   H5        1.0  0.7404389774859439  0.16059556320470136  0.5952029131728693  1.0000
  H   H6        1.0  0.7341782548122142  0.1612557704427359  0.704668199675929  1.0000
  H   H7        1.0  0.521468907633583  0.16215730092651628  0.6501094578427101  1.0000
  H   H8        1.0  0.5523098929071466  0.06053023661606718  0.7049569132139127  1.0000
  H   H9        1.0  0.7427149789099733  0.8145765601378084  0.5692775115654529  1.0000
  H   H10       1.0  0.7675761689910132  0.814001655129935  0.6769490508835858  1.0000
  H   H11       1.0  0.7978580390057458  0.9132342016398808  0.6172329140283284  1.0000
  H   H12       1.0  0.0892783459160498  0.41214698400089106  0.6153573293322057  1.0000
  H   H13       1.0  0.5971905619217993  0.9289614755769048  0.6984695643895833  1.0000
  H   H14       1.0  0.5427774479602405  0.8318539804244406  0.6495047323099642  1.0000
  H   H15       1.0  0.5879296682969724  0.17684053864738292  0.3347063404651465  1.0000
  H   H16       1.0  0.5749516919560803  0.07611768861291068  0.2759885499418431  1.0000
  H   H17       1.0  0.48912553359771493  0.17678796042645925  0.24793270279363364  1.0000
  H   H18       1.0  0.3495443652755483  0.06837184359964968  0.3195796247178252  1.0000
  H   H19       1.0  0.3649302263469779  0.16726146905799769  0.37812841505952133  1.0000
  H   H20       1.0  0.4829895180340884  0.35021248210129835  0.0731084996258176  1.0000
  H   H21       1.0  0.5186193841013065  0.6476154753475426  0.9262828886242574  1.0000
  H   H22       1.0  0.4913555157917173  0.3562153178258924  0.9189239500840929  1.0000
  H   H23       1.0  0.510363811541403  0.6415890838984877  0.08047092408674673  1.0000
  H   H24       1.0  0.2726056565904286  0.8329410741788831  0.4106255320851133  1.0000
  H   H25       1.0  0.23070938434899094  0.9375062656427456  0.3608488366173433  1.0000
  H   H26       1.0  0.2650272371020037  0.8386749540893771  0.3013452469999507  1.0000
  C   C1        1.0  0.49020659737740874  0.4947570343874545  0.3389263335932853  1.0000
  C   C2        1.0  0.4957946305127053  0.49558236920033477  0.08682637398617742  1.0000
  C   C3        1.0  0.2605512909163962  0.5150596018309342  0.5058939338426428  1.0000
  C   C4        1.0  0.737299518538336  0.48461742271959435  0.49385124173647205  1.0000
  C   C5        1.0  0.48888919151085025  0.4925857283264745  0.24962756034296527  1.0000
  C   C6        1.0  0.5101430905457676  0.5053025896676359  0.7497259640628899  1.0000
  C   C7        1.0  0.4589906765039372  0.04913894271442838  0.4285822434856073  1.0000
  C   C8        1.0  0.5508496219643106  0.9493930527188678  0.5706831949139826  1.0000
  C   C9        1.0  0.5411248224407713  0.044667687545491185  0.5737180986167445  1.0000
  C   C10       1.0  0.4676646173851823  0.9539308480708469  0.42583787356645086  1.0000
  C   C11       1.0  0.4961000801430871  0.09114349120501689  0.5023264363695648  1.0000
  C   C12       1.0  0.5079226500831453  0.50324148189906  0.660427618424862  1.0000
  C   C13       1.0  0.5121592495859703  0.9074418379564262  0.4971459646628916  1.0000
  C   C14       1.0  0.05173244169831289  0.4721266671576243  0.4285616221812632  1.0000
  C   C15       1.0  0.946110160087848  0.5275096856050538  0.5715900695060583  1.0000
  C   C16       1.0  0.9772046635966594  0.4100055978161662  0.4900755741597962  1.0000
  C   C17       1.0  0.020677653378044215  0.5895971428480918  0.510106473726495  1.0000
  C   C18       1.0  0.9502479053024899  0.5488142634786185  0.43595459759377775  1.0000
  C   C19       1.0  0.047633795750961404  0.4508339648680886  0.5642414272825607  1.0000
  C   C20       1.0  0.8748049409020525  0.4871220702385911  0.49605586862083595  1.0000
  C   C21       1.0  0.1230612958735406  0.5124922367387368  0.5041372983116973  1.0000
  C   C22       1.0  0.48862701789045804  0.18753533908199665  0.5046796548270437  1.0000
  C   C23       1.0  0.5088028394511213  0.504964016467447  0.8250742014148289  1.0000
  C   C24       1.0  0.5154500230426677  0.8110239541428185  0.4951970459859967  1.0000
  C   C25       1.0  0.4275869726417909  0.9011376040965824  0.3516838495798923  1.0000
  C   C26       1.0  0.290960623831154  0.8763492237788241  0.3565301872444096  1.0000
  C   C27       1.0  0.5766858886530528  0.09830539454672046  0.6484922746115346  1.0000
  C   C28       1.0  0.71411878687762  0.12072404812737147  0.6500155649294825  1.0000
  C   C29       1.0  0.6016051674347694  0.8909245929986366  0.6405066299023119  1.0000
  C   C30       1.0  0.7350540027260167  0.8565294408550129  0.6249013425989602  1.0000
  C   C31       1.0  0.41553203285649687  0.10632661107656109  0.3558856205135754  1.0000
  C   C32       1.0  0.5233518729780257  0.13553620029479416  0.3003458534156849  1.0000
  C   C33       1.0  0.4914684754846448  0.49288221924292225  0.1742675584779434  1.0000
  C   C34       1.0  0.4954907761433701  0.41831029137455994  0.954824214319963  1.0000
  C   C35       1.0  0.5061508013763786  0.5795060453585845  0.04455414710457721  1.0000
  C   C36       1.0  0.49068062410066904  0.41499998688214373  0.0404983642512775  1.0000
  C   C37       1.0  0.5109118680275557  0.5828233123911272  0.9588850629161672  1.0000
  C   C38       1.0  0.5054768059770964  0.5022538109366861  0.91253760163918  1.0000
  I   I1        1.0  0.13562310364374502  0.4314926524844436  0.31634706472379304  1.0000
  I   I2        1.0  0.8620583127161368  0.5680515723688798  0.6838631509805353  1.0000
  I   I3        1.0  0.9505067708533306  0.26943745248131273  0.475037148914531  1.0000
  I   I4        1.0  0.0477020339122589  0.7301029434446914  0.5251250266416534  1.0000
  N   N1        1.0  0.5158356416445358  0.7321928418895066  0.4934078321056035  1.0000
  N   N2        1.0  0.48372375222076164  0.26643067533689185  0.5061830292843512  1.0000
  O   O1        1.0  0.4920634221146257  0.4182221802416136  0.3765873532184898  1.0000
  O   O2        1.0  0.5035128059017709  0.579780279083664  0.6228489302087469  1.0000
  O   O3        1.0  0.5098555918813973  0.42453255422197583  0.6282418043227196  1.0000
  O   O4        1.0  0.4902395838560308  0.5734349632347812  0.37104420470145544  1.0000
  O   O5        1.0  0.31288221558501317  0.4367807978349702  0.510916691159153  1.0000
  O   O6        1.0  0.6851368219675963  0.5630317242017994  0.49021173922674427  1.0000
  O   O7        1.0  0.6869866479728444  0.40817087543348407  0.4976284042839794  1.0000
  O   O8        1.0  0.31072209310575966  0.591461261614377  0.5002487568654674  1.0000
