data_image0
_chemical_formula_structural       Mg12H40C40O48
_chemical_formula_sum              "Mg12 H40 C40 O48"
_cell_length_a       9.92823330805307
_cell_length_b       11.210805070772189
_cell_length_c       14.888792013326924
_cell_angle_alpha    91.78148686522374
_cell_angle_beta     89.99962991355392
_cell_angle_gamma    89.99997057759698

_space_group_name_H-M_alt    "P 1"
_space_group_IT_number       1

loop_
  _space_group_symop_operation_xyz
  'x, y, z'

loop_
  _atom_site_type_symbol
  _atom_site_label
  _atom_site_symmetry_multiplicity
  _atom_site_fract_x
  _atom_site_fract_y
  _atom_site_fract_z
  _atom_site_occupancy
  Mg  Mg1       1.0  0.917515364225096  0.7442458880462726  0.8644424411826463  1.0000
  Mg  Mg2       1.0  0.4175151185064296  0.7557565822895146  0.6355605425113353  1.0000
  Mg  Mg3       1.0  0.0824842425619394  0.2557482721662084  0.1355560192847776  1.0000
  Mg  Mg4       1.0  0.5824875099543122  0.24425186281145272  0.3644395587308438  1.0000
  Mg  Mg5       1.0  7.247827654000001e-07  0.9999940700038222  4.273598804594419e-06  1.0000
  Mg  Mg6       1.0  0.4999937600513392  0.5000055274917444  0.4999926896614114  1.0000
  Mg  Mg7       1.0  0.10638900608696389  0.7603674747349344  0.6903685134603921  1.0000
  Mg  Mg8       1.0  0.6063867603841758  0.7396360859714407  0.8096351700580514  1.0000
  Mg  Mg9       1.0  0.8936156368502779  0.23964095198616772  0.3096275574939611  1.0000
  Mg  Mg10      1.0  0.39361486085364555  0.2603661091078067  0.19036412938024233  1.0000
  Mg  Mg11      1.0  0.999999525593651  0.4999998369765137  3.634277945027044e-07  1.0000
  Mg  Mg12      1.0  0.500010016886293  2.736153391000535e-06  0.5000001718776873  1.0000
  H   H1        1.0  0.0165059592529602  0.03777421352218371  0.7298218397926634  1.0000
  H   H2        1.0  0.5164989315279344  0.46222819893440464  0.7701784840341406  1.0000
  H   H3        1.0  0.9834976763999065  0.9622280213780388  0.2701861919220648  1.0000
  H   H4        1.0  0.48350671867088124  0.537778412308981  0.22981083260974344  1.0000
  H   H5        1.0  0.6035677794810114  0.9515382054003962  0.9541347488901055  1.0000
  H   H6        1.0  0.1035614637530671  0.5484600117834759  0.5458708505396004  1.0000
  H   H7        1.0  0.39643484895677267  0.048454203660945404  0.045871063254544715  1.0000
  H   H8        1.0  0.8964280707375993  0.45154575605364755  0.45412919497726995  1.0000
  H   H9        1.0  0.745181730552581  0.6189422415325582  0.6316266468835607  1.0000
  H   H10       1.0  0.24518723041879298  0.8810603677103546  0.8683831316250308  1.0000
  H   H11       1.0  0.25481888346570974  0.38106172920279857  0.3683706745843907  1.0000
  H   H12       1.0  0.754814390802018  0.1189355987892711  0.1316200680045583  1.0000
  H   H13       1.0  0.6963714855605688  0.506525790284961  4.2221078530198384e-05  1.0000
  H   H14       1.0  0.19637263347278383  0.9934692274142095  0.49995581045414644  1.0000
  H   H15       1.0  0.3036220778892443  0.49346387718400564  0.9999494293399709  1.0000
  H   H16       1.0  0.8036440962259094  0.0065320446054571  0.5000367532276188  1.0000
  H   H17       1.0  0.19299629462294382  0.5079065499640265  0.7602785804271336  1.0000
  H   H18       1.0  0.692998608326441  0.9920897847726808  0.7397178606491792  1.0000
  H   H19       1.0  0.807005326640585  0.4920875918686037  0.23971584975245724  1.0000
  H   H20       1.0  0.3070110707261264  0.007914207402159002  0.2602841627964239  1.0000
  H   H21       1.0  0.17161506421959424  0.8122975017209911  0.0695844125576599  1.0000
  H   H22       1.0  0.6716167211565249  0.6876993321338675  0.43041712236725976  1.0000
  H   H23       1.0  0.8283926004385336  0.18769483382189378  0.9304052784422441  1.0000
  H   H24       1.0  0.3283949723121112  0.3123020225938618  0.5695935776009905  1.0000
  H   H25       1.0  0.0681788521097531  0.28920734872551895  0.4946151100827053  1.0000
  H   H26       1.0  0.5681594073332121  0.21076867558355863  0.005374654694726599  1.0000
  H   H27       1.0  0.9318217618712764  0.7107841679137864  0.5053906834817354  1.0000
  H   H28       1.0  0.4318130042175668  0.789202352101384  0.9946387720522623  1.0000
  H   H29       1.0  0.05828879408306879  0.3030921978474836  0.7198533392548185  1.0000
  H   H30       1.0  0.5583049865679329  0.19687623265975426  0.7801366926173118  1.0000
  H   H31       1.0  0.9416926825584753  0.6969002081574872  0.28015180122191913  1.0000
  H   H32       1.0  0.4417026779838126  0.8031153115460798  0.2198751463569764  1.0000
  H   H33       1.0  0.2242340077595557  0.19932240393375622  0.876642016410756  1.0000
  H   H34       1.0  0.7242284847309365  0.30073435804693827  0.6233686134652672  1.0000
  H   H35       1.0  0.7757625773855992  0.8006672543446385  0.123347618859448  1.0000
  H   H36       1.0  0.27575903525337964  0.6993240902983971  0.3766385739722438  1.0000
  H   H37       1.0  0.31405464412678447  0.1134620063995371  0.6675489804847673  1.0000
  H   H38       1.0  0.8140571318259476  0.38656884485862264  0.8324667652559726  1.0000
  H   H39       1.0  0.6859288470457373  0.8865231928328329  0.3324412336048397  1.0000
  H   H40       1.0  0.1859424748764553  0.6134521584882152  0.1675477021691805  1.0000
  C   C1        1.0  0.0011068893672146  0.9851911065249511  0.7905431937521287  1.0000
  C   C2        1.0  0.5011017061744525  0.514813411561832  0.7094602944682435  1.0000
  C   C3        1.0  0.998892717399734  0.014804856912121498  0.20945933416793144  1.0000
  C   C4        1.0  0.4988948789483843  0.4851923256409948  0.2905330338942066  1.0000
  C   C5        1.0  0.7109383756049611  0.926674337455346  0.948715026556144  1.0000
  C   C6        1.0  0.21092897196268723  0.5733282786000943  0.55129154232435  1.0000
  C   C7        1.0  0.28906223837930173  0.07331717612076012  0.05129009529438381  1.0000
  C   C8        1.0  0.7890655986855181  0.4266810436101521  0.4487052189504084  1.0000
  C   C9        1.0  0.823930670844014  0.661330930667866  0.6740850294551564  1.0000
  C   C10       1.0  0.32393660343534253  0.8386734002898917  0.8259217569221067  1.0000
  C   C11       1.0  0.17606893593789863  0.33867661588497816  0.3259137097811832  1.0000
  C   C12       1.0  0.6760680394743305  0.16132256314555346  0.174080770987004  1.0000
  C   C13       1.0  0.7173867453907266  0.5749460558368328  0.9501076605193006  1.0000
  C   C14       1.0  0.21738823602525773  0.9250538512120843  0.5498927791174708  1.0000
  C   C15       1.0  0.28260983971356524  0.42504899373611954  0.04989014682537631  1.0000
  C   C16       1.0  0.7826305081352913  0.0749518767939819  0.4500985340550799  1.0000
  C   C17       1.0  0.1232796991456837  0.5421013891334499  0.8132049150850165  1.0000
  C   C18       1.0  0.6232815344721344  0.9578958922577384  0.6867938628849616  1.0000
  C   C19       1.0  0.8767229293320897  0.4578963346424203  0.18679227628639697  1.0000
  C   C20       1.0  0.3767281445926828  0.0421098725096698  0.313205510874198  1.0000
  C   C21       1.0  0.105380951059189  0.7580936560163707  0.025233739213995  1.0000
  C   C22       1.0  0.6053801359303038  0.7419059009626564  0.47476881120653763  1.0000
  C   C23       1.0  0.8946236918918516  0.24190405244284113  0.9747600935834984  1.0000
  C   C24       1.0  0.39462752864457684  0.25809275811909066  0.525237802733237  1.0000
  C   C25       1.0  0.06529782942669021  0.29282263297514544  0.5669122696944343  1.0000
  C   C26       1.0  0.5653004569293929  0.20713687184442622  0.9330782175959984  1.0000
  C   C27       1.0  0.9346947267355149  0.7071608457361409  0.43309201319836194  1.0000
  C   C28       1.0  0.43467699076309435  0.7928368331069605  0.06693526489382151  1.0000
  C   C29       1.0  0.06161198748895911  0.29977199288895673  0.6480808375661129  1.0000
  C   C30       1.0  0.5616295015620097  0.200199115802107  0.851909907319758  1.0000
  C   C31       1.0  0.9383745252937956  0.7002159540641346  0.35192488169060715  1.0000
  C   C32       1.0  0.438366076234587  0.7997915482377496  0.14810459995185002  1.0000
  C   C33       1.0  0.2536504449818082  0.17093693468250853  0.8102660579028226  1.0000
  C   C34       1.0  0.7536513174745282  0.329090379784553  0.6897485327460942  1.0000
  C   C35       1.0  0.7463461401616343  0.8290571857093384  0.18972367029035556  1.0000
  C   C36       1.0  0.24634123864012034  0.670941317320839  0.3102627991399843  1.0000
  C   C37       1.0  0.2846281303234194  0.13791560212594334  0.7350479985350021  1.0000
  C   C38       1.0  0.7846272527683668  0.36210277729052365  0.7649682867053968  1.0000
  C   C39       1.0  0.7153644258988693  0.8620713880752788  0.2649435961319071  1.0000
  C   C40       1.0  0.21536328887269462  0.6379128776494982  0.23504741265971776  1.0000
  O   O1        1.0  0.999530331862751  0.87079707775019  0.7788987476289508  1.0000
  O   O2        1.0  0.49952832684535764  0.6292044318597834  0.7211005022682855  1.0000
  O   O3        1.0  0.00046625324800690003  0.1291979656963562  0.2210977162879075  1.0000
  O   O4        1.0  0.500468258273216  0.3708039856743213  0.2788935535618577  1.0000
  O   O5        1.0  0.7404736555974055  0.846896659942594  0.8874728634048169  1.0000
  O   O6        1.0  0.24046865345737697  0.653103232192578  0.6125274758514153  1.0000
  O   O7        1.0  0.2595309873168716  0.1530957307388903  0.1125289184520071  1.0000
  O   O8        1.0  0.7595249099629626  0.34690430517261467  0.38746924825633766  1.0000
  O   O9        1.0  0.79366204365585  0.6873453926090676  0.7561006889698023  1.0000
  O   O10       1.0  0.29366978775544794  0.812650055119356  0.7439107451796687  1.0000
  O   O11       1.0  0.20633454143295182  0.31264788743450833  0.24390043977523135  1.0000
  O   O12       1.0  0.7063318334806682  0.1873566020733506  0.2560886471816062  1.0000
  O   O13       1.0  0.8422841297999284  0.6045362569171858  0.9405884018812786  1.0000
  O   O14       1.0  0.3422885671691561  0.8954680499305641  0.5594156178326203  1.0000
  O   O15       1.0  0.15771346252286383  0.39545969426773553  0.05941143918752802  1.0000
  O   O16       1.0  0.6577281625230784  0.1045332282155016  0.44057828927697074  1.0000
  O   O17       1.0  0.0779655124912821  0.6483642163364041  0.8031468761831988  1.0000
  O   O18       1.0  0.5779602603948036  0.851637565636423  0.6968542069180261  1.0000
  O   O19       1.0  0.922041144900682  0.3516335074381659  0.19685031517945364  1.0000
  O   O20       1.0  0.4220463969743378  0.14836910074426163  0.3031472005740241  1.0000
  O   O21       1.0  0.027218462496413996  0.8151426200949886  0.9723047922657104  1.0000
  O   O22       1.0  0.5272068753627012  0.6848573914416106  0.5276924440728834  1.0000
  O   O23       1.0  0.9727841659927704  0.18485063237782384  0.027690291041004404  1.0000
  O   O24       1.0  0.4727866880450406  0.31514926575369634  0.4723069483059135  1.0000
  O   O25       1.0  0.9867393583518124  0.03880853679765291  0.8647321278158132  1.0000
  O   O26       1.0  0.4867309415750968  0.46119178700872243  0.6352661140100011  1.0000
  O   O27       1.0  0.013262262842957307  0.9611794254665682  0.13527694997760162  1.0000
  O   O28       1.0  0.5132585929674747  0.5388219605581952  0.3647226796317682  1.0000
  O   O29       1.0  0.7935286141188699  0.9767891388567592  0.0009109727464889042  1.0000
  O   O30       1.0  0.2935219781872861  0.523210287377353  0.4990887443749018  1.0000
  O   O31       1.0  0.20647602877566132  0.023204162626619503  0.9990948579783776  1.0000
  O   O32       1.0  0.7064625201992812  0.47680436486668754  0.5009027547180551  1.0000
  O   O33       1.0  0.6200544148985189  0.616465530353878  0.9076134645283747  1.0000
  O   O34       1.0  0.12006257045669601  0.8835371290975902  0.5923901409581092  1.0000
  O   O35       1.0  0.3799401557677413  0.38353039326320737  0.0923803311218236  1.0000
  O   O36       1.0  0.8799491230965373  0.116471282305227  0.407602571411367  1.0000
  O   O37       1.0  0.09538623345090971  0.475548270167927  0.8764330995159071  1.0000
  O   O38       1.0  0.5953889223500185  0.0244522911616869  0.6235634855359891  1.0000
  O   O39       1.0  0.9046194167153986  0.5244503429664533  0.12356343871962143  1.0000
  O   O40       1.0  0.4046268000835269  0.9755516918215935  0.3764365227547515  1.0000
  O   O41       1.0  0.11219788640218553  0.646919070620598  0.029150768581480708  1.0000
  O   O42       1.0  0.6122030895653269  0.8530795834031578  0.4708503901697512  1.0000
  O   O43       1.0  0.8878148144022547  0.35307236943476994  0.9708382321089672  1.0000
  O   O44       1.0  0.3878237123161767  0.1469280305313347  0.5291631267134491  1.0000
  O   O45       1.0  0.9366225874463795  0.6804732372263799  0.6386475293779058  1.0000
  O   O46       1.0  0.4366382619304901  0.8195337288210707  0.8613655398242843  1.0000
  O   O47       1.0  0.06337198319159403  0.3195459077598671  0.36135077975520613  1.0000
  O   O48       1.0  0.5633633592898094  0.18045510136023074  0.1386381828424561  1.0000
