data_image0
_chemical_formula_structural       Er2H32C36N6O16
_chemical_formula_sum              "Er2 H32 C36 N6 O16"
_cell_length_a       9.452595815865212
_cell_length_b       10.449722968770276
_cell_length_c       10.449657669303486
_cell_angle_alpha    83.18198999850289
_cell_angle_beta     84.30205263112833
_cell_angle_gamma    84.3013009337212

_space_group_name_H-M_alt    "P 1"
_space_group_IT_number       1

loop_
  _space_group_symop_operation_xyz
  'x, y, z'

loop_
  _atom_site_type_symbol
  _atom_site_label
  _atom_site_symmetry_multiplicity
  _atom_site_fract_x
  _atom_site_fract_y
  _atom_site_fract_z
  _atom_site_occupancy
  Er  Er1       1.0  0.2500042943096616  0.9742402850707425  0.025759588622570103  1.0000
  Er  Er2       1.0  0.7499946463551977  0.025751067954388408  0.9742396953800779  1.0000
  H   H1        1.0  0.4720695915794904  0.891143751242126  0.20345534351945824  1.0000
  H   H2        1.0  0.027936116837707876  0.7965448901492637  0.10885283381701073  1.0000
  H   H3        1.0  0.5279309689790707  0.10886309684251934  0.7965400762453002  1.0000
  H   H4        1.0  0.9720662016359183  0.20345517733393592  0.8911470404518197  1.0000
  H   H5        1.0  0.3216128954309383  0.8484192054876089  0.28251562129159424  1.0000
  H   H6        1.0  0.17839929314571623  0.717488271439102  0.1515802384825733  1.0000
  H   H7        1.0  0.678383430377856  0.15158761536714144  0.7174859329076285  1.0000
  H   H8        1.0  0.8215976048874508  0.2825127570579014  0.8484171515905247  1.0000
  H   H9        1.0  0.40281806104221113  0.5870204173670432  0.8441904027508473  1.0000
  H   H10       1.0  0.09716002942257519  0.15581845032970423  0.412994377910934  1.0000
  H   H11       1.0  0.5971681356732573  0.41298152633034146  0.1558164777727598  1.0000
  H   H12       1.0  0.9028431559072341  0.8441941909083613  0.5870077828260422  1.0000
  H   H13       1.0  0.5370033031090243  0.37172799689376035  0.8034349629110976  1.0000
  H   H14       1.0  0.9629683738659052  0.19657288987792046  0.6282776522510859  1.0000
  H   H15       1.0  0.46298624412877126  0.6282720517053876  0.1965603461108927  1.0000
  H   H16       1.0  0.037034903578337684  0.8034387890202339  0.37172269793811813  1.0000
  H   H17       1.0  0.9209243189990273  0.5029566710007103  0.8609462530203658  1.0000
  H   H18       1.0  0.5790651762568544  0.13905450913587467  0.4970334152148582  1.0000
  H   H19       1.0  0.07907201859880787  0.4970395036611209  0.1390565377320101  1.0000
  H   H20       1.0  0.42094169238532686  0.8609426619208805  0.5029682912971724  1.0000
  H   H21       1.0  0.8050507385916813  0.723512018171313  0.8992260642795245  1.0000
  H   H22       1.0  0.6949465994800547  0.10076973934491923  0.27648745129959457  1.0000
  H   H23       1.0  0.19494627667587128  0.2764880244336753  0.1007781284521343  1.0000
  H   H24       1.0  0.30506376762100723  0.899224521935665  0.7235200136215668  1.0000
  H   H25       1.0  0.35789911502122607  0.17017549543837873  0.5699403082880394  1.0000
  H   H26       1.0  0.14208532292069975  0.430062968527004  0.829826364548353  1.0000
  H   H27       1.0  0.6420981765896414  0.829821660146884  0.4300584528003241  1.0000
  H   H28       1.0  0.8579109693948225  0.5699438837305594  0.17016370537575656  1.0000
  H   H29       1.0  0.3552882350627868  0.3568988061873244  0.3937372909834096  1.0000
  H   H30       1.0  0.14471877862526836  0.6062703217630984  0.6431047735403084  1.0000
  H   H31       1.0  0.6447252034261836  0.6430964496316424  0.6062630770565037  1.0000
  H   H32       1.0  0.8552938475883493  0.39373270343145356  0.3568842392627474  1.0000
  C   C1        1.0  0.52010962391617  0.7974755917693556  0.9137524994772761  1.0000
  C   C2        1.0  0.97987128493159  0.08625544227672323  0.20252881558023725  1.0000
  C   C3        1.0  0.47988228632971186  0.20252248819309676  0.0862571757363142  1.0000
  C   C4        1.0  0.020123601796655052  0.9137445971809234  0.7974746162769578  1.0000
  C   C5        1.0  0.5944315796984226  0.6709731315024785  0.8765860281435496  1.0000
  C   C6        1.0  0.9055510508049806  0.12341020220023324  0.32904102490668663  1.0000
  C   C7        1.0  0.4055541285338008  0.32903365006345814  0.12342033488963013  1.0000
  C   C8        1.0  0.09445679417907364  0.8765879288447426  0.670964308124738  1.0000
  C   C9        1.0  0.5182524305361439  0.571815962595693  0.8466773132146204  1.0000
  C   C10       1.0  0.9817337546244145  0.15332201010869545  0.428194045827219  1.0000
  C   C11       1.0  0.4817391670820468  0.42818503840619837  0.15332535234423972  1.0000
  C   C12       1.0  0.01827340090088815  0.84668289918605  0.5718086486717552  1.0000
  C   C13       1.0  0.5918020311444253  0.4527817524698961  0.8247410929410393  1.0000
  C   C14       1.0  0.9081797034460376  0.17526734592076568  0.5472217405639412  1.0000
  C   C15       1.0  0.4081886906196459  0.5472173183531626  0.1752590066194415  1.0000
  C   C16       1.0  0.09182802088790247  0.8247424093584573  0.45277842432453497  1.0000
  C   C17       1.0  0.8061569629271331  0.525686160499433  0.8567384883799392  1.0000
  C   C18       1.0  0.6938273660262125  0.14326716009968982  0.47430769587653293  1.0000
  C   C19       1.0  0.19383269038063122  0.4743129126753019  0.1432597952089125  1.0000
  C   C20       1.0  0.30618065760450713  0.8567290514992795  0.5256921020135082  1.0000
  C   C21       1.0  0.7425534246034571  0.6479409287605834  0.8781933863755853  1.0000
  C   C22       1.0  0.757436615525698  0.12180446954793216  0.35206359016368793  1.0000
  C   C23       1.0  0.25743606401317  0.3520600507756556  0.1218152174692833  1.0000
  C   C24       1.0  0.24257480328504494  0.8781898050823785  0.6479399485915422  1.0000
  C   C25       1.0  0.24999417641882354  0.17954983429045515  0.8204554030661556  1.0000
  C   C26       1.0  0.7500029197987387  0.8204492564422314  0.1795431510260386  1.0000
  C   C27       1.0  0.24998775411657448  0.287200172112293  0.712801846396765  1.0000
  C   C28       1.0  0.7500055679234164  0.7127940796909656  0.2871937893910541  1.0000
  C   C29       1.0  0.3109431715982822  0.26639375378693597  0.5887789996507493  1.0000
  C   C30       1.0  0.18903868269765667  0.41122124435589313  0.7336092168137114  1.0000
  C   C31       1.0  0.6890560419941636  0.7336053505606943  0.41121648722421617  1.0000
  C   C32       1.0  0.8109605308947961  0.588777859991737  0.2663862700612539  1.0000
  C   C33       1.0  0.30820336244521224  0.3700757694177172  0.4915542930616326  1.0000
  C   C34       1.0  0.19179694035705092  0.5084481524674872  0.6299295542975757  1.0000
  C   C35       1.0  0.6918043597222477  0.6299233527530819  0.5084423232653706  1.0000
  C   C36       1.0  0.8082129968819342  0.4915500157445509  0.3700640983102872  1.0000
  N   N1        1.0  0.7331520651003132  0.42895331940884057  0.8322572379328863  1.0000
  N   N2        1.0  0.7668343376151653  0.16774317430245844  0.5710419538808154  1.0000
  N   N3        1.0  0.2668416533084893  0.5710370568657768  0.1677407258931254  1.0000
  N   N4        1.0  0.23317445300860123  0.8322559455166573  0.42895647841781676  1.0000
  N   N5        1.0  0.25000059188646157  0.4895527281838811  0.510452606514832  1.0000
  N   N6        1.0  0.7500090522625767  0.5104483427492782  0.489540735598773  1.0000
  O   O1        1.0  0.3845991123466772  0.8076149354503959  0.9268206992474362  1.0000
  O   O2        1.0  0.1153810064275405  0.07318307782611562  0.1923833332797003  1.0000
  O   O3        1.0  0.6153949493919695  0.19237249099887072  0.0731948014854922  1.0000
  O   O4        1.0  0.8846099274764608  0.9268140421481167  0.8076227154145034  1.0000
  O   O5        1.0  0.3441613357866018  0.08356632457942234  0.8147960568684525  1.0000
  O   O6        1.0  0.15583205336795908  0.18520673095137855  0.9164390883778921  1.0000
  O   O7        1.0  0.6558387397044355  0.9164347230315502  0.1851972108902658  1.0000
  O   O8        1.0  0.8441636701389253  0.8147952753217212  0.08355351115672252  1.0000
  O   O9        1.0  0.37576366685717494  0.8664494763576301  0.1936702895416218  1.0000
  O   O10       1.0  0.12423793981887597  0.8063253733504754  0.13355913812275588  1.0000
  O   O11       1.0  0.6242334259446592  0.1335602527172739  0.8063298990661922  1.0000
  O   O12       1.0  0.8757613910079627  0.19367274510513977  0.8664431514107704  1.0000
  O   O13       1.0  0.5964008657297197  0.8850674204041559  0.9333394362758443  1.0000
  O   O14       1.0  0.9035988427800346  0.06665268709102182  0.11493442848801291  1.0000
  O   O15       1.0  0.40359574200459747  0.11493650819707572  0.0666586003259297  1.0000
  O   O16       1.0  0.09640270311833628  0.9333444774058324  0.8850648973263733  1.0000
