data_image0
_chemical_formula_structural       Cd4H32C48N8O16
_chemical_formula_sum              "Cd4 H32 C48 N8 O16"
_cell_length_a       9.8440185264022
_cell_length_b       9.790593493844627
_cell_length_c       15.598
_cell_angle_alpha    104.26952242677902
_cell_angle_beta     107.8799866878732
_cell_angle_gamma    97.32755840315467

_space_group_name_H-M_alt    "P 1"
_space_group_IT_number       1

loop_
  _space_group_symop_operation_xyz
  'x, y, z'

loop_
  _atom_site_type_symbol
  _atom_site_label
  _atom_site_symmetry_multiplicity
  _atom_site_fract_x
  _atom_site_fract_y
  _atom_site_fract_z
  _atom_site_occupancy
  Cd  Cd1       1.0  0.1815364198329519  0.27979387106152837  0.027346526931530904  1.0000
  Cd  Cd2       1.0  0.247929937573943  0.8472689438382801  0.5277111106126358  1.0000
  Cd  Cd3       1.0  0.8184583748810609  0.7202072883760804  0.9726508487430083  1.0000
  Cd  Cd4       1.0  0.7520827969549799  0.1527408592493629  0.47229813065138176  1.0000
  H   H1        1.0  0.25640300199706456  0.0330619613702652  0.8798772863386191  1.0000
  H   H2        1.0  0.3451842394623696  0.6236696025436643  0.38048661589677835  1.0000
  H   H3        1.0  0.7435923427692614  0.9669273130485436  0.12012476822338411  1.0000
  H   H4        1.0  0.6548193355464633  0.3763326373501954  0.6195139104714544  1.0000
  H   H5        1.0  0.4709849410256268  0.9645254587960608  0.8362164640437587  1.0000
  H   H6        1.0  0.3697781773307725  0.36389226404244807  0.3366875178384775  1.0000
  H   H7        1.0  0.5290111270527689  0.035467056991514284  0.16378430883082737  1.0000
  H   H8        1.0  0.6302123477878394  0.6361088953951608  0.6633083894285647  1.0000
  H   H9        1.0  0.7204267813866494  0.12482943284157949  0.9308792285869602  1.0000
  H   H10       1.0  0.30505595053465123  0.2081833914635354  0.4309519673136251  1.0000
  H   H11       1.0  0.2795677722233449  0.8751706461397717  0.06911408656188202  1.0000
  H   H12       1.0  0.6949298227805301  0.7918156070615581  0.5690420437885281  1.0000
  H   H13       1.0  0.7460025952461535  0.34443108599665345  0.06088219137686214  1.0000
  H   H14       1.0  0.2170868483550521  0.3132707276333021  0.5608990931939248  1.0000
  H   H15       1.0  0.25399729535809  0.6555689929846977  0.9391121578965669  1.0000
  H   H16       1.0  0.7829103222606832  0.6867315122605575  0.4390989100091432  1.0000
  H   H17       1.0  0.7429831517757391  0.5443079297799753  0.13970517996148868  1.0000
  H   H18       1.0  0.09609454918962967  0.39544590848222316  0.6391216520194831  1.0000
  H   H19       1.0  0.25701883848770984  0.4556824250950909  0.8602983294287088  1.0000
  H   H20       1.0  0.9039148450214896  0.6045584923241448  0.3608809773385602  1.0000
  H   H21       1.0  0.7384326872614579  0.7599345843768359  0.2630678835055705  1.0000
  H   H22       1.0  0.004447500097256796  0.5237576518302234  0.7619652744815824  1.0000
  H   H23       1.0  0.2615669271002687  0.24005469004197266  0.7369349983560981  1.0000
  H   H24       1.0  0.9955579686052473  0.4762435076073857  0.23803545165779388  1.0000
  H   H25       1.0  0.5059467935087767  0.7790964760402942  0.29416146308275165  1.0000
  H   H26       1.0  0.016485411705417594  0.7891544433081279  0.7933503014949823  1.0000
  H   H27       1.0  0.4940519945581201  0.2208938788347723  0.70583629697002  1.0000
  H   H28       1.0  0.9835187484942268  0.2108456356732233  0.2066519272642894  1.0000
  H   H29       1.0  0.2870129644474275  0.5710427393272255  0.2041598901476362  1.0000
  H   H30       1.0  0.1337168587722033  0.9189885495179126  0.7040678909482949  1.0000
  H   H31       1.0  0.7129865469315319  0.4289508569166002  0.7958365882177107  1.0000
  H   H32       1.0  0.8662922943348973  0.0810147708321978  0.29593773007022156  1.0000
  C   C1        1.0  0.3674631012911576  0.09853328853342447  0.9170538108519113  1.0000
  C   C2        1.0  0.3173672142034789  0.5493579823108448  0.4175116748720671  1.0000
  C   C3        1.0  0.6325295234866672  0.9014581467978928  0.08294163991438812  1.0000
  C   C4        1.0  0.6826312649151233  0.45064533803926565  0.5824861079267762  1.0000
  C   C5        1.0  0.4864674997703631  0.0610468588033157  0.8939950969013497  1.0000
  C   C6        1.0  0.331636980269991  0.40647412546609013  0.3943970495993271  1.0000
  C   C7        1.0  0.5135295327241138  0.9389499788092762  0.10600076151749958  1.0000
  C   C8        1.0  0.6683546122474765  0.5935270339715117  0.6055990644926369  1.0000
  C   C9        1.0  0.6244941003604723  0.1508641067362859  0.9465905419201734  1.0000
  C   C10       1.0  0.2949692040175691  0.3205443591347644  0.44676720233697154  1.0000
  C   C11       1.0  0.37549997104147786  0.8491338113325637  0.05340362768695426  1.0000
  C   C12       1.0  0.7050255906964509  0.6794568003028445  0.553229532229736  1.0000
  C   C13       1.0  0.6387175075313252  0.2742273604412802  0.01917105315337861  1.0000
  C   C14       1.0  0.24488512208829863  0.3792423060420304  0.5192770968265493  1.0000
  C   C15       1.0  0.3612784575643033  0.7257694771713119  0.9808252395483879  1.0000
  C   C16       1.0  0.7551064704291689  0.6207588533955712  0.4807177350497371  1.0000
  C   C17       1.0  0.5132943113354145  0.3068085187785455  0.036910664324914  1.0000
  C   C18       1.0  0.2300460983508046  0.5232152627907495  0.5370466612331486  1.0000
  C   C19       1.0  0.48670210082975973  0.6931807556402632  0.9630896737385088  1.0000
  C   C20       1.0  0.7699618843746805  0.4767923793843778  0.462954913895473  1.0000
  C   C21       1.0  0.5185210766354018  0.4393913056983294  0.11080145529865602  1.0000
  C   C22       1.0  0.171806085348102  0.5922693828919421  0.6107074487656449  1.0000
  C   C23       1.0  0.4814785377263248  0.5605979687204792  0.8891982210238396  1.0000
  C   C24       1.0  0.8282074754756579  0.40773933973944304  0.38929537436625594  1.0000
  C   C25       1.0  0.6445834349269363  0.5504092662459215  0.15739304290346476  1.0000
  C   C26       1.0  0.10785378731618778  0.512272401850943  0.6569789790612505  1.0000
  C   C27       1.0  0.3554147679491564  0.4495832495416536  0.8426055791896163  1.0000
  C   C28       1.0  0.8921558479989571  0.4877330794116759  0.34302194085198323  1.0000
  C   C29       1.0  0.6415365827920071  0.6725299952588981  0.22478921715817535  1.0000
  C   C30       1.0  0.05341507407857899  0.5829828613894108  0.7241143131641011  1.0000
  C   C31       1.0  0.35846444305535397  0.3274560377911513  0.7752147189329152  1.0000
  C   C32       1.0  0.9465908768319692  0.4170204589607066  0.2758861996248215  1.0000
  C   C33       1.0  0.5130789967925793  0.6830849724035417  0.24383957233091993  1.0000
  C   C34       1.0  0.061819772559616105  0.7313662405666719  0.7432131524743824  1.0000
  C   C35       1.0  0.4869203764651289  0.3169032215590163  0.756160531220722  1.0000
  C   C36       1.0  0.9381872457497804  0.2686370797834456  0.256789490462964  1.0000
  C   C37       1.0  0.3917789605012842  0.5687694593689585  0.19407101933371967  1.0000
  C   C38       1.0  0.1259820805604832  0.8034121440349935  0.6938025674685377  1.0000
  C   C39       1.0  0.6082185190627385  0.4312198150498573  0.8059269611232838  1.0000
  C   C40       1.0  0.8740251788529392  0.1965922567713747  0.3061996482396695  1.0000
  C   C41       1.0  0.02140719144843929  0.504762150429876  0.9560637379503094  1.0000
  C   C42       1.0  0.9515728656086538  0.9341041325103987  0.4560319866761661  1.0000
  C   C43       1.0  0.9785927342942955  0.4952476526577668  0.04393596922852793  1.0000
  C   C44       1.0  0.0484387663829295  0.06589594647095248  0.5439710487496898  1.0000
  C   C45       1.0  0.9717488727897745  0.9857737114858551  0.9444907029879348  1.0000
  C   C46       1.0  0.45817671570947743  0.9727217999383768  0.4445482122788322  1.0000
  C   C47       1.0  0.0282332512593015  0.014232850233021597  0.055505694463995815  1.0000
  C   C48       1.0  0.5418348132993387  0.027282600867991398  0.5554625240230493  1.0000
  N   N1        1.0  0.38091335679084176  0.2179582791928425  0.9860363844234714  1.0000
  N   N2        1.0  0.2675456740049782  0.605157065088818  0.4863741720434619  1.0000
  N   N3        1.0  0.6190819879754912  0.7820309952259663  0.013961823491534645  1.0000
  N   N4        1.0  0.7324570747090249  0.3948462552612923  0.5136244380550467  1.0000
  N   N5        1.0  0.3948262461961107  0.4502477301378249  0.13006351597425694  1.0000
  N   N6        1.0  0.1802269461711319  0.7360997194151366  0.6300762813246052  1.0000
  N   N7        1.0  0.6051738503736601  0.5497437051934992  0.8699353058899606  1.0000
  N   N8        1.0  0.8197810365543532  0.2639079227599907  0.3699259349118478  1.0000
  O   O1        1.0  0.1063711823562841  0.4271054376348928  0.9339101512979939  1.0000
  O   O2        1.0  0.007631803484024086  0.8273226409344685  0.4335938928118637  1.0000
  O   O3        1.0  0.8936268145542741  0.5728957218027162  0.06608976817479836  1.0000
  O   O4        1.0  0.9923759381374355  0.17268392078440795  0.5664100328693992  1.0000
  O   O5        1.0  0.9698132751007903  0.5905309287793655  0.9123950595958663  1.0000
  O   O6        1.0  0.8218668665057294  0.9408105244785432  0.41255120794969713  1.0000
  O   O7        1.0  0.030184859931033273  0.409475632939511  0.08760636355331292  1.0000
  O   O8        1.0  0.1781375699364247  0.0592003590653505  0.5874521048388388  1.0000
  O   O9        1.0  0.03072443078792729  0.07455472288994967  0.9124597379928974  1.0000
  O   O10       1.0  0.3362200799580819  0.8833745504758638  0.4126152432235416  1.0000
  O   O11       1.0  0.969258657677237  0.9254561606539439  0.08753815608164223  1.0000
  O   O12       1.0  0.6637942393162319  0.1166471376305651  0.5873974260968569  1.0000
  O   O13       1.0  0.8708147495169741  0.8754137487969089  0.893162884132828  1.0000
  O   O14       1.0  0.5176269639454175  0.020632392625053293  0.39317357303917083  1.0000
  O   O15       1.0  0.12917188523152126  0.12459389337822559  0.10683391338962882  1.0000
  O   O16       1.0  0.4823825332484688  0.9793676863562979  0.6068296898446806  1.0000
