data_image0
_chemical_formula_structural       Zn4H32C92N4O16F20
_chemical_formula_sum              "Zn4 H32 C92 N4 O16 F20"
_cell_length_a       16.51989682164224
_cell_length_b       17.9428871356222
_cell_length_c       33.198735762210816
_cell_angle_alpha    90.26275137561265
_cell_angle_beta     89.6513696841395
_cell_angle_gamma    89.98430994185955

_space_group_name_H-M_alt    "P 1"
_space_group_IT_number       1

loop_
  _space_group_symop_operation_xyz
  'x, y, z'

loop_
  _atom_site_type_symbol
  _atom_site_label
  _atom_site_symmetry_multiplicity
  _atom_site_fract_x
  _atom_site_fract_y
  _atom_site_fract_z
  _atom_site_occupancy
  Zn  Zn1       1.0  0.58304376175289  0.49993352456142065  0.5008064382928765  1.0000
  Zn  Zn2       1.0  0.4160442475621977  0.49990688302104774  0.5011349615806965  1.0000
  Zn  Zn3       1.0  0.41699388039801727  0.5022052213899073  0.9612770864607256  1.0000
  Zn  Zn4       1.0  0.5839012363143323  0.5020981192360878  0.9610077873964826  1.0000
  H   H1        1.0  0.2860911671417838  0.5819083926573471  0.5450525153712604  1.0000
  H   H2        1.0  0.28775317265633754  0.4181506505401843  0.45551313051392833  1.0000
  H   H3        1.0  0.7121944693503152  0.5822085826271887  0.5450263954267597  1.0000
  H   H4        1.0  0.7126476430261663  0.418008219371572  0.4557084270582478  1.0000
  H   H5        1.0  0.6307183421754415  0.7384041444094362  0.5002040527574891  1.0000
  H   H6        1.0  0.3693867734827804  0.7383989081161603  0.5000657219665072  1.0000
  H   H7        1.0  0.6308737957292152  0.26130912106771825  0.4999207062257938  1.0000
  H   H8        1.0  0.36954472524075743  0.2617079949407072  0.4998670459510635  1.0000
  H   H9        1.0  0.367958708997257  0.5004893654217424  0.6301132616402326  1.0000
  H   H10       1.0  0.29462837165288386  0.5006822136136434  0.6948327220367289  1.0000
  H   H11       1.0  0.6263944252542827  0.5000396675718973  0.6268535103780835  1.0000
  H   H12       1.0  0.632320001323002  0.5013417821499643  0.8319756667231886  1.0000
  H   H13       1.0  0.7055849904514986  0.5009856332320695  0.7672722313070182  1.0000
  H   H14       1.0  0.3738740877003154  0.5014309008337181  0.835262314953205  1.0000
  H   H15       1.0  0.369042617703215  0.5023786023553997  0.0901071088918002  1.0000
  H   H16       1.0  0.6304479303486729  0.5024124004694669  0.0894504389107311  1.0000
  H   H17       1.0  0.36941825149143875  0.5002981944126575  0.3726820150609811  1.0000
  H   H18       1.0  0.6308208277865645  0.5005509622897719  0.3719150110805245  1.0000
  H   H19       1.0  0.7134682392566845  0.5841314944925385  0.9174206999486216  1.0000
  H   H20       1.0  0.7125193016919552  0.42076809354935557  0.006352934965732999  1.0000
  H   H21       1.0  0.28799559411288556  0.5843725596761474  0.9173964393735189  1.0000
  H   H22       1.0  0.28722703618424106  0.4205113592389226  0.006075622209060299  1.0000
  H   H23       1.0  0.36923618016200516  0.7409300163905004  0.961247500654899  1.0000
  H   H24       1.0  0.6305778173049673  0.7405902385038347  0.9613319955833147  1.0000
  H   H25       1.0  0.3692367252909178  0.26367713342160937  0.9617912566828082  1.0000
  H   H26       1.0  0.6305530714835255  0.26386396575664867  0.9617634680502717  1.0000
  H   H27       1.0  0.2327520090398068  0.4516214776609003  0.7655853368060832  1.0000
  H   H28       1.0  0.27300119381342813  0.5012810282010635  0.8069942272443099  1.0000
  H   H29       1.0  0.23257809592798395  0.5502976981907467  0.7656197429539516  1.0000
  H   H30       1.0  0.767480894343059  0.45110086387488474  0.696363220358549  1.0000
  H   H31       1.0  0.7271051368605725  0.5003511160293357  0.655085266071822  1.0000
  H   H32       1.0  0.7675564461099639  0.5497861263377501  0.6965423066970757  1.0000
  C   C1        1.0  0.5001470426736175  0.6463978319368239  0.5009735428094473  1.0000
  C   C2        1.0  0.4973600212651518  0.5006919842304426  0.5797933467669552  1.0000
  C   C3        1.0  0.5003704176606972  0.35350905068177246  0.49974204962965263  1.0000
  C   C4        1.0  0.5000189960523185  0.49949634185430364  0.42196842905908477  1.0000
  C   C5        1.0  0.4997258269107759  0.6486953257946269  0.9610513919177349  1.0000
  C   C6        1.0  0.502944612621796  0.5023268477568693  0.8823163552026472  1.0000
  C   C7        1.0  0.49975472296260653  0.35572410101517  0.96200845866759  1.0000
  C   C8        1.0  0.49992859173471504  0.5018716357842408  0.040115555493706295  1.0000
  C   C9        1.0  0.2507433305164212  0.5459662506240549  0.5252864316900414  1.0000
  C   C10       1.0  0.166815556830656  0.54688003543896  0.5255743862137976  1.0000
  C   C11       1.0  0.12152457598856609  0.5001468908742268  0.49996218432412587  1.0000
  C   C12       1.0  0.16776780340946829  0.4533944317244192  0.4744838862052134  1.0000
  C   C13       1.0  0.2516978686839124  0.4541999589278519  0.47513007310075756  1.0000
  C   C14       1.0  0.03650476480367359  0.5000983343797145  0.49990050174675105  1.0000
  C   C15       1.0  0.9628359954811926  0.5000664549333821  0.49993802067540116  1.0000
  C   C16       1.0  0.8778179274902342  0.500095461413089  0.5000488103729239  1.0000
  C   C17       1.0  0.8318968643920001  0.5468658837149789  0.5256544863578299  1.0000
  C   C18       1.0  0.7479698036661445  0.5460371328949024  0.5253456020615273  1.0000
  C   C19       1.0  0.7482025083162965  0.45413421378367513  0.4752829257872904  1.0000
  C   C20       1.0  0.8321498157212871  0.45333893173110335  0.4746057315620575  1.0000
  C   C21       1.0  0.5000618496576336  0.7299846506606471  0.500475746740882  1.0000
  C   C22       1.0  0.5736846273073083  0.7687335780690532  0.5002841193986639  1.0000
  C   C23       1.0  0.5723615252788932  0.8457483044291935  0.5000806327504392  1.0000
  C   C24       1.0  0.5000041176825221  0.887703509994921  0.5000119194065319  1.0000
  C   C25       1.0  0.4276846971958291  0.8457283311325341  0.4999960100516461  1.0000
  C   C26       1.0  0.42640180326392846  0.7687120143606805  0.5002062061208861  1.0000
  C   C27       1.0  0.4999545636516201  0.9659881565333495  0.4999740550896519  1.0000
  C   C28       1.0  0.49990587425596533  0.033920422326517  0.4999844660909787  1.0000
  C   C29       1.0  0.4999847699461597  0.1122017313116501  0.4999149959810651  1.0000
  C   C30       1.0  0.5723909380008364  0.1540554107482563  0.49989851112238165  1.0000
  C   C31       1.0  0.5738108545451723  0.23106456533992767  0.4997946395660334  1.0000
  C   C32       1.0  0.5002323849208422  0.26991911552251224  0.49970956627571184  1.0000
  C   C33       1.0  0.42652409237050637  0.2312954962467444  0.499763105347256  1.0000
  C   C34       1.0  0.4277108030892123  0.15427288165309255  0.49985541176274495  1.0000
  C   C35       1.0  0.42494684855763853  0.5006893388716023  0.6464869997429545  1.0000
  C   C36       1.0  0.42505478502818755  0.5007636337543958  0.6887307943614189  1.0000
  C   C37       1.0  0.35141480273154707  0.5008076716884915  0.7115808248922733  1.0000
  C   C38       1.0  0.5716966480931801  0.5004497973675724  0.6452159825962908  1.0000
  C   C39       1.0  0.5754160706783294  0.5005910660301396  0.6874363345722684  1.0000
  C   C40       1.0  0.6510564599376634  0.5006135083520818  0.7092394295390818  1.0000
  C   C41       1.0  0.575307386933865  0.501543088088944  0.8156146587640194  1.0000
  C   C42       1.0  0.5751729828936191  0.5011767462323604  0.7733678328149762  1.0000
  C   C43       1.0  0.648812473577564  0.5009047617900394  0.7505199854455711  1.0000
  C   C44       1.0  0.42855159732407333  0.5015942567605906  0.8168957941409261  1.0000
  C   C45       1.0  0.42479898240908637  0.501239526842923  0.7746789329178654  1.0000
  C   C46       1.0  0.34916176455786296  0.5010181129445428  0.7528654294849559  1.0000
  C   C47       1.0  0.4977534718736436  0.5006458339688322  0.6248975169554569  1.0000
  C   C48       1.0  0.5004992123561391  0.5008201207243204  0.7096638659288103  1.0000
  C   C49       1.0  0.5025133105650922  0.50187250695668  0.8372074892942649  1.0000
  C   C50       1.0  0.4997146216793665  0.5010996387921055  0.7524407671967168  1.0000
  C   C51       1.0  0.49975288246699273  0.5019636087796968  0.0852387197212465  1.0000
  C   C52       1.0  0.4260485482717584  0.5019994356410395  0.10633668903418679  1.0000
  C   C53       1.0  0.42726550778269967  0.5017926987283233  0.1479524626645983  1.0000
  C   C54       1.0  0.4996039151611456  0.5016376553661601  0.17040281336189614  1.0000
  C   C55       1.0  0.5720215215602025  0.5017868003690326  0.1475796108500163  1.0000
  C   C56       1.0  0.573388133505503  0.5019934557046853  0.1059647017381451  1.0000
  C   C57       1.0  0.49965980556840617  0.5014171349108169  0.21268579464553033  1.0000
  C   C58       1.0  0.5000050810883465  0.5011607475149873  0.24938954571704391  1.0000
  C   C59       1.0  0.5001185377253918  0.5008031367450059  0.29167630431403063  1.0000
  C   C60       1.0  0.427745064868759  0.5005631706309542  0.31452781843650257  1.0000
  C   C61       1.0  0.4264499702505019  0.5001837571108821  0.356143982890714  1.0000
  C   C62       1.0  0.5001205909491019  0.49996836668655936  0.37683498248783553  1.0000
  C   C63       1.0  0.5737921187915092  0.5003259945728403  0.35571209067436627  1.0000
  C   C64       1.0  0.5724975711526953  0.5007027046991794  0.3141001887580828  1.0000
  C   C65       1.0  0.7489849814721905  0.548400517820312  0.937060510216554  1.0000
  C   C66       1.0  0.8329062286699694  0.5495594345066478  0.9367647269860483  1.0000
  C   C67       1.0  0.8784342069488033  0.5030441087087142  0.9621778661181821  1.0000
  C   C68       1.0  0.8323638724292478  0.4562666476685636  0.987481283799532  1.0000
  C   C69       1.0  0.7484238993991711  0.45683216229960527  0.9868608898819459  1.0000
  C   C70       1.0  0.9634619854055939  0.5031500526060456  0.9622047238422764  1.0000
  C   C71       1.0  0.037144656243626194  0.5030409445830131  0.9621933555229703  1.0000
  C   C72       1.0  0.12217545106448569  0.5028742888218857  0.9620984852906245  1.0000
  C   C73       1.0  0.16821121924790108  0.549445467877085  0.9366777899809974  1.0000
  C   C74       1.0  0.2521442334271952  0.548389874724002  0.9369584939448998  1.0000
  C   C75       1.0  0.2517428397210963  0.4566576352086285  0.9866512239063779  1.0000
  C   C76       1.0  0.16778416799469648  0.4560646082541382  0.9873282334856341  1.0000
  C   C77       1.0  0.49988990559394597  0.732294179876348  0.9610781177910965  1.0000
  C   C78       1.0  0.4263068294674426  0.7711465545114181  0.961093354388204  1.0000
  C   C79       1.0  0.427688861637776  0.8481529678460903  0.9610856447103018  1.0000
  C   C80       1.0  0.5000917746005841  0.8900033366578982  0.9611315109311107  1.0000
  C   C81       1.0  0.5723870446899254  0.8479617091744772  0.9611552738128566  1.0000
  C   C82       1.0  0.5735795642026744  0.7709423861558022  0.9611493789064838  1.0000
  C   C83       1.0  0.5001603702599623  0.9682880781060632  0.9612280410180816  1.0000
  C   C84       1.0  0.5001390790791048  0.036223201323302597  0.9613591886785571  1.0000
  C   C85       1.0  0.5000637976839002  0.1144973887045992  0.9615689546945845  1.0000
  C   C86       1.0  0.4276592385713939  0.15637854639597754  0.9616574044002986  1.0000
  C   C87       1.0  0.42628617053583173  0.233384573984516  0.9618720921166284  1.0000
  C   C88       1.0  0.4998800021845682  0.272163194486943  0.9619742812345249  1.0000
  C   C89       1.0  0.5735789848626638  0.2334919164849864  0.9618549987701427  1.0000
  C   C90       1.0  0.5723708288916498  0.15647873709546192  0.9616605099690501  1.0000
  C   C91       1.0  0.26815098648005176  0.5010727527623688  0.7741346150242379  1.0000
  C   C92       1.0  0.7320341166099597  0.5004585257279287  0.6879381522336769  1.0000
  N   N1        1.0  0.29123721529923324  0.5000133318914523  0.5003104132055114  1.0000
  N   N2        1.0  0.70801374409438  0.5000348885125092  0.5004220400848851  1.0000
  N   N3        1.0  0.7086800701619538  0.5024325298230394  0.9618641422693271  1.0000
  N   N4        1.0  0.2920230350878086  0.5023797514481103  0.9616913445890987  1.0000
  O   O1        1.0  0.5689397885661336  0.6142938805653557  0.5010482467583088  1.0000
  O   O2        1.0  0.43147152897007846  0.6141616923309529  0.5012466329712949  1.0000
  O   O3        1.0  0.4286905911693068  0.500807553822334  0.5624224001610045  1.0000
  O   O4        1.0  0.5659407274802106  0.50053877588892  0.5618449152306509  1.0000
  O   O5        1.0  0.43169182938228085  0.3857793095905393  0.5000391917608695  1.0000
  O   O6        1.0  0.5691656620408451  0.38558138902732253  0.49952676244271993  1.0000
  O   O7        1.0  0.5686863541329925  0.49949106283295214  0.43922878812905  1.0000
  O   O8        1.0  0.431249347741918  0.49922962325639736  0.439506630878391  1.0000
  O   O9        1.0  0.4309172306382861  0.6166507650679734  0.9611080305102958  1.0000
  O   O10       1.0  0.5683773392019018  0.6163839771391366  0.9610436810446288  1.0000
  O   O11       1.0  0.5716119741847407  0.5026805491631876  0.8996877924416251  1.0000
  O   O12       1.0  0.43436583373693327  0.5022565686709015  0.9002669751324602  1.0000
  O   O13       1.0  0.5684278363262862  0.3879563360854306  0.9617302438351132  1.0000
  O   O14       1.0  0.43096441938889274  0.3878360302805604  0.9622548651851233  1.0000
  O   O15       1.0  0.431291522949202  0.5020346287720017  0.02282628026280519  1.0000
  O   O16       1.0  0.5687238391682711  0.5016278600398182  0.022603827181278298  1.0000
  F   F1        1.0  0.1291539361403622  0.4070143031476546  0.449079181937762  1.0000
  F   F2        1.0  0.12723847775961158  0.5932747123149085  0.5508898667252851  1.0000
  F   F3        1.0  0.8713259748388466  0.40695526518018715  0.4491754567556612  1.0000
  F   F4        1.0  0.8708694356329119  0.593246584683314  0.5509656589898314  1.0000
  F   F5        1.0  0.3566597931738328  0.8836993694216061  0.49980499172109205  1.0000
  F   F6        1.0  0.6433717424915314  0.8837176561855101  0.4999827827615277  1.0000
  F   F7        1.0  0.3566309972183247  0.1164183141605974  0.49992987900782276  1.0000
  F   F8        1.0  0.6433453116053938  0.11597620281201425  0.5000255696175698  1.0000
  F   F9        1.0  0.6429662926395066  0.5017128408102138  0.1679278910714928  1.0000
  F   F10       1.0  0.35623404346264204  0.501704518271083  0.1686562262217635  1.0000
  F   F11       1.0  0.6434848636902898  0.5010115593513761  0.2933596796388541  1.0000
  F   F12       1.0  0.3567619816366444  0.5007313302932347  0.29421357401885456  1.0000
  F   F13       1.0  0.8711401860928801  0.41007827778522454  0.0127051764196153  1.0000
  F   F14       1.0  0.8722285382101517  0.5959768131943619  0.9116063688413191  1.0000
  F   F15       1.0  0.128538151797116  0.4097966766460459  0.0125502829246855  1.0000
  F   F16       1.0  0.12936094205686996  0.5958468074026584  0.9115445607000439  1.0000
  F   F17       1.0  0.6434573316065623  0.8858380737677578  0.9611965445117362  1.0000
  F   F18       1.0  0.3567069386899746  0.8861971073492754  0.9610474220470946  1.0000
  F   F19       1.0  0.6434309760610829  0.11854317328651828  0.9614822442966471  1.0000
  F   F20       1.0  0.35668770160446434  0.11835107458443872  0.9614523149000076  1.0000
