data_image0
_chemical_formula_structural       Ag4H20C20N8O16
_chemical_formula_sum              "Ag4 H20 C20 N8 O16"
_cell_length_a       3.6769416823919427
_cell_length_b       9.386737576604025
_cell_length_c       21.8612232683948
_cell_angle_alpha    102.78320416585697
_cell_angle_beta     90.06253973634901
_cell_angle_gamma    101.33768839380873

_space_group_name_H-M_alt    "P 1"
_space_group_IT_number       1

loop_
  _space_group_symop_operation_xyz
  'x, y, z'

loop_
  _atom_site_type_symbol
  _atom_site_label
  _atom_site_symmetry_multiplicity
  _atom_site_fract_x
  _atom_site_fract_y
  _atom_site_fract_z
  _atom_site_occupancy
  Ag  Ag1       1.0  0.8905569793474869  0.11834122333890919  0.5513569547087511  1.0000
  Ag  Ag2       1.0  0.7710002361794183  0.8813671308046266  0.9488067074549489  1.0000
  Ag  Ag3       1.0  0.10945974094869357  0.8816649129202004  0.4486448293537746  1.0000
  Ag  Ag4       1.0  0.22902192464028556  0.11863900529014158  0.05119553458420969  1.0000
  H   H1        1.0  0.955316799476229  0.6471429929414966  0.5197479014126996  1.0000
  H   H2        1.0  0.30292878510951476  0.35121910079030266  0.9800039272616555  1.0000
  H   H3        1.0  0.044708226297039654  0.35287430388932955  0.4802531209561066  1.0000
  H   H4        1.0  0.6970326792304392  0.6487636079229375  0.0199937812324151  1.0000
  H   H5        1.0  0.7764593659481847  0.49776920110587514  0.6021189608183305  1.0000
  H   H6        1.0  0.2757351129482614  0.5020744309728542  0.8980991078249186  1.0000
  H   H7        1.0  0.223551350420415  0.5022358340125807  0.3978781430195041  1.0000
  H   H8        1.0  0.7242455425658534  0.4979194239259144  0.10190287046799537  1.0000
  H   H9        1.0  0.45458494323140286  0.8161376285157615  0.7388901802501449  1.0000
  H   H10       1.0  0.63740748389327  0.185643749973714  0.7610667090966029  1.0000
  H   H11       1.0  0.5454157970813682  0.1838528827620109  0.2611123952587206  1.0000
  H   H12       1.0  0.36259019327890474  0.8143623907654458  0.23893232884235252  1.0000
  H   H13       1.0  0.6604104408426964  0.9807710579279387  0.6629208325120215  1.0000
  H   H14       1.0  0.6739763479777211  0.019275302497831603  0.8364395424086907  1.0000
  H   H15       1.0  0.33960509644538206  0.0192272465012238  0.3370875214507335  1.0000
  H   H16       1.0  0.3260152535668083  0.9807241547391214  0.1635561112375896  1.0000
  H   H17       1.0  0.032897010805775964  0.595427065645282  0.7052292863983138  1.0000
  H   H18       1.0  0.4362090427144096  0.4061047535648398  0.7950580723897002  1.0000
  H   H19       1.0  0.9670923598559682  0.40456791764604105  0.29476959867007924  1.0000
  H   H20       1.0  0.5637799187934647  0.593900260343709  0.20494360149163524  1.0000
  C   C1        1.0  0.32485383272252466  0.8277718326212592  0.5845064921210008  1.0000
  C   C2        1.0  0.4899404152471688  0.17095907260333118  0.9149521914406404  1.0000
  C   C3        1.0  0.6751433651457219  0.1722387516877291  0.4154980024093574  1.0000
  C   C4        1.0  0.5100374397800707  0.829029225788183  0.08504330864057857  1.0000
  C   C5        1.0  0.07282496579149006  0.6871260008910837  0.5677443703227067  1.0000
  C   C6        1.0  0.3809464238262025  0.31184782113138004  0.9320305862810297  1.0000
  C   C7        1.0  0.9271902247427375  0.3128879446318962  0.4322572454423791  1.0000
  C   C8        1.0  0.6190270416522096  0.6881371101684762  0.06797053799454737  1.0000
  C   C9        1.0  0.9724572733681783  0.604369608991668  0.6117367411788448  1.0000
  C   C10       1.0  0.36500927636320296  0.3955446095812291  0.8883294831965427  1.0000
  C   C11       1.0  0.02755016837631528  0.39563429756989166  0.38826391386014325  1.0000
  C   C12       1.0  0.6349644052487519  0.6044570656793836  0.11166866784728306  1.0000
  C   C13       1.0  0.354484354680622  0.7876294245961971  0.6900466409108217  1.0000
  C   C14       1.0  0.5643055965326554  0.21334572855103323  0.8098249065140376  1.0000
  C   C15       1.0  0.6455240606551412  0.21236554952923828  0.3099563621275719  1.0000
  C   C16       1.0  0.43568015378446734  0.7866637641533246  0.19017170612212905  1.0000
  C   C17       1.0  0.46380809243041904  0.8752408676549379  0.6482496144111634  1.0000
  C   C18       1.0  0.583473947466061  0.12473541319357649  0.8513027182732809  1.0000
  C   C19       1.0  0.5362015131468212  0.12476191643317948  0.35175322067703246  1.0000
  C   C20       1.0  0.4165088636140766  0.875257344222902  0.14869412355452022  1.0000
  N   N1        1.0  0.11218144518595338  0.6553639686443374  0.6716976903654482  1.0000
  N   N2        1.0  0.4546994866995107  0.3455076291632153  0.8283847509499721  1.0000
  N   N3        1.0  0.8878242454963541  0.34463101883981306  0.3283011967863984  1.0000
  N   N4        1.0  0.5452865350547142  0.6544806510193981  0.17161669484085706  1.0000
  N   N5        1.0  0.3259665662221138  0.2997513298855523  0.6650607833471296  1.0000
  N   N6        1.0  0.027474311726102423  0.7015610706066084  0.8352275198328055  1.0000
  N   N7        1.0  0.6740691167146339  0.7002492460850505  0.3349372689745137  1.0000
  N   N8        1.0  0.9725205732259069  0.2984394886341377  0.16477235640878254  1.0000
  O   O1        1.0  0.42319265265317096  0.9083961926699048  0.5438955689724734  1.0000
  O   O2        1.0  0.5033249937786763  0.0888544683765957  0.955122953161442  1.0000
  O   O3        1.0  0.5767894190526731  0.09162218647531262  0.4561119564992352  1.0000
  O   O4        1.0  0.49663598092395494  0.9111327151454208  0.044871066281125103  1.0000
  O   O5        1.0  0.34617381392205704  0.2979006320102259  0.6054975780809924  1.0000
  O   O6        1.0  0.048350475078514255  0.7022234051679844  0.8946982541147859  1.0000
  O   O7        1.0  0.6538923488397616  0.7021010638858485  0.39450149933337986  1.0000
  O   O8        1.0  0.9516237678708136  0.297779377645405  0.10530229004852028  1.0000
  O   O9        1.0  0.10585337541539269  0.1977557796363385  0.6824438780812725  1.0000
  O   O10       1.0  0.910347814747574  0.8040765012668487  0.8181294269254306  1.0000
  O   O11       1.0  0.8941653492966425  0.8022381178465848  0.31754850214800706  1.0000
  O   O12       1.0  0.08965738836409537  0.19592295477828967  0.18186760030349794  1.0000
  O   O13       1.0  0.5313764619716254  0.4047213519126062  0.7032983613259843  1.0000
  O   O14       1.0  0.12817547380991806  0.5972506935926276  0.7967662039289177  1.0000
  O   O15       1.0  0.4686411560823983  0.595270282044403  0.2967034084107992  1.0000
  O   O16       1.0  0.8718205302001747  0.4027520916873043  0.20323525757662955  1.0000
