data_image0
_chemical_formula_structural       Fe6H6C24N18Cl6O6
_chemical_formula_sum              "Fe6 H6 C24 N18 Cl6 O6"
_cell_length_a       7.951629262305964
_cell_length_b       14.034334009957899
_cell_length_c       14.034315737449045
_cell_angle_alpha    116.54466222294995
_cell_angle_beta     100.87993066031723
_cell_angle_gamma    100.87984274863908

_space_group_name_H-M_alt    "P 1"
_space_group_IT_number       1

loop_
  _space_group_symop_operation_xyz
  'x, y, z'

loop_
  _atom_site_type_symbol
  _atom_site_label
  _atom_site_symmetry_multiplicity
  _atom_site_fract_x
  _atom_site_fract_y
  _atom_site_fract_z
  _atom_site_occupancy
  Fe  Fe1       1.0  0.2820177637852694  0.28199496038843114  0.5639334123937303  1.0000
  Fe  Fe2       1.0  0.7179796147500639  0.43606571371070413  0.7180038980398109  1.0000
  Fe  Fe3       1.0  0.9999994134190047  0.2820408093314413  0.7179602560530257  1.0000
  Fe  Fe4       1.0  0.7179794549440075  0.7180037775854728  0.43606364302972644  1.0000
  Fe  Fe5       1.0  0.28201969804614885  0.563937214560859  0.2819959657113174  1.0000
  Fe  Fe6       1.0  0.9999991571961431  0.7179606697865427  0.2820377356365358  1.0000
  H   H1        1.0  0.18269179292684606  0.99999773174396  0.4199273797932365  1.0000
  H   H2        1.0  0.8173071979165698  0.5800697907255952  0.9999997240615883  1.0000
  H   H3        1.0  0.18268779776507674  0.4199284242905392  0.9999951871807581  1.0000
  H   H4        1.0  0.762839543118666  0.5801679386928313  0.5801689072336061  1.0000
  H   H5        1.0  0.23716575028214484  0.4198341524470948  0.41983549925361535  1.0000
  H   H6        1.0  0.8173096615640532  4.358602737399955e-06  0.5800730519765338  1.0000
  C   C1        1.0  0.4600225401683886  0.0980758837192468  0.526820435769814  1.0000
  C   C2        1.0  0.539975565936011  0.47317808802031175  0.9019237768000608  1.0000
  C   C3        1.0  0.36188703107193015  0.4288050877774694  0.901895768126778  1.0000
  C   C4        1.0  0.9331754834794238  0.47320046783302416  0.5712532293683382  1.0000
  C   C5        1.0  0.0668326255205614  0.4287520547712091  0.526806415362401  1.0000
  C   C6        1.0  0.6381090669465977  0.0981040371893442  0.571195390354184  1.0000
  C   C7        1.0  0.539980612116551  0.9019270451607894  0.47318269013902653  1.0000
  C   C8        1.0  0.46001699636607896  0.5268164601124922  0.09807162080272754  1.0000
  C   C9        1.0  0.6381063685096464  0.5711911365852559  0.09810118034292262  1.0000
  C   C10       1.0  0.0668365842293852  0.5268074893344022  0.42875452311271545  1.0000
  C   C11       1.0  0.9331739252464998  0.5712525502516996  0.4731985360258406  1.0000
  C   C12       1.0  0.361892384650261  0.9018980540811511  0.4288086042143178  1.0000
  C   C13       1.0  0.3173152306122943  0.9999914421103354  0.4536066435630914  1.0000
  C   C14       1.0  0.6826830086777705  0.5463909383573976  6.525982002003598e-06  1.0000
  C   C15       1.0  0.31731295442168067  0.45360528517925064  0.9999878468612026  1.0000
  C   C16       1.0  0.8637680407781758  0.5464485090740965  0.5464485785878069  1.0000
  C   C17       1.0  0.13623552985710316  0.4535552580132816  0.45355567903435906  1.0000
  C   C18       1.0  0.6826853598911953  1.148704149759994e-05  0.5463969202930059  1.0000
  C   C19       1.0  0.20847924913899618  0.2081773628739469  0.4166192440224846  1.0000
  C   C20       1.0  0.7915142238048317  0.5833792304931789  0.7918201905191393  1.0000
  C   C21       1.0  1.4550187046273704e-05  0.20841397892305477  0.7915944072456186  1.0000
  C   C22       1.0  0.7915154322015211  0.7918188610757396  0.5833764166339676  1.0000
  C   C23       1.0  0.20848380781125536  0.41662369800666704  0.2081802484854904  1.0000
  C   C24       1.0  0.9999933299667063  0.7915855974642981  0.20840701602033823  1.0000
  N   N1        1.0  0.46660103608104464  0.20851988851941877  0.571130773261352  1.0000
  N   N2        1.0  0.5333983601060908  0.42886725802322456  0.7914785188734186  1.0000
  N   N3        1.0  0.25803434429379013  0.36273562201915865  0.7914617119365844  1.0000
  N   N4        1.0  0.8954181497479111  0.42888369943672433  0.6373379818931398  1.0000
  N   N5        1.0  0.10458138632223066  0.3626620044184249  0.5711171910809085  1.0000
  N   N6        1.0  0.7419627548572264  0.2085367797292434  0.6372642588516798  1.0000
  N   N7        1.0  0.5334004178310394  0.7914822020120412  0.42887037106816456  1.0000
  N   N8        1.0  0.4665971596715296  0.5711306417868584  0.20851726753046054  1.0000
  N   N9        1.0  0.7419611760626382  0.637262277606169  0.20853336190755567  1.0000
  N   N10       1.0  0.10458202356285538  0.5711183911382562  0.3626630251301393  1.0000
  N   N11       1.0  0.895417530779902  0.6373375719040555  0.42888184592186473  1.0000
  N   N12       1.0  0.2580378373826875  0.7914661488683096  0.36273716732518585  1.0000
  N   N13       1.0  0.6352772266349476  0.27053110427610244  0.6351844928470031  1.0000
  N   N14       1.0  0.36472075933104253  0.364814512520013  0.729467165082923  1.0000
  N   N15       1.0  0.9999981586774639  0.3647826731197341  0.6352164826375173  1.0000
  N   N16       1.0  0.36472422785594444  0.7294709860705949  0.36481593892277425  1.0000
  N   N17       1.0  0.6352738993532085  0.6351842251714147  0.27052819060855887  1.0000
  N   N18       1.0  0.9999982923204483  0.6352171303661293  0.36478195855811896  1.0000
  Cl  Cl1       1.0  0.5000000080682483  0.42233159054962505  0.5776658523078098  1.0000
  Cl  Cl2       1.0  0.07771565121238669  0.1553866954883887  0.5776206718785275  1.0000
  Cl  Cl3       1.0  0.9222817480814101  0.42238057009088686  0.8446115765156536  1.0000
  Cl  Cl4       1.0  0.5000010518861799  0.5776671474784721  0.4223323275941128  1.0000
  Cl  Cl5       1.0  0.9222790068930562  0.8446120423878013  0.4223753963727006  1.0000
  Cl  Cl6       1.0  0.07771884705254448  0.5776223575828752  0.15538628686248762  1.0000
  O   O1        1.0  0.15988817648517537  0.1592529431403236  0.3191996275183868  1.0000
  O   O2        1.0  0.8401052971030011  0.6807985754012192  0.8407441972948675  1.0000
  O   O3        1.0  3.365365248698462e-05  0.1597247048551154  0.8402995553847816  1.0000
  O   O4        1.0  0.8401065286692101  0.8407407666980972  0.6807949129835507  1.0000
  O   O5        1.0  0.15989615680909003  0.3192035151302406  0.159256947034649  1.0000
  O   O6        1.0  0.9999852632787876  0.8402815748974675  0.1597039072680816  1.0000
