data_image0
_chemical_formula_structural       Zn2H24C42S2N4O14
_chemical_formula_sum              "Zn2 H24 C42 S2 N4 O14"
_cell_length_a       13.731482537305975
_cell_length_b       14.090554230875567
_cell_length_c       14.990007385687456
_cell_angle_alpha    87.46798291985863
_cell_angle_beta     90.25154326380856
_cell_angle_gamma    82.44481322851293

_space_group_name_H-M_alt    "P 1"
_space_group_IT_number       1

loop_
  _space_group_symop_operation_xyz
  'x, y, z'

loop_
  _atom_site_type_symbol
  _atom_site_label
  _atom_site_symmetry_multiplicity
  _atom_site_fract_x
  _atom_site_fract_y
  _atom_site_fract_z
  _atom_site_occupancy
  Zn  Zn1       1.0  0.49111660116120265  0.6078102102894006  0.48951705383429084  1.0000
  Zn  Zn2       1.0  0.5140058275194406  0.38887284917611703  0.5197626953156484  1.0000
  H   H1        1.0  0.9804360063772891  0.551834675490369  0.3977128262511157  1.0000
  H   H2        1.0  0.3945093822593719  0.27396785910981697  0.42822261849841664  1.0000
  H   H3        1.0  0.6756709266941741  0.8580667905653243  0.6409721759725141  1.0000
  H   H4        1.0  0.30555578645402204  0.14352588790626442  0.3629400430625366  1.0000
  H   H5        1.0  0.6839263557337105  0.0294145314060756  0.659870916087719  1.0000
  H   H6        1.0  0.2984810766869188  0.9743424535400464  0.3426573574770301  1.0000
  H   H7        1.0  0.6555868097781499  0.5918522723606187  0.3285666995253677  1.0000
  H   H8        1.0  0.3004856672905803  0.5944293332279288  0.6608528008154902  1.0000
  H   H9        1.0  0.3370332883375156  0.8480320237876171  0.31272633340748957  1.0000
  H   H10       1.0  0.3890342116959148  0.7299934579246427  0.2220194680892574  1.0000
  H   H11       1.0  0.36984512968873423  0.650375108888234  0.3147229258023571  1.0000
  H   H12       1.0  0.023444135825066312  0.4643916926811755  0.5892026925130691  1.0000
  H   H13       1.0  0.48774498745397926  0.6869246729358521  0.29681204891413404  1.0000
  H   H14       1.0  0.6497166888198934  0.1785633144395291  0.6816225675400458  1.0000
  H   H15       1.0  0.7762000231094461  0.14855350921121874  0.5674944181795067  1.0000
  H   H16       1.0  0.7809785515154317  0.2594086551558519  0.6214198249828511  1.0000
  H   H17       1.0  0.725640907104456  0.26110773116533886  0.5148646603522093  1.0000
  H   H18       1.0  0.39549527207856994  0.45092740850642343  0.2446827588570172  1.0000
  H   H19       1.0  0.6164996168075589  0.5461836163217056  0.761336839459602  1.0000
  H   H20       1.0  0.7582417819982297  0.5337695402993319  0.05183820970223248  1.0000
  H   H21       1.0  0.24853655241858524  0.48835084509789073  0.9564976879986059  1.0000
  H   H22       1.0  0.7264443274337824  0.5527409564261562  0.8906489806102227  1.0000
  H   H23       1.0  0.28215768862393287  0.46189708086647846  0.11664096772965847  1.0000
  H   H24       1.0  0.5997569267842877  0.7294604526754184  0.5645183637716967  1.0000
  C   C1        1.0  0.46230237248735057  0.5251244442117836  0.6699351396329759  1.0000
  C   C2        1.0  0.34066275854171835  0.4776123281577824  0.0714912357188879  1.0000
  C   C3        1.0  0.43129487001534983  0.8217398995954355  0.41521764649714027  1.0000
  C   C4        1.0  0.5701231075343287  0.1788143701003335  0.5692854285453776  1.0000
  C   C5        1.0  0.5518004799370858  0.785863935327903  0.5278149467865345  1.0000
  C   C6        1.0  0.4408801532667255  0.21669736239558554  0.4652586316793686  1.0000
  C   C7        1.0  0.5557493881954443  0.8816964719383197  0.544062439034995  1.0000
  C   C8        1.0  0.4283256076563262  0.12032028511707438  0.4571084922147789  1.0000
  C   C9        1.0  0.4881683222427783  0.9512734256610927  0.49613816761416957  1.0000
  C   C10       1.0  0.4920078918413609  0.05034489079977789  0.507960260962008  1.0000
  C   C11       1.0  0.4219885392108226  0.9221374679892805  0.433564067829188  1.0000
  C   C12       1.0  0.5474668140637606  0.4732531706469559  0.33758615062037467  1.0000
  C   C13       1.0  0.563441473887579  0.0795597949667766  0.5663477391674616  1.0000
  C   C14       1.0  0.624751101558637  0.9123668524310988  0.6046724141394006  1.0000
  C   C15       1.0  0.3571602565938434  0.08966987741936092  0.3989821563021606  1.0000
  C   C16       1.0  0.3209267475478016  0.5030089093074538  0.46618129077229725  1.0000
  C   C17       1.0  0.6828460227417708  0.49924356113006507  0.5386438527677768  1.0000
  C   C18       1.0  0.6289378230985179  0.007584677042501699  0.6152714025109701  1.0000
  C   C19       1.0  0.35446754234315153  0.9940590359174665  0.3876077496199882  1.0000
  C   C20       1.0  0.7876353988891724  0.4996294623257  0.5438100145741129  1.0000
  C   C21       1.0  0.216235399919519  0.5109378859286053  0.4534066938293647  1.0000
  C   C22       1.0  0.9786777533175343  0.4933159502481034  0.5312404167354712  1.0000
  C   C23       1.0  0.5135052400761211  0.502524169668682  0.050964753795383885  1.0000
  C   C24       1.0  0.024129061758927192  0.5226412864059427  0.456176899829657  1.0000
  C   C25       1.0  0.1267304909461515  0.5171349664668554  0.4525053646013574  1.0000
  C   C26       1.0  0.8765327209081166  0.4975947639645212  0.5382752633231431  1.0000
  C   C27       1.0  0.4542309974948255  0.46771055116676064  0.20031866030162593  1.0000
  C   C28       1.0  0.5557230378990142  0.5381033150007042  0.8065356155663319  1.0000
  C   C29       1.0  0.5456368545769267  0.4768004716598996  0.23696508367774521  1.0000
  C   C30       1.0  0.4630361249206345  0.5312949226471987  0.770335079375563  1.0000
  C   C31       1.0  0.6234899125614533  0.49725378974005713  0.18113521428214338  1.0000
  C   C32       1.0  0.3838338094119393  0.5221855774960389  0.8273368342266347  1.0000
  C   C33       1.0  0.609564334982345  0.5093004244219513  0.08724861080641226  1.0000
  C   C34       1.0  0.4946787782250227  0.5152921186325656  0.9572170334904511  1.0000
  C   C35       1.0  0.3984828093558335  0.5109332813752304  0.9214193117589884  1.0000
  C   C36       1.0  0.40848894885369447  0.7101802815326934  0.2920451642517817  1.0000
  C   C37       1.0  0.7364258742326941  0.22037296288331737  0.5787438870265971  1.0000
  C   C38       1.0  0.4358213305050216  0.4821460598556797  0.10845723906123077  1.0000
  C   C39       1.0  0.5727960550729705  0.5322266337218055  0.8986864575287821  1.0000
  C   C40       1.0  0.6854380507740815  0.5283455913415763  0.0257025220273235  1.0000
  C   C41       1.0  0.3219991642083145  0.4925958301710979  0.982132910520583  1.0000
  C   C42       1.0  0.6674023130802382  0.539073696264751  0.9360320367597548  1.0000
  S   S1        1.0  0.7380226766121682  0.5041049606255753  0.23838100964086806  1.0000
  S   S2        1.0  0.2594334131747331  0.5306902292801396  0.7873537224500351  1.0000
  N   N1        1.0  0.49178383449244484  0.7557133269687596  0.46616193485636603  1.0000
  N   N2        1.0  0.5095360755945393  0.2439773750867005  0.5188736780069829  1.0000
  N   N3        1.0  0.3820651091762245  0.7944058097551475  0.3443498776994075  1.0000
  N   N4        1.0  0.6403154959656946  0.21555047873457056  0.6215846789717145  1.0000
  O   O1        1.0  0.43633163506810047  0.6014336340063124  0.6213561340198621  1.0000
  O   O2        1.0  0.8170020145689635  0.5177366383378228  0.17861899816301724  1.0000
  O   O3        1.0  0.7129202677152835  0.6020878087839988  0.28705602918825684  1.0000
  O   O4        1.0  0.22049026870583077  0.4420709473889133  0.8053369856619095  1.0000
  O   O5        1.0  0.20896812698862993  0.6190464448259829  0.8187922522256057  1.0000
  O   O6        1.0  0.26784175054446996  0.5387195340253896  0.6812090524368698  1.0000
  O   O7        1.0  0.5200650772330134  0.40177814046359134  0.3781326874859586  1.0000
  O   O8        1.0  0.4944994588645671  0.4430530708949974  0.644257572399553  1.0000
  O   O9        1.0  0.5666355567966477  0.549828235951182  0.3748778732057189  1.0000
  O   O10       1.0  0.36143417806945183  0.5775317127204007  0.44391164530087196  1.0000
  O   O11       1.0  0.6542795110489621  0.419356921461997  0.5243799844965977  1.0000
  O   O12       1.0  0.36353468067765954  0.42395635527838493  0.49911741664219267  1.0000
  O   O13       1.0  0.6286917694058545  0.5792643635951222  0.5472485179422717  1.0000
  O   O14       1.0  0.7496632190783927  0.4252208704705467  0.30393942895061327  1.0000
