data_image0
_chemical_formula_structural       K2Co2H28C16N4O20
_chemical_formula_sum              "K2 Co2 H28 C16 N4 O20"
_cell_length_a       5.0753274134218325
_cell_length_b       11.095927849413279
_cell_length_c       12.223570906758248
_cell_angle_alpha    90.00085040781806
_cell_angle_beta     98.28248310578867
_cell_angle_gamma    89.99945024382687

_space_group_name_H-M_alt    "P 1"
_space_group_IT_number       1

loop_
  _space_group_symop_operation_xyz
  'x, y, z'

loop_
  _atom_site_type_symbol
  _atom_site_label
  _atom_site_symmetry_multiplicity
  _atom_site_fract_x
  _atom_site_fract_y
  _atom_site_fract_z
  _atom_site_occupancy
  K   K1        1.0  0.9999912630356534  0.9999913709914168  0.4999994161961255  1.0000
  K   K2        1.0  6.41283575930103e-06  0.4999995463778575  0.9999919535496672  1.0000
  Co  Co1       1.0  0.49999600091879165  2.5980953352999995e-06  2.126869986806705e-06  1.0000
  Co  Co2       1.0  0.4999979043117906  0.49999904013895946  0.4999989237116296  1.0000
  H   H1        1.0  0.1402356734491335  0.9820248552861698  0.11332410018653151  1.0000
  H   H2        1.0  0.14021456675884988  0.5179820438652528  0.6133145916147311  1.0000
  H   H3        1.0  0.8597582254876458  0.017975928748270992  0.8866809994967397  1.0000
  H   H4        1.0  0.8597891879696178  0.48202234500793384  0.3866820800954471  1.0000
  H   H5        1.0  0.6305198893352824  0.944290681023709  0.7352006767562854  1.0000
  H   H6        1.0  0.6305488045876402  0.5556999741484177  0.2352047931882524  1.0000
  H   H7        1.0  0.3694819286057651  0.05571280666027428  0.2648007913188692  1.0000
  H   H8        1.0  0.3694549321177618  0.44429720485947405  0.7647902412281765  1.0000
  H   H9        1.0  0.4744750163209233  0.08700424142288908  0.713079412727545  1.0000
  H   H10       1.0  0.4745230993155118  0.4129919011903381  0.21307399422658338  1.0000
  H   H11       1.0  0.5255208374923654  0.9129974438138362  0.2869225278389038  1.0000
  H   H12       1.0  0.5254806735763324  0.5870043766121853  0.786924314680462  1.0000
  H   H13       1.0  0.0439740808016822  0.28063196900959747  0.7094317845718903  1.0000
  H   H14       1.0  0.0439920431115937  0.21937035528335966  0.20943832819474298  1.0000
  H   H15       1.0  0.9560237097825139  0.7193724198793844  0.2905653596409791  1.0000
  H   H16       1.0  0.956001792521626  0.7806295274737775  0.790561041114273  1.0000
  H   H17       1.0  0.32134203891938995  0.7671985618490283  0.1920105286983116  1.0000
  H   H18       1.0  0.32136476481457527  0.7328088686026673  0.6920048690188307  1.0000
  H   H19       1.0  0.6786419589617054  0.23280312347161208  0.8079989058661494  1.0000
  H   H20       1.0  0.6786429901618759  0.26719191535132575  0.3079936706642954  1.0000
  H   H21       1.0  0.1004775417199966  0.7915537947108716  0.0679451942816698  1.0000
  H   H22       1.0  0.10047894769151358  0.7084534387846871  0.567950236800506  1.0000
  H   H23       1.0  0.8995183573490237  0.2084442856324457  0.932060839382373  1.0000
  H   H24       1.0  0.8995387896919954  0.2915518513311284  0.4320513356523321  1.0000
  H   H25       1.0  0.19910710058916686  0.25989623437459386  0.6110076984820481  1.0000
  H   H26       1.0  0.19910869134244547  0.24009938196068956  0.11100785097329438  1.0000
  H   H27       1.0  0.8008907262227327  0.7401027471513896  0.38899272019294523  1.0000
  H   H28       1.0  0.8008871715153771  0.7599023032825796  0.8889949082172349  1.0000
  C   C1        1.0  0.25165750870019815  0.960988116160962  0.792238939967639  1.0000
  C   C2        1.0  0.2516985947098079  0.5390085835898119  0.29223616987138706  1.0000
  C   C3        1.0  0.7483263354566533  0.0390099641223856  0.20775657796468744  1.0000
  C   C4        1.0  0.7483291071649988  0.4609822868126867  0.7077667979833178  1.0000
  C   C5        1.0  0.4838155034627364  0.9870458369328359  0.2272492034631668  1.0000
  C   C6        1.0  0.48379254291895535  0.5129588001774222  0.7272436091172736  1.0000
  C   C7        1.0  0.5161882964967077  0.012957650741526498  0.7727515613617015  1.0000
  C   C8        1.0  0.5162132210193205  0.48703928008507075  0.272754815174963  1.0000
  C   C9        1.0  0.6991841634343033  0.1885054961031968  0.888791702046788  1.0000
  C   C10       1.0  0.6992062758843148  0.3114925569151836  0.38878747763693866  1.0000
  C   C11       1.0  0.30081173566773606  0.8114889793140136  0.11121433159446067  1.0000
  C   C12       1.0  0.30081141625996827  0.6885145356309862  0.6112100017069082  1.0000
  C   C13       1.0  0.49883359819567363  0.24116540428687466  0.9570217787538624  1.0000
  C   C14       1.0  0.4988567114422082  0.2588237340819361  0.4570201627308705  1.0000
  C   C15       1.0  0.5011603098186656  0.758831774828003  0.04298413953068799  1.0000
  C   C16       1.0  0.5011530707918653  0.7411752474320752  0.5429817668109678  1.0000
  N   N1        1.0  0.3281008693816148  0.9438772217489128  0.12241738642570249  1.0000
  N   N2        1.0  0.32808703729302374  0.556126362791474  0.6224096404511171  1.0000
  N   N3        1.0  0.671894984472935  0.05611995733018198  0.8775845541122463  1.0000
  N   N4        1.0  0.6719167264964981  0.4438762236252032  0.3775878498717447  1.0000
  O   O1        1.0  0.20178561745229473  0.9626851510710137  0.8941894146110695  1.0000
  O   O2        1.0  0.20180671540591533  0.5373088768263372  0.394175645806591  1.0000
  O   O3        1.0  0.7982022721422483  0.03731292925194649  0.1058120644373943  1.0000
  O   O4        1.0  0.7981850205803127  0.462696413244572  0.6058137846738915  1.0000
  O   O5        1.0  0.08973380028754012  0.9185443294733133  0.7155982093036641  1.0000
  O   O6        1.0  0.0897719640592101  0.5814526955694674  0.21558194406386377  1.0000
  O   O7        1.0  0.9102720359658178  0.08145825699913438  0.28440676400969517  1.0000
  O   O8        1.0  0.9102137445452174  0.4185444833877056  0.7844022284994592  1.0000
  O   O9        1.0  0.37431824645631906  0.1612729068994128  0.010155259263505894  1.0000
  O   O10       1.0  0.3743411137036432  0.33873300511197607  0.5101592409579254  1.0000
  O   O11       1.0  0.6256736433779508  0.8387224697358703  0.9898480877636117  1.0000
  O   O12       1.0  0.6256607132819525  0.6612704825785511  0.4898430457413098  1.0000
  O   O13       1.0  0.5393093170467013  0.6488174164841991  0.037020324363801614  1.0000
  O   O14       1.0  0.5392940538260619  0.8511641220942536  0.5370157223488832  1.0000
  O   O15       1.0  0.4606825727215452  0.35118517000330474  0.9629830227089113  1.0000
  O   O16       1.0  0.460735611837741  0.14884206922150156  0.4629849051042783  1.0000
  O   O17       1.0  0.11016429282341278  0.21597533240506553  0.6656059192498985  1.0000
  O   O18       1.0  0.11017505247431811  0.2840242206363826  0.1656088414035466  1.0000
  O   O19       1.0  0.8898315248282032  0.7840245503424442  0.334392746808838  1.0000
  O   O20       1.0  0.8898188193288236  0.7159765633784402  0.8343938024074828  1.0000
