data_image0
_chemical_formula_structural       Cd2H20C28N4O10
_chemical_formula_sum              "Cd2 H20 C28 N4 O10"
_cell_length_a       6.099081892574127
_cell_length_b       7.476606231047813
_cell_length_c       15.016011202394989
_cell_angle_alpha    92.31118753087856
_cell_angle_beta     92.86868095380102
_cell_angle_gamma    84.87156517737996

_space_group_name_H-M_alt    "P 1"
_space_group_IT_number       1

loop_
  _space_group_symop_operation_xyz
  'x, y, z'

loop_
  _atom_site_type_symbol
  _atom_site_label
  _atom_site_symmetry_multiplicity
  _atom_site_fract_x
  _atom_site_fract_y
  _atom_site_fract_z
  _atom_site_occupancy
  Cd  Cd1       1.0  0.18260157561032733  0.7510339045985862  0.004558226842441107  1.0000
  Cd  Cd2       1.0  0.8173938380633954  0.24896552324118204  0.9954441631315448  1.0000
  H   H1        1.0  0.12430904523152717  0.6000101590874538  0.7046580370385982  1.0000
  H   H2        1.0  0.1284852208507203  0.9099907026093063  0.2996111093381231  1.0000
  H   H3        1.0  0.8756761252468194  0.40000692416472117  0.29533460995217814  1.0000
  H   H4        1.0  0.871533097574968  0.0899759118532799  0.7003828413697022  1.0000
  H   H5        1.0  0.5433499318896294  0.4144510900141967  0.8101748741494887  1.0000
  H   H6        1.0  0.49843566733190403  0.0943319364108817  0.1774550099990861  1.0000
  H   H7        1.0  0.4566454119751455  0.5855804551390522  0.1898141030875919  1.0000
  H   H8        1.0  0.5015663637264679  0.9056458781496278  0.8225496978583422  1.0000
  H   H9        1.0  0.6359974473131516  0.37896172285245205  0.5262507915539913  1.0000
  H   H10       1.0  0.5991595521947488  0.11444918788707528  0.4643465905128182  1.0000
  H   H11       1.0  0.3639781983184562  0.6210689978232722  0.4737373752159685  1.0000
  H   H12       1.0  0.40089873426249767  0.8855646625018352  0.535654473712313  1.0000
  H   H13       1.0  0.40784461669340283  0.3313469388495918  0.6555823878867884  1.0000
  H   H14       1.0  0.3545587305411999  0.1686321118333609  0.3282024900996561  1.0000
  H   H15       1.0  0.5921660830563624  0.6686842302918097  0.3444133466777188  1.0000
  H   H16       1.0  0.645467276642165  0.8313584888929599  0.6718052716372043  1.0000
  H   H17       1.0  0.6393984230920677  0.645708450736109  0.9878724486042927  1.0000
  H   H18       1.0  0.620804149833596  0.8258772021012035  0.04678633251899811  1.0000
  H   H19       1.0  0.3605641756758259  0.35426905932078523  0.012131328738384201  1.0000
  H   H20       1.0  0.37919042001104936  0.17407940731963836  0.9532292706653536  1.0000
  C   C1        1.0  0.9680963316569233  0.5401180434708053  0.6943538551747891  1.0000
  C   C2        1.0  0.959055245752147  0.9671005871572761  0.30538868328524427  1.0000
  C   C3        1.0  0.03187839141451578  0.4599127386952306  0.305642969070405  1.0000
  C   C4        1.0  0.04096638498911181  0.03287132263930201  0.6946100492959957  1.0000
  C   C5        1.0  0.8414201744515493  0.5128343251897577  0.7671024256459944  1.0000
  C   C6        1.0  0.8220418433533183  0.9964315667540263  0.228923046790662  1.0000
  C   C7        1.0  0.15856554782739343  0.48720286753418673  0.23289392034942583  1.0000
  C   C8        1.0  0.1779550356498945  0.0035504083605460007  0.7710823688549908  1.0000
  C   C9        1.0  0.6396931364175558  0.43664852384723934  0.7530441965016904  1.0000
  C   C10       1.0  0.6039630245378332  0.06985776633901962  0.2372194137022916  1.0000
  C   C11       1.0  0.3602911401873925  0.5633833357989885  0.24695004454095937  1.0000
  C   C12       1.0  0.3960360112960756  0.9301174515683712  0.7627865602248889  1.0000
  C   C13       1.0  0.8940936175059375  0.4906744688737135  0.6077620313155876  1.0000
  C   C14       1.0  0.8799248316578101  0.011541990010876182  0.3899357555611047  1.0000
  C   C15       1.0  0.10588439811645858  0.5093361311268154  0.39223778122460823  1.0000
  C   C16       1.0  0.1201200281730266  0.988432009036636  0.610067831560535  1.0000
  C   C17       1.0  0.919560012277131  0.5668883281009442  0.8591981222758136  1.0000
  C   C18       1.0  0.9123247338966677  0.9502561860730055  0.1399197522232143  1.0000
  C   C19       1.0  0.08041476627394668  0.4331183238107457  0.1407989322687939  1.0000
  C   C20       1.0  0.0876626757940073  0.0497394278619723  0.8600818499307934  1.0000
  C   C21       1.0  0.6905795830457747  0.41587648713906594  0.5940496824988557  1.0000
  C   C22       1.0  0.6596320678341671  0.08234607907664328  0.3981190978414304  1.0000
  C   C23       1.0  0.30940048731564224  0.5841407219160146  0.4059409342925093  1.0000
  C   C24       1.0  0.34042170602176475  0.9176383988330913  0.6018820719099196  1.0000
  C   C25       1.0  0.564967771805655  0.3896718437602261  0.6664529328152894  1.0000
  C   C26       1.0  0.5239474485669716  0.11150500089292592  0.3219016137971167  1.0000
  C   C27       1.0  0.43502174467139537  0.6103746077805495  0.3335376084617607  1.0000
  C   C28       1.0  0.4760783597856174  0.8884909762422738  0.6781082428885412  1.0000
  N   N1        1.0  0.03713703528547538  0.5186875729068207  0.5391163735033047  1.0000
  N   N2        1.0  0.03747187262072058  0.9845335968236598  0.4616497176299319  1.0000
  N   N3        1.0  0.9628248648983941  0.48131943263843624  0.4608839346553991  1.0000
  N   N4        1.0  0.9625844790334951  0.015438753057452504  0.5383525823708339  1.0000
  O   O1        1.0  0.5462379325475836  0.7137381001644911  0.032709458049623705  1.0000
  O   O2        1.0  0.4537473972587022  0.28621609430901174  0.9673113715636319  1.0000
  O   O3        1.0  0.8125125114099703  0.5270882387425145  0.9258260461339985  1.0000
  O   O4        1.0  0.7886272192968917  0.9785615541347995  0.0687383569486641  1.0000
  O   O5        1.0  0.18745385111263596  0.47290920749006915  0.0741607916209617  1.0000
  O   O6        1.0  0.2113681549021535  0.0214110503571803  0.9312608822982469  1.0000
  O   O7        1.0  0.09011150085367343  0.6542621033103092  0.8677858450868853  1.0000
  O   O8        1.0  0.10970904678944035  0.8802043103663452  0.1371759788501947  1.0000
  O   O9        1.0  0.909892405822994  0.3457290425619207  0.1322131191191716  1.0000
  O   O10       1.0  0.89029449450841  0.11981633937539023  0.8628235165469036  1.0000
