data_image0
_chemical_formula_structural       Cu4H28C40S4N4O12
_chemical_formula_sum              "Cu4 H28 C40 S4 N4 O12"
_cell_length_a       7.046342324690764
_cell_length_b       12.091383255052119
_cell_length_c       14.63680981666153
_cell_angle_alpha    92.86699811029112
_cell_angle_beta     90.01744458214876
_cell_angle_gamma    106.9669373813271

_space_group_name_H-M_alt    "P 1"
_space_group_IT_number       1

loop_
  _space_group_symop_operation_xyz
  'x, y, z'

loop_
  _atom_site_type_symbol
  _atom_site_label
  _atom_site_symmetry_multiplicity
  _atom_site_fract_x
  _atom_site_fract_y
  _atom_site_fract_z
  _atom_site_occupancy
  Cu  Cu1       1.0  0.4852528020527346  0.5307072842338627  0.3994939548445799  1.0000
  Cu  Cu2       1.0  0.04495825455720855  0.530673724160728  0.8995393053395303  1.0000
  Cu  Cu3       1.0  0.5147701634904751  0.46930707323984683  0.6004936713888398  1.0000
  Cu  Cu4       1.0  0.9550418952639393  0.4693205483968084  0.10046925527672097  1.0000
  H   H1        1.0  0.7357570313319997  0.6830383058178598  0.6835526736227493  1.0000
  H   H2        1.0  0.9466712859732882  0.6831338059186081  0.1833365192023066  1.0000
  H   H3        1.0  0.2642220831108375  0.31694230600663076  0.31642997573460707  1.0000
  H   H4        1.0  0.05335574938918343  0.3168631523019343  0.8166612357672915  1.0000
  H   H5        1.0  0.8624989353238706  0.8891168991768835  0.7349935888394582  1.0000
  H   H6        1.0  0.02615378588861716  0.8892469841318371  0.23482521161518827  1.0000
  H   H7        1.0  0.13749996685690047  0.11086353652785158  0.2650122833497122  1.0000
  H   H8        1.0  0.9738682519044843  0.11074566024335297  0.7651702942139025  1.0000
  H   H9        1.0  0.8591256518881354  0.04454513514441769  0.6274174418786911  1.0000
  H   H10       1.0  0.18569003817847127  0.04465991427102979  0.12737077422513468  1.0000
  H   H11       1.0  0.1408575667189212  0.9554464953879672  0.37259646134229735  1.0000
  H   H12       1.0  0.8142674692481863  0.9553370703627736  0.8726221944041511  1.0000
  H   H13       1.0  0.7450063624590088  0.9875971573812948  0.46789408665514287  1.0000
  H   H14       1.0  0.2430400055415092  0.9879038027959908  0.9678762268385837  1.0000
  H   H15       1.0  0.25495657790692416  0.0124135067085547  0.5321220600868556  1.0000
  H   H16       1.0  0.7569291626175316  0.012096630906313502  0.03211895149534169  1.0000
  H   H17       1.0  0.3623312634134876  0.7887961016376082  0.2107950384587056  1.0000
  H   H18       1.0  0.4274560293331433  0.7885858591124657  0.7109690719749651  1.0000
  H   H19       1.0  0.6376775541600284  0.21120699857768702  0.7891920671505801  1.0000
  H   H20       1.0  0.5725455325159461  0.21140839785484636  0.28904153768830537  1.0000
  H   H21       1.0  0.5978600838167907  0.8146447694293993  0.15765072819662856  1.0000
  H   H22       1.0  0.21801535559923466  0.8144978261228669  0.6576350758332978  1.0000
  H   H23       1.0  0.40213921993617424  0.18535916879616818  0.8423398315159147  1.0000
  H   H24       1.0  0.7819877163408011  0.1854852760249486  0.3423620378508119  1.0000
  H   H25       1.0  0.6528546075327244  0.646777958099932  0.2139782463870148  1.0000
  H   H26       1.0  0.9944963349052358  0.6469147194497465  0.7139914459683252  1.0000
  H   H27       1.0  0.34713257079786797  0.3532215967298952  0.7860189423426645  1.0000
  H   H28       1.0  0.005499815469441721  0.3530743999710851  0.2860114107316604  1.0000
  C   C1        1.0  0.6757986541867212  0.7147207032485239  0.5448102334762694  1.0000
  C   C2        1.0  0.039388214594176074  0.7148530678800357  0.0447807088260532  1.0000
  C   C3        1.0  0.32419311989984595  0.28528236806506874  0.45518028567957447  1.0000
  C   C4        1.0  0.9606498043566065  0.2851516576682229  0.9552208215620438  1.0000
  C   C5        1.0  0.742004406280664  0.7501696485194743  0.6358323356821669  1.0000
  C   C6        1.0  0.008201483946287143  0.7502905069057488  0.13572420984223035  1.0000
  C   C7        1.0  0.2579862901782022  0.2498255937460812  0.3641626045795191  1.0000
  C   C8        1.0  0.9918354743051128  0.24970642646982807  0.8642769608035151  1.0000
  C   C9        1.0  0.8089733660151952  0.8662929259850712  0.6646555157075651  1.0000
  C   C10       1.0  0.05735637934876806  0.8663814362155834  0.16457467539338916  1.0000
  C   C11       1.0  0.19102095358981336  0.13369537478902768  0.33534115407923787  1.0000
  C   C12       1.0  0.9426540723800801  0.1336164168946823  0.8354190203576051  1.0000
  C   C13       1.0  0.8090235436681825  0.9534056658898397  0.6049243170774758  1.0000
  C   C14       1.0  0.14488044109537404  0.9535199217614261  0.10490289057720759  1.0000
  C   C15       1.0  0.19095761478683224  0.04659036170688319  0.3950809070705858  1.0000
  C   C16       1.0  0.855121140100373  0.04647437734916339  0.8951022552595587  1.0000
  C   C17       1.0  0.7443018450127001  0.92103495980151  0.5157066833409232  1.0000
  C   C18       1.0  0.1773108703601167  0.9212618588752618  0.015672174679473003  1.0000
  C   C19       1.0  0.25567464168843673  0.07896024345355102  0.4842930366481042  1.0000
  C   C20       1.0  0.8226881580621851  0.0787471949711005  0.9843288694612723  1.0000
  C   C21       1.0  0.680070631022417  0.804015289585301  0.4831180842509751  1.0000
  C   C22       1.0  0.12455817622909392  0.8042073151080942  0.983100642139277  1.0000
  C   C23       1.0  0.3199287825850803  0.1959860302489034  0.5168750874980574  1.0000
  C   C24       1.0  0.8754578956801568  0.1958017676399634  0.016896988454902794  1.0000
  C   C25       1.0  0.625711426858274  0.7791386800523482  0.3873861927519896  1.0000
  C   C26       1.0  0.1540546839165556  0.7792331242853049  0.8874017147504174  1.0000
  C   C27       1.0  0.37429035445867953  0.2208730452914978  0.6126054097932964  1.0000
  C   C28       1.0  0.8459604997243276  0.220774179362742  0.11260198265602378  1.0000
  C   C29       1.0  0.5163407683272752  0.7882719453425863  0.22045908918756393  1.0000
  C   C30       1.0  0.2729672986623228  0.7881882418590962  0.7205313400164781  1.0000
  C   C31       1.0  0.48366759664789793  0.21173024688501837  0.7795334402519457  1.0000
  C   C32       1.0  0.7270301611407604  0.2118034961666098  0.2794689047590921  1.0000
  C   C33       1.0  0.5311967264446339  0.6706076215225635  0.24942178140783966  1.0000
  C   C34       1.0  0.1399753633699349  0.6705985592772948  0.7494977597510584  1.0000
  C   C35       1.0  0.4688052649080631  0.32939884596692076  0.7505777771236877  1.0000
  C   C36       1.0  0.8600195570811239  0.329396609878053  0.2505067425432586  1.0000
  C   C37       1.0  0.34727145351555316  0.567976314239736  0.22795769463827034  1.0000
  C   C38       1.0  0.22076918862205022  0.5678229139723853  0.7281260149933643  1.0000
  C   C39       1.0  0.6527242861608544  0.43203183645982784  0.7720480901302124  1.0000
  C   C40       1.0  0.7792380527771385  0.432171349116885  0.271883912139927  1.0000
  S   S1        1.0  0.6315851839490352  0.8914476046271248  0.31407311296893425  1.0000
  S   S2        1.0  0.2610408690988421  0.8914719533411097  0.8140400744624684  1.0000
  S   S3        1.0  0.3684160494250365  0.10856586272785049  0.6859172035002032  1.0000
  S   S4        1.0  0.7389386721291447  0.10852935823601231  0.1859537786957048  1.0000
  N   N1        1.0  0.5732652937259319  0.6765894215252857  0.34707844613663497  1.0000
  N   N2        1.0  0.10363278422982355  0.6766422704835975  0.8471366034171339  1.0000
  N   N3        1.0  0.426745874628729  0.32342404732427343  0.6529118711170907  1.0000
  N   N4        1.0  0.8963509761536913  0.3233589574475033  0.1528681777302907  1.0000
  O   O1        1.0  0.6128413239521606  0.6020002643741336  0.5203352899106122  1.0000
  O   O2        1.0  0.9894733577961716  0.6020939645155677  0.02034142108898609  1.0000
  O   O3        1.0  0.38714947135814987  0.3980036883740894  0.47965322019449264  1.0000
  O   O4        1.0  0.010559833597923758  0.3979124549920882  0.9796649696915195  1.0000
  O   O5        1.0  0.2999396272808428  0.4920223810975912  0.28955264407728976  1.0000
  O   O6        1.0  0.19109149941573392  0.49171222602939935  0.7896166167342784  1.0000
  O   O7        1.0  0.700075989611733  0.5079857883948619  0.7104510933254317  1.0000
  O   O8        1.0  0.808920794874318  0.5082949665655221  0.21040142299256098  1.0000
  O   O9        1.0  0.2599319602110485  0.5633004320926887  0.1531270911620126  1.0000
  O   O10       1.0  0.30411121277383296  0.5632207569290839  0.6534798641627546  1.0000
  O   O11       1.0  0.7400445055135594  0.4367145734631349  0.8468878905014278  1.0000
  O   O12       1.0  0.6959068580407433  0.4367639473449358  0.34653440509257644  1.0000
