data_image0
_chemical_formula_structural       Cd2B4H24C8N32O4
_chemical_formula_sum              "Cd2 B4 H24 C8 N32 O4"
_cell_length_a       10.146312797421052
_cell_length_b       8.934454936887262
_cell_length_c       10.270424025807678
_cell_angle_alpha    115.59336700316227
_cell_angle_beta     89.9988914021848
_cell_angle_gamma    89.99509468235432

_space_group_name_H-M_alt    "P 1"
_space_group_IT_number       1

loop_
  _space_group_symop_operation_xyz
  'x, y, z'

loop_
  _atom_site_type_symbol
  _atom_site_label
  _atom_site_symmetry_multiplicity
  _atom_site_fract_x
  _atom_site_fract_y
  _atom_site_fract_z
  _atom_site_occupancy
  Cd  Cd1       1.0  0.8528088762989225  0.7485447784541106  0.9972499795143431  1.0000
  Cd  Cd2       1.0  0.35276265302851323  0.25146840307525037  0.0029504481166994748  1.0000
  B   B1        1.0  0.10453006355333368  0.8239960464452661  0.5001385167074799  1.0000
  B   B2        1.0  0.10245965139801427  0.3113401343054178  0.49893167301407704  1.0000
  B   B3        1.0  0.6026798377211832  0.6887148734011602  0.501172715887712  1.0000
  B   B4        1.0  0.6042984449061419  0.17615453294708766  0.5001495611501665  1.0000
  H   H1        1.0  0.0073113440181274  0.8846995440573763  0.4749581824743386  1.0000
  H   H2        1.0  0.0041850239084623994  0.39513295501402707  0.5187953799429079  1.0000
  H   H3        1.0  0.5044633818773149  0.6048716341406362  0.4814177936891183  1.0000
  H   H4        1.0  0.5070336989867812  0.11561060692296368  0.5254180518634114  1.0000
  H   H5        1.0  0.20245175340728136  0.9085064149935673  0.5252127370723725  1.0000
  H   H6        1.0  0.20040522930818835  0.37580583915428173  0.4788813418184502  1.0000
  H   H7        1.0  0.7007079113253382  0.6243453038753657  0.5211852545181727  1.0000
  H   H8        1.0  0.7021700519853125  0.09155197336707485  0.47512387825813807  1.0000
  H   H9        1.0  0.8655728777997921  0.8354226129367601  0.6731607706924192  1.0000
  H   H10       1.0  0.8729886787113724  0.16005800958903646  0.30944421779914677  1.0000
  H   H11       1.0  0.37331096492982846  0.8394329830163726  0.6909559294672716  1.0000
  H   H12       1.0  0.36539801738037164  0.16481276627793306  0.3270562110529767  1.0000
  H   H13       1.0  0.34254779136737307  0.6590799230047821  0.3268938519948604  1.0000
  H   H14       1.0  0.33187053962396357  0.3532644166195452  0.6896277103166282  1.0000
  H   H15       1.0  0.8320010953436208  0.647209124897941  0.31046200204589514  1.0000
  H   H16       1.0  0.8423236142211721  0.34071605148770345  0.673469611932667  1.0000
  H   H17       1.0  0.0218399084699286  0.4868601752587195  0.028746966259951982  1.0000
  H   H18       1.0  0.5217936207831144  0.5131473021687893  0.9713989167918978  1.0000
  H   H19       1.0  0.09684932741424027  0.6405837978850711  0.030300652459302888  1.0000
  H   H20       1.0  0.5965775960152867  0.3583121683075348  0.9679111019911769  1.0000
  H   H21       1.0  0.6834523285761305  0.040788018115939885  0.028054888300893293  1.0000
  H   H22       1.0  0.18315073196593087  0.959500053530668  0.9721399553598783  1.0000
  H   H23       1.0  0.6102278181047821  0.8937182054414803  0.04151317468022592  1.0000
  H   H24       1.0  0.11037051460205297  0.10603835350458012  0.9571269569354968  1.0000
  C   C1        1.0  0.95982982123229  0.8016072862117195  0.7030967172762669  1.0000
  C   C2        1.0  0.9646140532452206  0.090265455229769  0.2881702115959044  1.0000
  C   C3        1.0  0.4647836230310672  0.9094887486043176  0.71209400576204  1.0000
  C   C4        1.0  0.45971007657414004  0.19843245023988482  0.2970734948037545  1.0000
  C   C5        1.0  0.24753665920299275  0.5975079771917036  0.2967005697534118  1.0000
  C   C6        1.0  0.24084119466318293  0.3030857501324035  0.7105364261612903  1.0000
  C   C7        1.0  0.7408637802748358  0.6971683483149959  0.2895360186226695  1.0000
  C   C8        1.0  0.7474046575930229  0.4025456343916786  0.703521258135545  1.0000
  N   N1        1.0  0.07362729870717288  0.7887746404025646  0.6326515979956537  1.0000
  N   N2        1.0  0.0759514726178807  0.14327064084773156  0.36462274199066497  1.0000
  N   N3        1.0  0.5760731543982301  0.8567956159266501  0.6354808981444576  1.0000
  N   N4        1.0  0.5734783028108481  0.21119673198452196  0.36754175242018045  1.0000
  N   N5        1.0  0.16921841952308367  0.751853546915889  0.7057093034963413  1.0000
  N   N6        1.0  0.16824741859668527  0.023225322957564697  0.30329869914662305  1.0000
  N   N7        1.0  0.6681535374354651  0.9771353420764654  0.6965953620301801  1.0000
  N   N8        1.0  0.6691517504149329  0.24780118562027545  0.2943783899387141  1.0000
  N   N9        1.0  0.11509459407599106  0.7425518216997559  0.816791583820027  1.0000
  N   N10       1.0  0.11348498483716435  0.9015346924508233  0.19446790151582133  1.0000
  N   N11       1.0  0.6132771316875036  0.0987199789405224  0.8054348292687121  1.0000
  N   N12       1.0  0.6151131361449983  0.2569849600341243  0.18320998969696228  1.0000
  N   N13       1.0  0.9832836482818547  0.7733377950274088  0.8180092010598725  1.0000
  N   N14       1.0  0.9858192087857416  0.9403341479481494  0.18188657738573252  1.0000
  N   N15       1.0  0.48576915941450927  0.059561698405552504  0.8182469417925657  1.0000
  N   N16       1.0  0.4832644711278035  0.22642931510576855  0.18203978305533744  1.0000
  N   N17       1.0  0.1341811545714933  0.6567463274425049  0.36743925946626615  1.0000
  N   N18       1.0  0.1296380161094675  0.27737122319368973  0.6334457704360827  1.0000
  N   N19       1.0  0.6296807622606833  0.7226531598521928  0.3666277740540877  1.0000
  N   N20       1.0  0.6340393713405276  0.34346790866180743  0.6327358101152853  1.0000
  N   N21       1.0  0.03742478958880469  0.5494869417098085  0.29414449509452817  1.0000
  N   N22       1.0  0.038482557961835084  0.2162019877385716  0.6942733492963739  1.0000
  N   N23       1.0  0.5383453087558577  0.7835130489197936  0.30572157777127257  1.0000
  N   N24       1.0  0.5373826062334501  0.4510664976921673  0.7058297518930415  1.0000
  N   N25       1.0  0.0903670345628882  0.429183788182513  0.18268761048859963  1.0000
  N   N26       1.0  0.09392181600190237  0.20405558702600493  0.8034354702562395  1.0000
  N   N27       1.0  0.5936448012458085  0.7956750111421298  0.19649505679861778  1.0000
  N   N28       1.0  0.5903921504590172  0.5714074573993315  0.8172033713779709  1.0000
  N   N29       1.0  0.22261502947957001  0.45598568292322017  0.18141231469409988  1.0000
  N   N30       1.0  0.2207262257039559  0.25835558960993404  0.8167649197564443  1.0000
  N   N31       1.0  0.7205532350755914  0.7416955718592816  0.18322019627395741  1.0000
  N   N32       1.0  0.7225742169827426  0.5442818931228218  0.8186329005913108  1.0000
  O   O1        1.0  0.0248287807400729  0.5627467884330385  0.9824209875916308  1.0000
  O   O2        1.0  0.525085881355956  0.43658590551357424  0.01699920057462379  1.0000
  O   O3        1.0  0.6788139962967961  0.9192494921247698  0.9864503012803423  1.0000
  O   O4        1.0  0.17838269996259018  0.08097762822818307  0.013118059078095688  1.0000
