data_image0
_chemical_formula_structural       Zn4H48C32O32
_chemical_formula_sum              "Zn4 H48 C32 O32"
_cell_length_a       8.054547711002629
_cell_length_b       9.949692815679414
_cell_length_c       13.907978628350945
_cell_angle_alpha    93.60726604373923
_cell_angle_beta     89.99998580222484
_cell_angle_gamma    89.99990093379004

_space_group_name_H-M_alt    "P 1"
_space_group_IT_number       1

loop_
  _space_group_symop_operation_xyz
  'x, y, z'

loop_
  _atom_site_type_symbol
  _atom_site_label
  _atom_site_symmetry_multiplicity
  _atom_site_fract_x
  _atom_site_fract_y
  _atom_site_fract_z
  _atom_site_occupancy
  Zn  Zn1       1.0  0.8372743722383265  0.24315038284736085  0.7999275137705624  1.0000
  Zn  Zn2       1.0  0.33727485583961697  0.2568530734659333  0.7000698693230094  1.0000
  Zn  Zn3       1.0  0.16272702399582073  0.7568462500484189  0.20007068269332964  1.0000
  Zn  Zn4       1.0  0.662726540387773  0.7431486981516359  0.29993207807454786  1.0000
  H   H1        1.0  0.12245211403230633  0.22543043898505025  0.8887988363226996  1.0000
  H   H2        1.0  0.6224541192835391  0.27457337898680123  0.6112014700415787  1.0000
  H   H3        1.0  0.8775492821947355  0.7745713744527193  0.11120455067067782  1.0000
  H   H4        1.0  0.37754231080716494  0.725427302159332  0.3887975677760239  1.0000
  H   H5        1.0  0.9822123830589576  0.1994053149325552  0.9700852936657968  1.0000
  H   H6        1.0  0.48221531911056564  0.3006020020500913  0.5299129010410014  1.0000
  H   H7        1.0  0.017786530101503207  0.8005944430180988  0.029916592954371903  1.0000
  H   H8        1.0  0.5177823525102454  0.6994026855221661  0.47008553853385143  1.0000
  H   H9        1.0  0.006210865154145001  0.40388882132567244  0.3029049377569067  1.0000
  H   H10       1.0  0.5062008339956778  0.09611398648018371  0.19709321625457227  1.0000
  H   H11       1.0  0.9937892895367784  0.5961149012309191  0.697094911024692  1.0000
  H   H12       1.0  0.4937893884223002  0.9038857714760977  0.8029086703664846  1.0000
  H   H13       1.0  0.7848157619833034  0.34785203075223586  0.44263840851976266  1.0000
  H   H14       1.0  0.2848041332187777  0.152144333663415  0.0573580663964037  1.0000
  H   H15       1.0  0.21518811731272086  0.6521506849676938  0.5573614098726338  1.0000
  H   H16       1.0  0.7151885722691844  0.8478553406508668  0.9426409410327637  1.0000
  H   H17       1.0  0.7612449799506039  0.5010651792969725  0.7721506860600446  1.0000
  H   H18       1.0  0.26124116464341546  0.9989386266791626  0.7278465560323967  1.0000
  H   H19       1.0  0.23876014088763506  0.4989314326862981  0.22784679060556104  1.0000
  H   H20       1.0  0.7387577485160437  0.0010621171956515009  0.2721546411786805  1.0000
  H   H21       1.0  0.6668324310151521  0.5131337697104142  0.9308567836005113  1.0000
  H   H22       1.0  0.16682746851508773  0.9868651451923116  0.5691410457182898  1.0000
  H   H23       1.0  0.3331714482874446  0.48686382819781937  0.06914000365613052  1.0000
  H   H24       1.0  0.8331764107817607  0.013136605513551603  0.4308601818811014  1.0000
  H   H25       1.0  0.8410531365904391  0.6236195389755181  0.9192292459613614  1.0000
  H   H26       1.0  0.34104842604610053  0.8763801991081691  0.5807700175938423  1.0000
  H   H27       1.0  0.1589532257839679  0.37637602435249556  0.08076676071947023  1.0000
  H   H28       1.0  0.6589579363198511  0.12362157250618822  0.4192319298032104  1.0000
  H   H29       1.0  0.8700009364728062  0.4618522026219978  0.9662108447713609  1.0000
  H   H30       1.0  0.3699908240664556  0.03814718400698071  0.5337864100528692  1.0000
  H   H31       1.0  0.13000542589890074  0.5381454161947304  0.03378666228293531  1.0000
  H   H32       1.0  0.6300142967621555  0.9618566430968939  0.4662170377177689  1.0000
  H   H33       1.0  0.9486677199268246  0.9907345714026119  0.7810329721739465  1.0000
  H   H34       1.0  0.448665046520219  0.5092660969714301  0.7189684590822482  1.0000
  H   H35       1.0  0.051334917846489206  0.009258055065430398  0.2189658225324465  1.0000
  H   H36       1.0  0.5513375912409871  0.4907366396593957  0.2810320791081865  1.0000
  H   H37       1.0  0.6416460445473788  0.019779290161700696  0.6750682295688437  1.0000
  H   H38       1.0  0.14164843986576872  0.4802226984019241  0.8249392100584603  1.0000
  H   H39       1.0  0.3583541101479  0.9802204468780573  0.324932937253287  1.0000
  H   H40       1.0  0.8583529563675045  0.51977403904435  0.17506258539498284  1.0000
  H   H41       1.0  0.7475144412336976  0.8654273925682147  0.6939095364192981  1.0000
  H   H42       1.0  0.2475201309177706  0.6345726756658436  0.806096944307079  1.0000
  H   H43       1.0  0.25248198885918083  0.1345712958194909  0.3060901604185702  1.0000
  H   H44       1.0  0.7524812653129802  0.3654260963590517  0.19390563172192546  1.0000
  H   H45       1.0  0.8404320096831556  0.9866432532967623  0.6208013922241309  1.0000
  H   H46       1.0  0.3404391921243858  0.5133556042094156  0.8792021598559432  1.0000
  H   H47       1.0  0.1595644204109021  0.0133544282566902  0.379198274224919  1.0000
  H   H48       1.0  0.659564687174644  0.48664415373803377  0.12079972676372111  1.0000
  C   C1        1.0  0.97193121113488  0.2816882196265595  0.6249825473570854  1.0000
  C   C2        1.0  0.4719255035826465  0.21830801458045096  0.8750145953852383  1.0000
  C   C3        1.0  0.0280726681687185  0.7183083923575138  0.37501492930864805  1.0000
  C   C4        1.0  0.5280734095766422  0.7816927502044707  0.12498732162375603  1.0000
  C   C5        1.0  0.012803473427858604  0.3126708426536666  0.5264548368881138  1.0000
  C   C6        1.0  0.5127968393846914  0.18733307540888688  0.9735440523799428  1.0000
  C   C7        1.0  0.987202888940324  0.6873297966658356  0.4735427613326452  1.0000
  C   C8        1.0  0.4871995906990848  0.812672765369129  0.026459456169227697  1.0000
  C   C9        1.0  0.19113251151906502  0.36025069514182917  0.41292490009333  1.0000
  C   C10       1.0  0.691122424877236  0.13975201971245346  0.08707825455959291  1.0000
  C   C11       1.0  0.8088701262434913  0.639751013744636  0.5870748879103689  1.0000
  C   C12       1.0  0.30887152214078384  0.8602508005643938  0.9129251628233706  1.0000
  C   C13       1.0  0.03433661045228582  0.37416199120070803  0.37476077399217195  1.0000
  C   C14       1.0  0.534329023277472  0.12583983609977173  0.12523950325286393  1.0000
  C   C15       1.0  0.9656647857744506  0.6258407245208274  0.6252390444004734  1.0000
  C   C16       1.0  0.4656649237408957  0.8741629423568753  0.8747624745342792  1.0000
  C   C17       1.0  0.9194204682149734  0.3439190160695702  0.4476020406466503  1.0000
  C   C18       1.0  0.41941255698068863  0.15608124329789766  0.05239596780080551  1.0000
  C   C19       1.0  0.08058216954876232  0.6560816859826417  0.5523977169682299  1.0000
  C   C20       1.0  0.5805801485025628  0.8439224583534183  0.9476031611836434  1.0000
  C   C21       1.0  0.36136179498984694  0.3792169844255254  0.3754289619867067  1.0000
  C   C22       1.0  0.861351736779689  0.1207804132194426  0.12457184639915653  1.0000
  C   C23       1.0  0.6386383597047853  0.6207836967181918  0.6245700758305119  1.0000
  C   C24       1.0  0.1386409687100993  0.8792173101566193  0.8754292596460973  1.0000
  C   C25       1.0  0.8004116238503088  0.5180444687499559  0.9142951495344607  1.0000
  C   C26       1.0  0.30040418277794617  0.9819552173825271  0.5857005233706687  1.0000
  C   C27       1.0  0.19959473852175344  0.48195310824657167  0.08570091792401512  1.0000
  C   C28       1.0  0.6995996965189024  0.018046533323342797  0.4143007042287224  1.0000
  C   C29       1.0  0.7633389179699535  0.9735485859986993  0.6849938184949809  1.0000
  C   C30       1.0  0.2633398891070087  0.526453412696874  0.8150105603687765  1.0000
  C   C31       1.0  0.23665999519239025  0.026450081477307198  0.3150051585447217  1.0000
  C   C32       1.0  0.7366627486575512  0.47354632434127103  0.1849906064530984  1.0000
  O   O1        1.0  0.8194434404447508  0.27967702076868756  0.6506629938472486  1.0000
  O   O2        1.0  0.31944022201222577  0.2203194107836666  0.849334180183668  1.0000
  O   O3        1.0  0.1805567142576265  0.7203175357290874  0.3493329824453966  1.0000
  O   O4        1.0  0.6805574496078891  0.7796853604289851  0.15066713858283265  1.0000
  O   O5        1.0  0.08526815549298311  0.25850797768676154  0.6857667086776048  1.0000
  O   O6        1.0  0.5852651867029978  0.24148877784101336  0.8142312332014471  1.0000
  O   O7        1.0  0.9147332407384571  0.7414907106977395  0.3142329881597591  1.0000
  O   O8        1.0  0.4147337264601704  0.7585089246209265  0.18576915304525704  1.0000
  O   O9        1.0  0.3728335372257306  0.4267772109413173  0.29196968686238733  1.0000
  O   O10       1.0  0.8728285208529986  0.07321503313207958  0.20802736823542034  1.0000
  O   O11       1.0  0.6271678590023627  0.5732244770358575  0.7080293813435292  1.0000
  O   O12       1.0  0.12716790924829272  0.9267765865057169  0.7919713960827864  1.0000
  O   O13       1.0  0.48455309506132954  0.34843106500697724  0.42547717306766947  1.0000
  O   O14       1.0  0.9845454692633882  0.15156718003868963  0.07452364042923422  1.0000
  O   O15       1.0  0.5154445765624872  0.6515706647928071  0.574523334734444  1.0000
  O   O16       1.0  0.015448477759157704  0.8484316338112162  0.9254803751963508  1.0000
  O   O17       1.0  0.0038048365154566004  0.23922402600477  0.9056941595988166  1.0000
  O   O18       1.0  0.503803156270017  0.260789027939083  0.594307164408292  1.0000
  O   O19       1.0  0.9961965597168146  0.7607736973656642  0.09430694644554193  1.0000
  O   O20       1.0  0.4961920322793319  0.7392176523932078  0.4056906161465507  1.0000
  O   O21       1.0  0.17879789072395622  0.3213899812585623  0.5053544202346247  1.0000
  O   O22       1.0  0.6787925096672965  0.17861575655478387  0.9946452155485945  1.0000
  O   O23       1.0  0.8212010224365545  0.678610637155664  0.49464245818899144  1.0000
  O   O24       1.0  0.32120516195212206  0.8213890982982689  0.005358982409539699  1.0000
  O   O25       1.0  0.8352330362462014  0.4572777478368621  0.8199611004977501  1.0000
  O   O26       1.0  0.33522657672543954  0.0427247461087319  0.680037692222392  1.0000
  O   O27       1.0  0.16477084305875422  0.5427178364028578  0.18003562598124748  1.0000
  O   O28       1.0  0.6647748195014317  0.9572770882391382  0.3199664145688957  1.0000
  O   O29       1.0  0.8375576891626794  0.035943664753411  0.7701876573996672  1.0000
  O   O30       1.0  0.3375576787126491  0.4640579238957158  0.7298147034435518  1.0000
  O   O31       1.0  0.16244246553699784  0.9640529472330713  0.22980981926644267  1.0000
  O   O32       1.0  0.6624462005855495  0.5359427990657935  0.2701857739691107  1.0000
