data_image0
_chemical_formula_structural       Cd2H32C48I4N4
_chemical_formula_sum              "Cd2 H32 C48 I4 N4"
_cell_length_a       7.184797394424226
_cell_length_b       7.186131930913519
_cell_length_c       22.802054600063133
_cell_angle_alpha    90.00323172571107
_cell_angle_beta     90.00489358612774
_cell_angle_gamma    95.49927595603509

_space_group_name_H-M_alt    "P 1"
_space_group_IT_number       1

loop_
  _space_group_symop_operation_xyz
  'x, y, z'

loop_
  _atom_site_type_symbol
  _atom_site_label
  _atom_site_symmetry_multiplicity
  _atom_site_fract_x
  _atom_site_fract_y
  _atom_site_fract_z
  _atom_site_occupancy
  Cd  Cd1       1.0  0.024850516553193834  0.9750996166243129  0.7499994959347446  1.0000
  Cd  Cd2       1.0  0.9751415301768845  0.024893269145017875  0.2500032497179205  1.0000
  H   H1        1.0  0.678879133736487  0.8918049989919015  0.6636181649704866  1.0000
  H   H2        1.0  0.3210419005461063  0.10821773822505072  0.16362338760645662  1.0000
  H   H3        1.0  0.8917844102924165  0.6790300964748824  0.3363425610800022  1.0000
  H   H4        1.0  0.10820704620199711  0.3210034361545056  0.8363586582164189  1.0000
  H   H5        1.0  0.3210955446927315  0.10820053434877512  0.3363902806265742  1.0000
  H   H6        1.0  0.6789326028530738  0.8917948666019202  0.836372778215683  1.0000
  H   H7        1.0  0.1082542929556709  0.3209337433277995  0.6636422071006792  1.0000
  H   H8        1.0  0.8917824232896837  0.6789825873898325  0.16364584168134402  1.0000
  H   H9        1.0  0.502273967747854  0.050401402182707535  0.5870447929139218  1.0000
  H   H10       1.0  0.49764616598984196  0.9496587415412706  0.08704345283295821  1.0000
  H   H11       1.0  0.050301655843235  0.5023766769504975  0.4129189749133245  1.0000
  H   H12       1.0  0.9496826752218935  0.4976214842136957  0.9129377434903677  1.0000
  H   H13       1.0  0.4976905313433662  0.949626109545065  0.41296979137178613  1.0000
  H   H14       1.0  0.5023337868476149  0.05034496497998482  0.9129496436152921  1.0000
  H   H15       1.0  0.9497439361543912  0.49758662775144563  0.587061846661264  1.0000
  H   H16       1.0  0.05030314216422481  0.5023676460944417  0.0870636862252567  1.0000
  H   H17       1.0  0.8295636500012976  0.17044733637120396  0.4847049371686866  1.0000
  H   H18       1.0  0.1704618931522432  0.8295829772978892  0.9847002523601347  1.0000
  H   H19       1.0  0.17046026567998504  0.8295685044973099  0.5152943012998251  1.0000
  H   H20       1.0  0.829550705732217  0.1704563422451031  0.015304247582072602  1.0000
  H   H21       1.0  0.8653538085982646  0.13465289191562144  0.3776670477325581  1.0000
  H   H22       1.0  0.13465456535188738  0.8653396202860719  0.8776640091233433  1.0000
  H   H23       1.0  0.13465699004323284  0.8653597270340542  0.6223308743923184  1.0000
  H   H24       1.0  0.8653317923278934  0.1346607695174669  0.12234092880899541  1.0000
  H   H25       1.0  0.6833380577889799  0.3167184797909215  0.30843219639546504  1.0000
  H   H26       1.0  0.3166617125719853  0.6832709177671247  0.8084319501897994  1.0000
  H   H27       1.0  0.3166846593638653  0.6832903904126013  0.6915644108298126  1.0000
  H   H28       1.0  0.6832831346703188  0.3167072619918941  0.1915716702308359  1.0000
  H   H29       1.0  0.4670226199424405  0.5330503709417869  0.3457538207944921  1.0000
  H   H30       1.0  0.5329894415663645  0.4669448142703844  0.8457540394217277  1.0000
  H   H31       1.0  0.5330123169887884  0.46696461487371016  0.6542419098688513  1.0000
  H   H32       1.0  0.466971278613599  0.5330363727784543  0.1542478276064188  1.0000
  C   C1        1.0  0.7342336445217653  0.02576374681784441  0.6450507891311474  1.0000
  C   C2        1.0  0.2657113810108314  0.9742531246601801  0.145052883076275  1.0000
  C   C3        1.0  0.025749476701157955  0.7343270090120487  0.354930829957148  1.0000
  C   C4        1.0  0.9742510961688211  0.26568582413888453  0.8549402868979997  1.0000
  C   C5        1.0  0.2657500196176202  0.9742453266624197  0.35495414843896356  1.0000
  C   C6        1.0  0.734273840380915  0.025748763699233717  0.8549467920714449  1.0000
  C   C7        1.0  0.9742743730099052  0.2656478717124102  0.6450613925781427  1.0000
  C   C8        1.0  0.0257416086789561  0.7343027729731803  0.1450620203381519  1.0000
  C   C9        1.0  0.637148412725992  0.1145437560285529  0.6022219677405475  1.0000
  C   C10       1.0  0.36279912502271844  0.8854832477157332  0.10222363283639171  1.0000
  C   C11       1.0  0.11451029550993752  0.6372196053591423  0.3977563051846573  1.0000
  C   C12       1.0  0.8854861491635334  0.362781806230963  0.8977676205557827  1.0000
  C   C13       1.0  0.3628295008251641  0.8854643512261478  0.3977851623088285  1.0000
  C   C14       1.0  0.637190948642143  0.11452250212074941  0.897775603939188  1.0000
  C   C15       1.0  0.8855181676817736  0.3627577413588057  0.6022315319855096  1.0000
  C   C16       1.0  0.11450469833563663  0.6372041099122968  0.10223512519543482  1.0000
  C   C17       1.0  0.7109666369162541  0.2890305977484359  0.581010319003127  1.0000
  C   C18       1.0  0.2890172005888019  0.710970658898006  0.08101103659032562  1.0000
  C   C19       1.0  0.2890343950556797  0.7109658288530911  0.4189906728504553  1.0000
  C   C20       1.0  0.7109675402910298  0.2890284428230388  0.9189917084955753  1.0000
  C   C21       1.0  0.6035136859612537  0.39650209620423044  0.5392952684766571  1.0000
  C   C22       1.0  0.396486501923107  0.603504817443266  0.0392976400532064  1.0000
  C   C23       1.0  0.39650573429756975  0.603495730171801  0.4607035316098163  1.0000
  C   C24       1.0  0.6035003354490415  0.39649836021070684  0.9607072978397042  1.0000
  C   C25       1.0  0.6256082595927168  0.37440793644549336  0.4783411502430184  1.0000
  C   C26       1.0  0.37440546566765676  0.6256100574507143  0.9783410624610128  1.0000
  C   C27       1.0  0.37440888492890423  0.625592891717375  0.5216589653122911  1.0000
  C   C28       1.0  0.6255946126397022  0.3744132814295682  0.0216621214775969  1.0000
  C   C29       1.0  0.749982809021141  0.2500268606356641  0.45456479053119386  1.0000
  C   C30       1.0  0.2500409793345639  0.7499895120030332  0.9545638127139213  1.0000
  C   C31       1.0  0.250037810585674  0.7499779351932928  0.5454335708997605  1.0000
  C   C32       1.0  0.7499655678117065  0.2500389767831166  0.04544200281291211  1.0000
  C   C33       1.0  0.7697971174085795  0.23021872234136248  0.3949893102422095  1.0000
  C   C34       1.0  0.23022315055769849  0.7697886553817953  0.8949859938508952  1.0000
  C   C35       1.0  0.23021529861826207  0.7697951838250534  0.605008611944271  1.0000
  C   C36       1.0  0.7697761458536195  0.2302220326751367  0.10502026024520461  1.0000
  C   C37       1.0  0.6662863798312841  0.33376122494008353  0.3555910372726956  1.0000
  C   C38       1.0  0.3337264197189427  0.6662440883580916  0.8555891730365986  1.0000
  C   C39       1.0  0.33372897028461074  0.6662453904359255  0.6444042539145087  1.0000
  C   C40       1.0  0.666248438189321  0.3337543669165087  0.1444148871706759  1.0000
  C   C41       1.0  0.5452660405030798  0.4547936998225951  0.37659160339460135  1.0000
  C   C42       1.0  0.4547533926392547  0.545218339098078  0.8765900858836703  1.0000
  C   C43       1.0  0.4547550591473382  0.5452138833373396  0.6234054423260247  1.0000
  C   C44       1.0  0.5452304501596146  0.45478365752816796  0.12341353619542161  1.0000
  C   C45       1.0  0.47981434882410673  0.5201806335182796  0.5617823261286929  1.0000
  C   C46       1.0  0.5201821530878377  0.47981937973949573  0.061784600293407314  1.0000
  C   C47       1.0  0.5202074082415322  0.4798226620232953  0.4382169125172198  1.0000
  C   C48       1.0  0.4798093588345795  0.520194734860347  0.9382177062626554  1.0000
  I   I1        1.0  0.3830331277134037  0.14019918294270184  0.7500031560208599  1.0000
  I   I2        1.0  0.6169593371711102  0.8597880204172912  0.2499995897919689  1.0000
  I   I3        1.0  0.14027779197746076  0.38300234613251405  0.2499999950599303  1.0000
  I   I4        1.0  0.8597321026287688  0.616980680089064  0.7499974891658782  1.0000
  N   N1        1.0  0.8988391517668647  0.1011047665106091  0.6667016191484337  1.0000
  N   N2        1.0  0.10112772546694525  0.8988799999759253  0.1667021010365062  1.0000
  N   N3        1.0  0.10116026422466723  0.8988903707963519  0.33329410995995096  1.0000
  N   N4        1.0  0.8988597093045171  0.10111041754895209  0.8332993287407291  1.0000
