data_image0
_chemical_formula_structural       Zn4H60C48S4N12O16
_chemical_formula_sum              "Zn4 H60 C48 S4 N12 O16"
_cell_length_a       7.569743486000563
_cell_length_b       11.61730007800337
_cell_length_c       15.77722681300564
_cell_angle_alpha    90.00008679392747
_cell_angle_beta     89.99995666941147
_cell_angle_gamma    89.99999182220117

_space_group_name_H-M_alt    "P 1"
_space_group_IT_number       1

loop_
  _space_group_symop_operation_xyz
  'x, y, z'

loop_
  _atom_site_type_symbol
  _atom_site_label
  _atom_site_symmetry_multiplicity
  _atom_site_fract_x
  _atom_site_fract_y
  _atom_site_fract_z
  _atom_site_occupancy
  Zn  Zn1       1.0  0.1505928944715507  0.2669105807971164  0.0328347893478025  1.0000
  Zn  Zn2       1.0  0.6505931992473108  0.7330869599191489  0.967165191407716  1.0000
  Zn  Zn3       1.0  0.15058854190962023  0.23308567928085475  0.5328326530777473  1.0000
  Zn  Zn4       1.0  0.6505935886629644  0.7669127222207949  0.4671673276789717  1.0000
  H   H1        1.0  0.2433695336830723  0.3593287067154733  0.7994004660152213  1.0000
  H   H2        1.0  0.7433710643055919  0.6406714077799123  0.2006001148246384  1.0000
  H   H3        1.0  0.24336730882198052  0.14066981420473473  0.2993986583818823  1.0000
  H   H4        1.0  0.7433680049723678  0.8593294395050391  0.7006012886335071  1.0000
  H   H5        1.0  0.0273503870650771  0.30580329745014717  0.7275931791503751  1.0000
  H   H6        1.0  0.5273570771646305  0.694196837016996  0.2724087479021975  1.0000
  H   H7        1.0  0.0273507925065388  0.1941950958621632  0.22759206510502134  1.0000
  H   H8        1.0  0.5273566717245474  0.8058015954628672  0.772408594295726  1.0000
  H   H9        1.0  0.34288535818062377  0.529964837617733  0.899105644631021  1.0000
  H   H10       1.0  0.8428844410996561  0.47003440689245224  0.10089490001601577  1.0000
  H   H11       1.0  0.34288570283964503  0.970033011520449  0.39910610622161596  1.0000
  H   H12       1.0  0.8428840964396328  0.029966232991043305  0.6008957060753203  1.0000
  H   H13       1.0  0.3118097103526126  0.5028793185360457  0.009540557194434002  1.0000
  H   H14       1.0  0.8118100304923033  0.4971190680611386  0.9904593649288101  1.0000
  H   H15       1.0  0.3118105838037479  0.997117732836891  0.5095412510267252  1.0000
  H   H16       1.0  0.811810478088212  0.0028823753325895006  0.4904605725720899  1.0000
  H   H17       1.0  0.1240905965051837  0.5077902016446955  0.9395050405427766  1.0000
  H   H18       1.0  0.6240910591183138  0.49220906309206913  0.06049494985226289  1.0000
  H   H19       1.0  0.12409225732729821  0.9922068899640805  0.4395048930667612  1.0000
  H   H20       1.0  0.6240907193439327  0.007792374773920599  0.5604963649779364  1.0000
  H   H21       1.0  0.5400215263654288  0.37228273583616556  0.8834025076105476  1.0000
  H   H22       1.0  0.04001968931316922  0.6277191190290381  0.1165981471862807  1.0000
  H   H23       1.0  0.5400219464543455  0.12771937344358972  0.3834025869898169  1.0000
  H   H24       1.0  0.040020590273165624  0.8722807598511508  0.6165980678058105  1.0000
  H   H25       1.0  0.4725106439073131  0.22939242674728177  0.9139623100920315  1.0000
  H   H26       1.0  0.9725083629089896  0.770606805779927  0.08603882123693299  1.0000
  H   H27       1.0  0.472511032511278  0.2706080300090292  0.41396128136408805  1.0000
  H   H28       1.0  0.972506653256204  0.7293920633034433  0.5860398499655943  1.0000
  H   H29       1.0  0.5215967777207879  0.33417847083665453  0.9930820943813004  1.0000
  H   H30       1.0  0.021596425800567  0.6658225249466269  0.006918567115654599  1.0000
  H   H31       1.0  0.5215958683644929  0.16582042242104936  0.49308285012912717  1.0000
  H   H32       1.0  0.0215960141078213  0.8341788517925294  0.5069184451920563  1.0000
  H   H33       1.0  0.7742845869613291  0.2081092704373972  0.6918642763384568  1.0000
  H   H34       1.0  0.27428505462349767  0.7918908411986789  0.3081350256082374  1.0000
  H   H35       1.0  0.7742836498277371  0.2918915627461374  0.1918620037246939  1.0000
  H   H36       1.0  0.2742859917585818  0.708108548887978  0.8081353967471542  1.0000
  H   H37       1.0  0.6742705545064497  0.2832955070588028  0.7772101337023827  1.0000
  H   H38       1.0  0.1742777781910689  0.7167037530398798  0.22279110609143518  1.0000
  H   H39       1.0  0.6742735970862341  0.216702928419366  0.2772084109626149  1.0000
  H   H40       1.0  0.1742786987584708  0.783296331677832  0.7227915611805855  1.0000
  H   H41       1.0  0.7669434456931299  0.14375707434836474  0.7943448626551441  1.0000
  H   H42       1.0  0.2669467024302464  0.8562430379675589  0.20565570961083066  1.0000
  H   H43       1.0  0.7669438154278154  0.35624224856331205  0.2943432957174393  1.0000
  H   H44       1.0  0.2669450116469321  0.6437570029674758  0.7056572765483011  1.0000
  H   H45       1.0  0.6377428449480504  0.10460606020878772  0.0279687360089369  1.0000
  H   H46       1.0  0.137738282630508  0.8953940640506205  0.9720306155973759  1.0000
  H   H47       1.0  0.6377424197700208  0.39539186640001833  0.527964245659767  1.0000
  H   H48       1.0  0.13774002885895698  0.6046065362869797  0.4720332044704989  1.0000
  H   H49       1.0  0.9369511152607971  0.028708929439687805  0.0629386632090032  1.0000
  H   H50       1.0  0.4369479122621343  0.9712894455865354  0.9370593119274984  1.0000
  H   H51       1.0  0.9369493523077068  0.47129592766210493  0.5629361590814312  1.0000
  H   H52       1.0  0.4369496752143434  0.5287058905055845  0.4370624498819423  1.0000
  H   H53       1.0  0.9922658557956439  0.939488679571504  0.20466685726701425  1.0000
  H   H54       1.0  0.49226439741314465  0.0605157158392373  0.7953329992300411  1.0000
  H   H55       1.0  0.9922641833595804  0.5605164569819364  0.7046626268351799  1.0000
  H   H56       1.0  0.4922621067049988  0.43948363450101613  0.2953353281853381  1.0000
  H   H57       1.0  0.44932665993992066  0.9931372108479835  0.27126297347186307  1.0000
  H   H58       1.0  0.9493248575887847  0.006862884607087899  0.7287375324643006  1.0000
  H   H59       1.0  0.44932367827583164  0.5068620872738734  0.7712605846108005  1.0000
  H   H60       1.0  0.9493225550590552  0.49313714739493264  0.2287386536759399  1.0000
  C   C1        1.0  0.027494284422644504  0.2830236078343731  0.8540906823300318  1.0000
  C   C2        1.0  0.527497205284476  0.7169765266183319  0.1459099770209917  1.0000
  C   C3        1.0  0.027494684845820003  0.21697246308676912  0.3540883260680516  1.0000
  C   C4        1.0  0.527498125911606  0.7830225066533602  0.6459110656299385  1.0000
  C   C5        1.0  0.2628469473548876  0.48292556038948203  0.9458476877067168  1.0000
  C   C6        1.0  0.7628474144635078  0.5170728307342359  0.054152252223708786  1.0000
  C   C7        1.0  0.2628487128727457  0.0170732597122623  0.44584827737104854  1.0000
  C   C8        1.0  0.7628482910417278  0.9829285745534406  0.5541529302107264  1.0000
  C   C9        1.0  0.4657798780862521  0.3208422632791894  0.9298327052995388  1.0000
  C   C10       1.0  0.9657789632445316  0.6791578306560596  0.0701690623025186  1.0000
  C   C11       1.0  0.46577764474348987  0.1791573659318431  0.4298322082886088  1.0000
  C   C12       1.0  0.9657772334417062  0.8208418672177373  0.5701689254887369  1.0000
  C   C13       1.0  0.782644127931185  0.2251511654099048  0.7599060265677762  1.0000
  C   C14       1.0  0.2826499905427298  0.7748498062402476  0.24009517381299614  1.0000
  C   C15       1.0  0.782644515601902  0.27484636370005694  0.2599037349238671  1.0000
  C   C16       1.0  0.2826443186789831  0.7251511648075776  0.7400955639810931  1.0000
  C   C17       1.0  0.3473168063244643  0.10728408202531628  0.13075808397496047  1.0000
  C   C18       1.0  0.8473145878202787  0.8927186052154071  0.8692418252376155  1.0000
  C   C19       1.0  0.34731109753932543  0.39271666504512137  0.6307561259379924  1.0000
  C   C20       1.0  0.8473136913638727  0.6072851614081002  0.369241247975502  1.0000
  C   C21       1.0  0.5252964090190205  0.0562696567988539  0.14829976245381  1.0000
  C   C22       1.0  0.0252946673780627  0.9437313386405037  0.8516989962230354  1.0000
  C   C23       1.0  0.5252933310905235  0.4437328314391992  0.6482972275523337  1.0000
  C   C24       1.0  0.025295103209416005  0.5562698855700389  0.3517008973010007  1.0000
  C   C25       1.0  0.6629787951421734  0.0642886645774468  0.08912964748720498  1.0000
  C   C26       1.0  0.16297432012196117  0.9357105965624227  0.91086842729068  1.0000
  C   C27       1.0  0.6629717558354145  0.4357145501091182  0.589125835983367  1.0000
  C   C28       1.0  0.16297343313687657  0.5642890149558327  0.4108709711484622  1.0000
  C   C29       1.0  0.8304005735663297  0.0218657394194253  0.10907923366837478  1.0000
  C   C30       1.0  0.33039744161733614  0.9781369493852238  0.8909206816966131  1.0000
  C   C31       1.0  0.8303988091061001  0.47813664000513983  0.6090761033552071  1.0000
  C   C32       1.0  0.3303992060774448  0.5218626056593508  0.3909244458328089  1.0000
  C   C33       1.0  0.8613261579657205  0.9705630139602663  0.1876626426600296  1.0000
  C   C34       1.0  0.3613260007386216  0.0294379504154634  0.8123378952811108  1.0000
  C   C35       1.0  0.8613258134270438  0.5294386566088817  0.6876571098801987  1.0000
  C   C36       1.0  0.3613223821326983  0.47056144697987173  0.3123415265863372  1.0000
  C   C37       1.0  0.7235684727998902  0.9589958491310849  0.2463954164438036  1.0000
  C   C38       1.0  0.2235684053857838  0.041004267194956895  0.7536051715977691  1.0000
  C   C39       1.0  0.7235654836145003  0.5410050940973434  0.7463905304042697  1.0000
  C   C40       1.0  0.2235634682795009  0.45899330065800836  0.25360942381283985  1.0000
  C   C41       1.0  0.5567267451399119  0.002363922734780001  0.22606244214183135  1.0000
  C   C42       1.0  0.0567264349566798  0.9976379305846735  0.7739369389293171  1.0000
  C   C43       1.0  0.5567249763809983  0.4976378616323913  0.7260612350778644  1.0000
  C   C44       1.0  0.056722919520659304  0.5023596877619525  0.2739387798167954  1.0000
  C   C45       1.0  0.7559156126869055  0.9005219339068093  0.32994998581030177  1.0000
  C   C46       1.0  0.2559103795869007  0.0994842049273927  0.6700524919461301  1.0000
  C   C47       1.0  0.7559126106168748  0.5994817604084588  0.8299445312361724  1.0000
  C   C48       1.0  0.25591073956431387  0.4005166313538311  0.1700528759168165  1.0000
  S   S1        1.0  0.9161636986901485  0.23784448574617295  0.9427702119490675  1.0000
  S   S2        1.0  0.41616720956896813  0.7621581951307803  0.05723093987352  1.0000
  S   S3        1.0  0.916160126011633  0.26215340684473176  0.4427679061334046  1.0000
  S   S4        1.0  0.41616417700510766  0.7378423877502557  0.5572326118615931  1.0000
  N   N1        1.0  0.278334947154903  0.3566862311514781  0.9323541150481987  1.0000
  N   N2        1.0  0.7783366862754377  0.643313880110739  0.0676458192501457  1.0000
  N   N3        1.0  0.27833536380757107  0.14331169900064114  0.4323542118393532  1.0000
  N   N4        1.0  0.7783362696219669  0.8566866906924703  0.5676469901079315  1.0000
  N   N5        1.0  0.1948856838295683  0.3247656586327423  0.8557563671635933  1.0000
  N   N6        1.0  0.6948872954598289  0.6752318779899511  0.1442448651327979  1.0000
  N   N7        1.0  0.19488741449831085  0.17523126102307873  0.3557552319448263  1.0000
  N   N8        1.0  0.6948882068893455  0.8247679971685995  0.644244732702141  1.0000
  N   N9        1.0  0.9532073516430658  0.27621295399843143  0.777676574188689  1.0000
  N   N10       1.0  0.4532119324019916  0.7237880018847349  0.2223258318102808  1.0000
  N   N11       1.0  0.9532090716137772  0.2237871782209524  0.27767422553315396  1.0000
  N   N12       1.0  0.4532102124328716  0.7762129168750603  0.7223262789904864  1.0000
  O   O1        1.0  0.31949425514523716  0.1423627235519618  0.05453115097470369  1.0000
  O   O2        1.0  0.8194958876461272  0.8576356623327753  0.9454668668786681  1.0000
  O   O3        1.0  0.3194885540894746  0.3576404517837802  0.5545291537721653  1.0000
  O   O4        1.0  0.8194923413608208  0.6423622380267417  0.4454682302603387  1.0000
  O   O5        1.0  0.2353367425664814  0.11401032364696563  0.1899960217692893  1.0000
  O   O6        1.0  0.7353332976520406  0.885990652375824  0.8100039281684417  1.0000
  O   O7        1.0  0.2353376405069838  0.3859871123818194  0.6899946900440594  1.0000
  O   O8        1.0  0.7353350418107709  0.6140112812832825  0.3100033584168997  1.0000
  O   O9        1.0  0.6124906457169813  0.8676950769424818  0.3697396224674918  1.0000
  O   O10       1.0  0.11248678900567201  0.13230935357939444  0.6302616397998902  1.0000
  O   O11       1.0  0.6124876364118778  0.6323052692700983  0.8697367398439865  1.0000
  O   O12       1.0  0.11248451411883312  0.3676948573227534  0.1302613532972003  1.0000
  O   O13       1.0  0.9092695346085123  0.8860409650769229  0.35692553972251057  1.0000
  O   O14       1.0  0.40926698283476537  0.11396946350709672  0.6430781499126326  1.0000
  O   O15       1.0  0.9092678503948051  0.6139627705033847  0.8569220027916842  1.0000
  O   O16       1.0  0.40926470390520114  0.38603474630082957  0.1430797853621257  1.0000
