data_image0
_chemical_formula_structural       Na2H36C26S2N2O10
_chemical_formula_sum              "Na2 H36 C26 S2 N2 O10"
_cell_length_a       4.9781835904456555
_cell_length_b       10.014053229341425
_cell_length_c       14.826260575720827
_cell_angle_alpha    87.31904799549486
_cell_angle_beta     86.82680450260271
_cell_angle_gamma    90.56387266012706

_space_group_name_H-M_alt    "P 1"
_space_group_IT_number       1

loop_
  _space_group_symop_operation_xyz
  'x, y, z'

loop_
  _atom_site_type_symbol
  _atom_site_label
  _atom_site_symmetry_multiplicity
  _atom_site_fract_x
  _atom_site_fract_y
  _atom_site_fract_z
  _atom_site_occupancy
  Na  Na1       1.0  0.09354083960861462  0.34853954707725876  0.5458259351875013  1.0000
  Na  Na2       1.0  0.9063770135051143  0.6514500761752446  0.4541286792609894  1.0000
  H   H1        1.0  0.2898972698162723  0.08070865154054019  0.8808381811656714  1.0000
  H   H2        1.0  0.7101394598174265  0.9193149926056563  0.11917197413495728  1.0000
  H   H3        1.0  0.9370764566992733  0.489433839929255  0.7947001212010532  1.0000
  H   H4        1.0  0.0629342564630093  0.5105647612451776  0.20530102861260244  1.0000
  H   H5        1.0  0.9418928061751118  0.9048613160867236  0.7267890432868638  1.0000
  H   H6        1.0  0.0580434417857916  0.09511511173324291  0.2731871149889784  1.0000
  H   H7        1.0  0.4355829933281044  0.6734211117876113  0.7872788155401123  1.0000
  H   H8        1.0  0.5644139028784069  0.3265621021760979  0.21273983845293284  1.0000
  H   H9        1.0  0.10182150785627193  0.7253215040996964  0.8156996145874371  1.0000
  H   H10       1.0  0.8981570780037558  0.2746845480851902  0.1843188459948308  1.0000
  H   H11       1.0  0.3251409222667689  0.982027203349098  0.6538266120310394  1.0000
  H   H12       1.0  0.6748153279981822  0.017984969472728103  0.346173250478337  1.0000
  H   H13       1.0  0.3481493858915671  0.05158314369910501  0.5397679180622388  1.0000
  H   H14       1.0  0.6518353399411511  0.9484021336123192  0.4602408060074764  1.0000
  H   H15       1.0  0.0886818441635029  0.9301191111712869  0.5748093075613736  1.0000
  H   H16       1.0  0.9113146672554675  0.0698933548382215  0.42519245962469643  1.0000
  H   H17       1.0  0.127445548013668  0.2966696565986097  0.8381118646082155  1.0000
  H   H18       1.0  0.8725448652821302  0.7033468122133613  0.16188655248939193  1.0000
  H   H19       1.0  0.5961173064329089  0.8889398648745794  0.8535180337216984  1.0000
  H   H20       1.0  0.40387720645982467  0.11105783338403091  0.14646928930937964  1.0000
  H   H21       1.0  0.40720628716022844  0.5027437493088911  0.9164888477871854  1.0000
  H   H22       1.0  0.5927683613652379  0.49725423954203757  0.08353190781124199  1.0000
  H   H23       1.0  0.06168797411056908  0.5375602715994816  0.9376622442823004  1.0000
  H   H24       1.0  0.9382946612359503  0.46244772522944544  0.062361486470976495  1.0000
  H   H25       1.0  0.14036820552331622  0.8923914051866222  0.04165174050188368  1.0000
  H   H26       1.0  0.8596323165451453  0.10761719553424601  0.9583439709086006  1.0000
  H   H27       1.0  0.9018387205834556  0.7790749307991972  0.9984315275517301  1.0000
  H   H28       1.0  0.09820213956771788  0.22093184268105404  0.0015735579423931997  1.0000
  H   H29       1.0  0.1183036094755252  0.8801348291202017  0.9224165908305932  1.0000
  H   H30       1.0  0.8816949741290756  0.1198726228459464  0.07758728042796288  1.0000
  H   H31       1.0  0.46320441333959655  0.43622827951298154  0.6919833066971177  1.0000
  H   H32       1.0  0.5368465996132842  0.563765628049147  0.30801919283516094  1.0000
  H   H33       1.0  0.6074617954027629  0.31724867822759967  0.4490633389963746  1.0000
  H   H34       1.0  0.3925286019160623  0.6827786203981602  0.5509449349558435  1.0000
  H   H35       1.0  0.3503128752924596  0.2711920487375751  0.4031291929029378  1.0000
  H   H36       1.0  0.6497462930256717  0.7287801122775336  0.5968628796756617  1.0000
  C   C1        1.0  0.8534352113858645  0.10762409492564022  0.6865627511429507  1.0000
  C   C2        1.0  0.14658549716333621  0.8923855196299469  0.31344198486100777  1.0000
  C   C3        1.0  0.44902724960742557  0.08716291564309132  0.8272571276522738  1.0000
  C   C4        1.0  0.5510155163083681  0.9128529259258188  0.17274432921677624  1.0000
  C   C5        1.0  0.1159308755041693  0.5346608873378997  0.7575877029270897  1.0000
  C   C6        1.0  0.8840758559500443  0.4653425015012688  0.2424242015005262  1.0000
  C   C7        1.0  0.012607548841522495  0.6017762854609572  0.6704751655505274  1.0000
  C   C8        1.0  0.9874053660695451  0.3981983871167288  0.3295238205082355  1.0000
  C   C9        1.0  0.4774030877446833  0.20761311685487263  0.772475701121685  1.0000
  C   C10       1.0  0.5225712656296225  0.7923835124338084  0.22750597073266474  1.0000
  C   C11       1.0  0.8191566796686091  0.9917126025972183  0.7404394960265178  1.0000
  C   C12       1.0  0.1808600444481101  0.008287081818132001  0.2595594866835355  1.0000
  C   C13       1.0  0.6858667737034879  0.2229572064113156  0.7008259016373513  1.0000
  C   C14       1.0  0.3141176719216219  0.777039441039065  0.29915961980291417  1.0000
  C   C15       1.0  0.23759418654196196  0.6396570099784852  0.8169352498625313  1.0000
  C   C16       1.0  0.7623823964891372  0.36034017260453766  0.18307469504455295  1.0000
  C   C17       1.0  0.2109009786946032  0.014124678512338602  0.5954888451854499  1.0000
  C   C18       1.0  0.7890834940932336  0.9858827105354776  0.4045119305762056  1.0000
  C   C19       1.0  0.2930694599259239  0.3115205889615069  0.7868050446666288  1.0000
  C   C20       1.0  0.7068988174399352  0.6884829425824535  0.21317927741422685  1.0000
  C   C21       1.0  0.6175495221264953  0.9816726253208828  0.812038531242578  1.0000
  C   C22       1.0  0.3824409662629336  0.018322095647150104  0.18794556961260156  1.0000
  C   C23       1.0  0.2567643711587024  0.5825033582331116  0.9133078678001352  1.0000
  C   C24       1.0  0.7432102927988564  0.4174808572430351  0.08669972936210968  1.0000
  C   C25       1.0  0.1040917564779988  0.8239218552523156  0.9878164375626068  1.0000
  C   C26       1.0  0.895953175963335  0.1760740559814735  0.012182759771327796  1.0000
  S   S1        1.0  0.360816084069171  0.6985765890568842  0.994973157419764  1.0000
  S   S2        1.0  0.6392229226073596  0.3014121753812874  0.005032398788202399  1.0000
  N   N1        1.0  0.3027301550019317  0.4272189968456532  0.7404557393608681  1.0000
  N   N2        1.0  0.6972663121875726  0.5727876702582152  0.2595340271952721  1.0000
  O   O1        1.0  0.7205448979680398  0.3316948552499497  0.6512966259298238  1.0000
  O   O2        1.0  0.2794757438925046  0.6683139141188476  0.34869868845231605  1.0000
  O   O3        1.0  0.1148474975289488  0.57029739786325  0.593635983209168  1.0000
  O   O4        1.0  0.8851853434464019  0.4296994338012681  0.4063620790300177  1.0000
  O   O5        1.0  0.0422673593371883  0.12588580274792346  0.6165178701794999  1.0000
  O   O6        1.0  0.9577533628654038  0.8741198576542145  0.383484262871292  1.0000
  O   O7        1.0  0.8303303764604165  0.6858674018564132  0.684831500476285  1.0000
  O   O8        1.0  0.1696886141146265  0.3141082216376603  0.3151734146790587  1.0000
  O   O9        1.0  0.44688728134725864  0.2596760796185436  0.46040465235238764  1.0000
  O   O10       1.0  0.5531172981241497  0.7403383757916302  0.539601630915669  1.0000
