data_image0
_chemical_formula_structural       Zn2H44C52S4N28Cl4O4
_chemical_formula_sum              "Zn2 H44 C52 S4 N28 Cl4 O4"
_cell_length_a       10.372027350021249
_cell_length_b       11.509440729090574
_cell_length_c       13.201670410001206
_cell_angle_alpha    90.00004445052215
_cell_angle_beta     90.00001202930967
_cell_angle_gamma    100.59729535592949

_space_group_name_H-M_alt    "P 1"
_space_group_IT_number       1

loop_
  _space_group_symop_operation_xyz
  'x, y, z'

loop_
  _atom_site_type_symbol
  _atom_site_label
  _atom_site_symmetry_multiplicity
  _atom_site_fract_x
  _atom_site_fract_y
  _atom_site_fract_z
  _atom_site_occupancy
  Zn  Zn1       1.0  0.4999982193042313  1.947107790998968e-07  0.9999984923498102  1.0000
  Zn  Zn2       1.0  0.9999981869236477  5.474404006002193e-07  0.5000011974242753  1.0000
  H   H1        1.0  0.6190932226890523  0.16485030617576513  0.20627097060913965  1.0000
  H   H2        1.0  0.8809052935873467  0.8351483820809946  0.706270067483068  1.0000
  H   H3        1.0  0.38090751907247977  0.8351495946548367  0.793728658528721  1.0000
  H   H4        1.0  0.11909370330344161  0.16485240668247053  0.293730319134866  1.0000
  H   H5        1.0  0.24421830331392153  0.13307909608670343  0.0745194218480805  1.0000
  H   H6        1.0  0.25578070333546077  0.8669218143348872  0.5745223085842  1.0000
  H   H7        1.0  0.7557799124259432  0.8669225786052407  0.9254794498102896  1.0000
  H   H8        1.0  0.7442196224153432  0.1330807402771512  0.4254780780344376  1.0000
  H   H9        1.0  0.5767053856329767  0.2661224915870691  0.36626817909021975  1.0000
  H   H10       1.0  0.9232935729439686  0.7338781185254386  0.8662687283738819  1.0000
  H   H11       1.0  0.4232965024187507  0.7338782911661781  0.6337314500480389  1.0000
  H   H12       1.0  0.07670794996811027  0.26612089637595193  0.1337309007637373  1.0000
  H   H13       1.0  0.4152116210601449  0.20471423508075048  0.4093831442674372  1.0000
  H   H14       1.0  0.08478736451103694  0.795286113732786  0.9093844409551792  1.0000
  H   H15       1.0  0.5847893032712079  0.7952865496757796  0.5906164848707434  1.0000
  H   H16       1.0  0.9152114498099235  0.20471379110475144  0.0906159456624351  1.0000
  H   H17       1.0  0.9876759558028068  0.7174445591920815  0.4305905278038011  1.0000
  H   H18       1.0  0.5123226177844558  0.282558766616134  0.930595251148965  1.0000
  H   H19       1.0  0.012323406227992025  0.28255799742397164  0.5694113737745639  1.0000
  H   H20       1.0  0.4876763791061477  0.7174420221469688  0.0694043779890663  1.0000
  H   H21       1.0  0.6955874107708623  0.9217726824411016  0.38524025336040063  1.0000
  H   H22       1.0  0.8044094469456411  0.0782270660145983  0.8852433672419479  1.0000
  H   H23       1.0  0.30440965867881425  0.07822811032820451  0.6147586182975857  1.0000
  H   H24       1.0  0.19559014852605838  0.9217719528940835  0.11475777685532762  1.0000
  H   H25       1.0  0.5426468448755697  0.7762968770136849  0.273122561905673  1.0000
  H   H26       1.0  0.9573528499321782  0.22370275751519128  0.7731265559359244  1.0000
  H   H27       1.0  0.4573548606061451  0.22370302181327162  0.726876309752363  1.0000
  H   H28       1.0  0.04264674553934367  0.7762962613931351  0.2268738306814484  1.0000
  H   H29       1.0  0.6243156087720791  0.6747547271503294  0.208276951636357  1.0000
  H   H30       1.0  0.8756825433330988  0.3252421951874211  0.7082802448922508  1.0000
  H   H31       1.0  0.3756851329894531  0.32524517368027267  0.7917226775015038  1.0000
  H   H32       1.0  0.12431668699877457  0.6747550558690419  0.2917201417244968  1.0000
  H   H33       1.0  0.2553770388518402  0.33323894970576623  0.4366963861056945  1.0000
  H   H34       1.0  0.2446219598910986  0.6667614253970059  0.9366961047238574  1.0000
  H   H35       1.0  0.7446225566198591  0.6667600692029225  0.5633047579915882  1.0000
  H   H36       1.0  0.7553791978815241  0.3332358216528847  0.0633042818930321  1.0000
  H   H37       1.0  0.3699685313189179  0.7080611887209544  0.3849909446240716  1.0000
  H   H38       1.0  0.13003062505894292  0.29194002054068596  0.8849934199912395  1.0000
  H   H39       1.0  0.6300304655716857  0.2919396000421415  0.6150086845139596  1.0000
  H   H40       1.0  0.8699689704127563  0.7080589983680031  0.11500772410603587  1.0000
  H   H41       1.0  0.7224910893872404  0.5324463493925934  0.30400570562528617  1.0000
  H   H42       1.0  0.7775072914539223  0.46755154901320134  0.8040083233727984  1.0000
  H   H43       1.0  0.277509053793743  0.4675553212935171  0.6959946809930384  1.0000
  H   H44       1.0  0.2224942314581639  0.5324474658881897  0.1959913057648208  1.0000
  C   C1        1.0  0.516825164310319  0.1682605317354842  0.1908214038563116  1.0000
  C   C2        1.0  0.9831725633651586  0.8317390275804541  0.6908220290595182  1.0000
  C   C3        1.0  0.48317383258046936  0.831740257027981  0.8091789827616223  1.0000
  C   C4        1.0  0.016827397246366605  0.16826175918046  0.3091798725182926  1.0000
  C   C5        1.0  0.32573881469975413  0.1533335831866651  0.1271309590380767  1.0000
  C   C6        1.0  0.17426021732180166  0.8466673778747306  0.6271323044926334  1.0000
  C   C7        1.0  0.6742613284810516  0.8466680874990827  0.8728686701003454  1.0000
  C   C8        1.0  0.82573914470899  0.15333517874132951  0.3728695970857387  1.0000
  C   C9        1.0  0.47192906007614965  0.2661784567992811  0.35512791416017103  1.0000
  C   C10       1.0  0.0280687530392356  0.7338209578682039  0.8551276452721054  1.0000
  C   C11       1.0  0.528071499115562  0.733820560105393  0.6448717149773769  1.0000
  C   C12       1.0  0.9719314410128276  0.2661762911846068  0.14487198386481026  1.0000
  C   C13       1.0  0.8987152926189379  0.7457415395757108  0.40580578825261426  1.0000
  C   C14       1.0  0.6012913947883902  0.2542590925667341  0.9058059610752237  1.0000
  C   C15       1.0  0.10128292312147379  0.2542601351173346  0.5941953558454642  1.0000
  C   C16       1.0  0.3987085658224032  0.7457416941927165  0.09419291058298278  1.0000
  C   C17       1.0  0.7527722664115118  0.8518290546548571  0.3845615319100304  1.0000
  C   C18       1.0  0.7472282632888038  0.14816980120740916  0.8845624122693535  1.0000
  C   C19       1.0  0.24722691304928193  0.1481726180349057  0.6154396121881192  1.0000
  C   C20       1.0  0.2527709670428848  0.8518274498486917  0.1154372168674911  1.0000
  C   C21       1.0  0.5940927011778854  0.7020471205915371  0.28315687679177864  1.0000
  C   C22       1.0  0.9059077796190493  0.29795163766544164  0.783158641116607  1.0000
  C   C23       1.0  0.4059080405838316  0.2979527802394274  0.716843509825992  1.0000
  C   C24       1.0  0.09409277957283993  0.7020473792395948  0.2168417455008438  1.0000
  C   C25       1.0  0.5068943678872769  0.6003696828951491  0.3350502685173423  1.0000
  C   C26       1.0  0.99310402792549  0.39962824539217223  0.835052873035714  1.0000
  C   C27       1.0  0.4931063738740704  0.3996302179350907  0.6649486031406225  1.0000
  C   C28       1.0  0.006895750116029821  0.6003716574424374  0.1649482710618742  1.0000
  C   C29       1.0  0.5365153228225594  0.4858506866518013  0.3312999487542854  1.0000
  C   C30       1.0  0.9634840349012279  0.5141472360209889  0.8312995968959385  1.0000
  C   C31       1.0  0.4634865652293456  0.5141500961018084  0.6687004378638688  1.0000
  C   C32       1.0  0.03651730544103062  0.4858508949544672  0.16870003224136804  1.0000
  C   C33       1.0  0.44383627507459517  0.38906246244501125  0.36646212566492403  1.0000
  C   C34       1.0  0.05616347094775883  0.6109369591258229  0.8664625347756142  1.0000
  C   C35       1.0  0.5561656129773169  0.6109383203085983  0.6335382609532303  1.0000
  C   C36       1.0  0.9438361245235712  0.38906205978213393  0.1335370943618557  1.0000
  C   C37       1.0  0.32732396203121544  0.4082915997360461  0.4104262567557696  1.0000
  C   C38       1.0  0.17267424289207162  0.591709636009945  0.9104259131556417  1.0000
  C   C39       1.0  0.6726761811497609  0.5917100709500644  0.5895741298625551  1.0000
  C   C40       1.0  0.8273253525792653  0.4082893828980119  0.08957371598183529  1.0000
  C   C41       1.0  0.30302103339409564  0.5230153146736072  0.4198743408147436  1.0000
  C   C42       1.0  0.1969783223760047  0.4769868120894855  0.9198746801963721  1.0000
  C   C43       1.0  0.6969791097870655  0.47698635601286543  0.5801268032834841  1.0000
  C   C44       1.0  0.8030227845253534  0.5230148565933421  0.08012570642202378  1.0000
  C   C45       1.0  0.39119322771796305  0.6185828368301785  0.3814330326490918  1.0000
  C   C46       1.0  0.10880689066389954  0.38141836700248904  0.8814332933331741  1.0000
  C   C47       1.0  0.6088078791832102  0.3814188318522795  0.6185665964894014  1.0000
  C   C48       1.0  0.8911944496785438  0.6185797639733366  0.1185670932840281  1.0000
  C   C49       1.0  0.765641706223441  0.9566578053630224  0.11361252288011059  1.0000
  C   C50       1.0  0.7343539250791551  0.0433363780868774  0.6136186321407775  1.0000
  C   C51       1.0  0.2343596341175384  0.0433403256098828  0.8863818038978835  1.0000
  C   C52       1.0  0.26564548782345543  0.95666175689734  0.38638554187578916  1.0000
  S   S1        1.0  0.9132938092185298  0.9394880739945819  0.14130372111012687  1.0000
  S   S2        1.0  0.5866970168362399  0.06050614612480132  0.6413083044588956  1.0000
  S   S3        1.0  0.08670234738148248  0.0605082991439829  0.8586928781065735  1.0000
  S   S4        1.0  0.4132975774639505  0.9394919988747433  0.3586935971176004  1.0000
  N   N1        1.0  0.4465197208179318  0.12611472886442954  0.10945137812805682  1.0000
  N   N2        1.0  0.05347797381705281  0.8738844493304113  0.6094512086464903  1.0000
  N   N3        1.0  0.5534800572235881  0.8738851739701802  0.8905497659695384  1.0000
  N   N4        1.0  0.9465210230739131  0.12611633943342332  0.3905499354513465  1.0000
  N   N5        1.0  0.4404960280809078  0.21810658113246015  0.2534165241230397  1.0000
  N   N6        1.0  0.05950288227333538  0.7818936175571024  0.753417050318525  1.0000
  N   N7        1.0  0.5595048962504378  0.7818942036240698  0.7465831050151409  1.0000
  N   N8        1.0  0.9404967131980017  0.21810540135085438  0.2465825788189449  1.0000
  N   N9        1.0  0.3174633357339046  0.20846958545474342  0.21455930741660717  1.0000
  N   N10       1.0  0.1825359210208219  0.7915323436855529  0.7145606165451852  1.0000
  N   N11       1.0  0.6825369900168994  0.7915329691572952  0.7854410792020302  1.0000
  N   N12       1.0  0.8174638570203354  0.2084675591483318  0.2854390125926045  1.0000
  N   N13       1.0  0.8698606907294888  0.8536920991694219  0.42729552764505024  1.0000
  N   N14       1.0  0.6301386624190712  0.1463103375376136  0.927299418685706  1.0000
  N   N15       1.0  0.1301384887311201  0.14630957351997154  0.5727048589731965  1.0000
  N   N16       1.0  0.3698599693320759  0.8536886833739886  0.0727009679315955  1.0000
  N   N17       1.0  0.8057855370753871  0.6777450100228678  0.35187091652222335  1.0000
  N   N18       1.0  0.6942120856989432  0.3222538203844821  0.8518741798903378  1.0000
  N   N19       1.0  0.1942146061057741  0.32225666066361214  0.6481302275759973  1.0000
  N   N20       1.0  0.3057876923420295  0.6777460824490404  0.14812469176754917  1.0000
  N   N21       1.0  0.7140582179370157  0.7469583697776375  0.33927707224138703  1.0000
  N   N22       1.0  0.7859430202040087  0.25304397820115554  0.8392795450126086  1.0000
  N   N23       1.0  0.28594307153397835  0.25304418283075597  0.6607225568974187  1.0000
  N   N24       1.0  0.2140586852782604  0.7469559206268882  0.16072159908512867  1.0000
  N   N25       1.0  0.6574130421028456  0.96952833819649  0.0933332670442297  1.0000
  N   N26       1.0  0.8425731247855595  0.030466729691930504  0.593337869177823  1.0000
  N   N27       1.0  0.3425790261742208  0.030471580661490805  0.9066618172135605  1.0000
  N   N28       1.0  0.15742339695592739  0.9695314113021356  0.4066663048385237  1.0000
  Cl  Cl1       1.0  0.1585650564657684  0.5475977651892165  0.47585816266139597  1.0000
  Cl  Cl2       1.0  0.3414360711741224  0.4524035275278636  0.9758585074495157  1.0000
  Cl  Cl3       1.0  0.841435685295764  0.4524021356413855  0.5241414664764648  1.0000
  Cl  Cl4       1.0  0.6585635242972074  0.5475954913800934  0.024141121687961196  1.0000
  O   O1        1.0  0.6505572834029962  0.46342284816532947  0.2920776405658501  1.0000
  O   O2        1.0  0.8494420554059233  0.5365750367556431  0.7920795589388658  1.0000
  O   O3        1.0  0.3494444220789105  0.5365770506619896  0.7079219885720887  1.0000
  O   O4        1.0  0.1505592849363424  0.46342309421981315  0.2079200701984405  1.0000
