data_image0
_chemical_formula_structural       Cu4H40C32I4N8
_chemical_formula_sum              "Cu4 H40 C32 I4 N8"
_cell_length_a       8.57294029980662
_cell_length_b       9.767557596824886
_cell_length_c       12.23727255558072
_cell_angle_alpha    112.59017379433118
_cell_angle_beta     90.7232219697302
_cell_angle_gamma    95.4578824347919

_space_group_name_H-M_alt    "P 1"
_space_group_IT_number       1

loop_
  _space_group_symop_operation_xyz
  'x, y, z'

loop_
  _atom_site_type_symbol
  _atom_site_label
  _atom_site_symmetry_multiplicity
  _atom_site_fract_x
  _atom_site_fract_y
  _atom_site_fract_z
  _atom_site_occupancy
  Cu  Cu1       1.0  0.5883685478911501  0.4510099396535239  0.7444040760723214  1.0000
  Cu  Cu2       1.0  0.4116313547963771  0.5489878616448324  0.255595238618902  1.0000
  Cu  Cu3       1.0  0.8480734373697275  0.5920653984336398  0.7470562364929594  1.0000
  Cu  Cu4       1.0  0.151927600611593  0.40793238705090573  0.25294635716019104  1.0000
  H   H1        1.0  0.2931577993727075  0.5810293879505081  0.0218221887270786  1.0000
  H   H2        1.0  0.7068435304122928  0.418970640909734  0.9781778313449937  1.0000
  H   H3        1.0  0.37764255921201345  0.6624278410625379  0.9246889896558489  1.0000
  H   H4        1.0  0.6223564382700032  0.3375721943673896  0.07531100151223316  1.0000
  H   H5        1.0  0.48552208861762136  0.23556736529680222  0.8760472710789674  1.0000
  H   H6        1.0  0.5144792411673863  0.76443266356344  0.12395274899310495  1.0000
  H   H7        1.0  0.3591404907628757  0.3233472002691968  0.992646287066869  1.0000
  H   H8        1.0  0.6408599261021877  0.6766550595903738  0.007355225609550967  1.0000
  H   H9        1.0  0.22767858134114502  0.4680217853977027  0.7905756953012856  1.0000
  H   H10       1.0  0.7723201551948904  0.5319760191854928  0.20942360493794618  1.0000
  H   H11       1.0  0.18611787624247  0.3349068565292797  0.853913905047982  1.0000
  H   H12       1.0  0.8138840900876403  0.665088704220416  0.14608556374586354  1.0000
  H   H13       1.0  0.09402838764213331  0.11306250060101776  0.6802517623681867  1.0000
  H   H14       1.0  0.9059706329831556  0.8869375442256313  0.31974578041744195  1.0000
  H   H15       1.0  0.1384111493114943  0.9356943635082117  0.47105576869656574  1.0000
  H   H16       1.0  0.8615865669748857  0.06430456604767439  0.5289422303001319  1.0000
  H   H17       1.0  0.37037744542668344  0.9963513974966034  0.37083253227167046  1.0000
  H   H18       1.0  0.629621291109352  0.003646407086591801  0.6291667679675613  1.0000
  H   H19       1.0  0.559069621458029  0.22153992797779407  0.48474628300266437  1.0000
  H   H20       1.0  0.4409310482475917  0.7784545206333818  0.5152528258747539  1.0000
  H   H21       1.0  0.9654896039093543  0.6557195703390661  0.438972393952824  1.0000
  H   H22       1.0  0.03451029106374651  0.3442782278270471  0.5610277368658886  1.0000
  H   H23       1.0  0.7889436226379303  0.6551011638764592  0.5164996197068703  1.0000
  H   H24       1.0  0.21105716211183528  0.344894393893597  0.48350146688994766  1.0000
  H   H25       1.0  0.20429424190275816  0.5817190442507041  0.6586868307757784  1.0000
  H   H26       1.0  0.7957064278028695  0.4182754043604717  0.34131227810164694  1.0000
  H   H27       1.0  0.20987897512448236  0.6102073540300453  0.5235551228050428  1.0000
  H   H28       1.0  0.7901264896601106  0.38978819686513333  0.47644438934478484  1.0000
  H   H29       1.0  0.9214674926423927  0.8487617846865165  0.6721540840484368  1.0000
  H   H30       1.0  0.0785356475536361  0.1512337759105833  0.3278445830699185  1.0000
  H   H31       1.0  0.11765058457941543  0.8422385160311877  0.6240868527876416  1.0000
  H   H32       1.0  0.8823547497321869  0.15775591944061776  0.3759123138977572  1.0000
  H   H33       1.0  0.2711858845377719  0.003805404117642299  0.8029469582299387  1.0000
  H   H34       1.0  0.7288114480440628  0.9961901823003887  0.197049188245984  1.0000
  H   H35       1.0  0.34456657222634857  0.06725355189722391  0.01916712721840951  1.0000
  H   H36       1.0  0.6554254750242521  0.9327565609980868  0.9808317913281361  1.0000
  H   H37       1.0  0.20189393190225496  0.9183905263754185  0.12134113524242453  1.0000
  H   H38       1.0  0.7981030100426026  0.08162179169828927  0.8786617965508942  1.0000
  H   H39       1.0  0.9942102819458754  0.7134803097531446  0.006113727536572406  1.0000
  H   H40       1.0  0.0057927050248878014  0.2865241649867514  0.9938909533551413  1.0000
  C   C1        1.0  0.3973960585805187  0.5892124246517055  0.9716686849770542  1.0000
  C   C2        1.0  0.6026042278115539  0.4107887197845058  0.028332482234937135  1.0000
  C   C3        1.0  0.46057957816735506  0.3433207522665853  0.9432265252801532  1.0000
  C   C4        1.0  0.5394207236535706  0.6566803984341051  0.05677300967686708  1.0000
  C   C5        1.0  0.2763487014357722  0.3770534914970938  0.8074831191774766  1.0000
  C   C6        1.0  0.723652367403247  0.6229443065164234  0.19251620996574564  1.0000
  C   C7        1.0  0.302579847265669  0.25797802886157944  0.6890946231834081  1.0000
  C   C8        1.0  0.6974225259122593  0.7420208844227005  0.3109042497487451  1.0000
  C   C9        1.0  0.19587294733950966  0.1320627876637275  0.6334981491200297  1.0000
  C   C10       1.0  0.8041224289294606  0.8679361453296013  0.36650063710015984  1.0000
  C   C11       1.0  0.21903368401990522  0.0357639971740724  0.5176709663717888  1.0000
  C   C12       1.0  0.7809652138468195  0.9642349353614538  0.48232541482192937  1.0000
  C   C13       1.0  0.3491100793109326  0.06839849526188858  0.4614441009596747  1.0000
  C   C14       1.0  0.6508873606006205  0.9315981971827866  0.5385548393631296  1.0000
  C   C15       1.0  0.45383947062346414  0.19338259783655332  0.5241001408140633  1.0000
  C   C16       1.0  0.5461626338940633  0.8066140814687515  0.4758988573167217  1.0000
  C   C17       1.0  0.8995019344037376  0.6050318656809708  0.493650769573435  1.0000
  C   C18       1.0  0.10050003192637293  0.39496369506872503  0.5063486992204035  1.0000
  C   C19       1.0  0.1363928166754249  0.5610411979073504  0.576081902445104  1.0000
  C   C20       1.0  0.8636090191816947  0.43895324741898634  0.423917220884313  1.0000
  C   C21       1.0  0.030263500477566718  0.7957589156154868  0.6698370641062469  1.0000
  C   C22       1.0  0.9697394938166184  0.204235523293768  0.3301628898026437  1.0000
  C   C23       1.0  0.08939274905710451  0.8323411680063018  0.7954503238467512  1.0000
  C   C24       1.0  0.9106042840066239  0.1676521719037893  0.20454921233774576  1.0000
  C   C25       1.0  0.210507685034294  0.9445204017479868  0.8522619235126003  1.0000
  C   C26       1.0  0.7894914429207064  0.05548074910530689  0.14773841311991023  1.0000
  C   C27       1.0  0.25208513187801884  0.9785174930763747  0.9711205057597712  1.0000
  C   C28       1.0  0.7479075133455666  0.021488136047182107  0.028881942145965008  1.0000
  C   C29       1.0  0.17242575581511227  0.8967497464571819  0.028824896504431766  1.0000
  C   C30       1.0  0.8275745541112371  0.10326144633863521  0.9711777331804401  1.0000
  C   C31       1.0  0.05579630970186863  0.7834360087348103  0.9654952472401208  1.0000
  C   C32       1.0  0.9442006009942929  0.2165662578470418  0.034507038207799205  1.0000
  I   I1        1.0  0.8436994291615605  0.3329763183935058  0.7577102938213758  1.0000
  I   I2        1.0  0.15629918461590364  0.6670203738985663  0.24228784482593826  1.0000
  I   I3        1.0  0.5855601482892823  0.7086895260303196  0.7344797144435875  1.0000
  I   I4        1.0  0.4144437130292856  0.29131270204903353  0.2655275544812029  1.0000
  N   N1        1.0  0.4319981322669193  0.28613403506854956  0.6356417084887058  1.0000
  N   N2        1.0  0.5680015017602003  0.7138615322508317  0.3643577314011497  1.0000
  N   N3        1.0  0.4215313667982272  0.44111950314908205  0.8823187945466772  1.0000
  N   N4        1.0  0.5784699629867731  0.5588805257111601  0.11768122552539502  1.0000
  N   N5        1.0  0.013847966033324595  0.7518027059334499  0.8512483969625892  1.0000
  N   N6        1.0  0.9861542612427671  0.24819508566297796  0.14875176276010652  1.0000
  N   N7        1.0  0.9908324709182993  0.6345373261144757  0.6048208260008112  1.0000
  N   N8        1.0  0.00916819878732872  0.3654571224967001  0.3951782828766072  1.0000
