data_image0
_chemical_formula_structural       Er2CuH20C32N4O28
_chemical_formula_sum              "Er2 Cu1 H20 C32 N4 O28"
_cell_length_a       10.186309498706311
_cell_length_b       10.717506344480396
_cell_length_c       11.216266253227591
_cell_angle_alpha    86.37790913390928
_cell_angle_beta     75.95256352386436
_cell_angle_gamma    68.95136368348467

_space_group_name_H-M_alt    "P 1"
_space_group_IT_number       1

loop_
  _space_group_symop_operation_xyz
  'x, y, z'

loop_
  _atom_site_type_symbol
  _atom_site_label
  _atom_site_symmetry_multiplicity
  _atom_site_fract_x
  _atom_site_fract_y
  _atom_site_fract_z
  _atom_site_occupancy
  Er  Er1       1.0  0.5874309124581741  0.5989894340170921  0.6314144518616018  1.0000
  Er  Er2       1.0  0.4125630115912457  0.40099961508107657  0.36858754960722717  1.0000
  Cu  Cu1       1.0  0.9999943638153609  0.49999821183392607  0.49999893349441754  1.0000
  H   H1        1.0  0.3672306125167495  0.979628277448761  0.46805015340925854  1.0000
  H   H2        1.0  0.6327735481824136  0.020371787217840193  0.5319592931944968  1.0000
  H   H3        1.0  0.9714560810450407  0.1727707393869338  0.3486901417331367  1.0000
  H   H4        1.0  0.028547178148613832  0.827236677129221  0.6512948174024161  1.0000
  H   H5        1.0  0.17216197968727445  0.7431472755286066  0.32652680851336413  1.0000
  H   H6        1.0  0.8278481626956304  0.2568444214175685  0.6734694858822793  1.0000
  H   H7        1.0  0.6726072215704946  0.47508282134324276  0.9476715144415523  1.0000
  H   H8        1.0  0.3273922231532325  0.5249411414150913  0.05233612104708391  1.0000
  H   H9        1.0  0.9322071888574398  0.3106392177924491  0.2108771129970819  1.0000
  H   H10       1.0  0.06779362863192522  0.6893588517558484  0.789130587934892  1.0000
  H   H11       1.0  0.1396646419779799  0.33786431458662497  0.8319890272940998  1.0000
  H   H12       1.0  0.8603369993795199  0.6621535822539072  0.16801593787018723  1.0000
  H   H13       1.0  0.5082685159708404  0.7681692680183901  0.8558147106814504  1.0000
  H   H14       1.0  0.49177217148403674  0.23188513905991934  0.1441568881742938  1.0000
  H   H15       1.0  0.5715848691763483  0.8369571928570493  0.7401668215081615  1.0000
  H   H16       1.0  0.4283636804845727  0.1630618663301533  0.25974136360389377  1.0000
  H   H17       1.0  0.7975339302034499  0.5631840923561882  0.38479674484144516  1.0000
  H   H18       1.0  0.20245437486487108  0.43681207636847574  0.6152086201981178  1.0000
  H   H19       1.0  0.7173167188632238  0.4601352703763907  0.3870289535375804  1.0000
  H   H20       1.0  0.28267785696355935  0.5398547152494687  0.6129710372809855  1.0000
  C   C1        1.0  0.2807104722674866  0.8490204799760407  0.4003285912766757  1.0000
  C   C2        1.0  0.7192920948299742  0.1509754592685297  0.599674429045244  1.0000
  C   C3        1.0  0.28178601314859725  0.9745803813286711  0.42806315710952714  1.0000
  C   C4        1.0  0.7182299558839346  0.025409271367877295  0.571933761565127  1.0000
  C   C5        1.0  0.17162713128193732  0.0914047700187197  0.4082297471526957  1.0000
  C   C6        1.0  0.8283834558579813  0.9085828332416312  0.5917623284731093  1.0000
  C   C7        1.0  0.06055530048373469  0.08309822933030381  0.36013328631153746  1.0000
  C   C8        1.0  0.9394455974395298  0.9168968817176973  0.639875535162581  1.0000
  C   C9        1.0  0.06479174375753873  0.9584510364359035  0.3284452928588308  1.0000
  C   C10       1.0  0.9352258143393753  0.041542425539184094  0.6715455939865508  1.0000
  C   C11       1.0  0.1726076853679361  0.8402881423806646  0.3483793534678695  1.0000
  C   C12       1.0  0.8274194863731382  0.15970110903224108  0.6516070149632327  1.0000
  C   C13       1.0  0.3907603008332429  0.7238221994953593  0.43392275752515275  1.0000
  C   C14       1.0  0.6092337507748979  0.2761749060616552  0.5660830011163541  1.0000
  C   C15       1.0  0.16721119504532572  0.22828691319057978  0.43583265230918766  1.0000
  C   C16       1.0  0.8327830099764597  0.7717037559872396  0.5641548805198012  1.0000
  C   C17       1.0  0.9047751817653095  0.41470274496080606  0.8766651954049821  1.0000
  C   C18       1.0  0.09522458761087188  0.5853095870314605  0.12335493103793743  1.0000
  C   C19       1.0  0.7787971028126464  0.43222234798862746  0.968917929540659  1.0000
  C   C20       1.0  0.22120067306098415  0.5678008091548178  0.031096396965253348  1.0000
  C   C21       1.0  0.7885024923016175  0.39430257372269745  0.08940525659993878  1.0000
  C   C22       1.0  0.211511040091807  0.6057021107192426  0.9105945302329346  1.0000
  C   C23       1.0  0.9238549763393422  0.33872654517426076  0.11755089529440708  1.0000
  C   C24       1.0  0.0761505702929953  0.6612725695375019  0.8824609897414393  1.0000
  C   C25       1.0  0.04787942593566902  0.31910650640896415  0.023288911230579898  1.0000
  C   C26       1.0  0.9521172841199288  0.6809056537797672  0.976723009686424  1.0000
  C   C27       1.0  0.040887265201199334  0.3556754617766629  0.903324193059035  1.0000
  C   C28       1.0  0.9591073263858689  0.6443396477578247  0.09668528966891898  1.0000
  C   C29       1.0  0.8951634986976839  0.45879317245929485  0.7488742022782092  1.0000
  C   C30       1.0  0.10483724257099424  0.5412081491511103  0.2511439463576366  1.0000
  C   C31       1.0  0.653828172184113  0.4090567330174721  0.18708735208079472  1.0000
  C   C32       1.0  0.34618779457976245  0.5909327616073343  0.812903337538309  1.0000
  N   N1        1.0  0.9488091479461362  0.9535606068166018  0.27414870308660266  1.0000
  N   N2        1.0  0.0511960236679911  0.04643889788530939  0.7258391557136576  1.0000
  N   N3        1.0  0.1914078754714623  0.2602436223811964  0.05114472224691719  1.0000
  N   N4        1.0  0.8085774232347731  0.7397637959692673  0.9488710914686679  1.0000
  O   O1        1.0  0.40002854356293943  0.6115552982898862  0.3945512221590946  1.0000
  O   O2        1.0  0.599966608468705  0.3884389210891327  0.6054589854432493  1.0000
  O   O3        1.0  0.46539228484758866  0.7392057106759965  0.50334782493848  1.0000
  O   O4        1.0  0.5346194007712626  0.26077887091629753  0.4966433604576821  1.0000
  O   O5        1.0  0.2840651576106977  0.2476321055086075  0.4297215402772991  1.0000
  O   O6        1.0  0.7159082762386361  0.7523740549841021  0.5702783586495954  1.0000
  O   O7        1.0  0.03964743179733431  0.3163403409391137  0.46098604337797866  1.0000
  O   O8        1.0  0.9603501245366032  0.6836528878989797  0.5390254817497536  1.0000
  O   O9        1.0  0.8759648449701415  0.0579015792727589  0.23167872066250794  1.0000
  O   O10       1.0  0.12403980145306555  0.9421049776152586  0.7683122363654463  1.0000
  O   O11       1.0  0.9307544245201028  0.8449214891649675  0.2746070179223992  1.0000
  O   O12       1.0  0.06924537557241452  0.1550766887144519  0.7254044735115102  1.0000
  O   O13       1.0  0.013702762277240836  0.4488196959542421  0.6714816918567976  1.0000
  O   O14       1.0  0.9862890449241279  0.5511724153980779  0.3285223207483696  1.0000
  O   O15       1.0  0.7728489550138061  0.5028417956190127  0.7231437999340997  1.0000
  O   O16       1.0  0.22716285719148027  0.49715077468709273  0.2768484730395073  1.0000
  O   O17       1.0  0.5326319895302802  0.4438459200613778  0.1592583377364463  1.0000
  O   O18       1.0  0.46737832117459277  0.5561403792628213  0.8407606646402855  1.0000
  O   O19       1.0  0.663809667055581  0.3807529385533286  0.29868905035690574  1.0000
  O   O20       1.0  0.33617989476672966  0.6192341108492699  0.7013105466166893  1.0000
  O   O21       1.0  0.19558117690989726  0.23707321535534484  0.1605480652172204  1.0000
  O   O22       1.0  0.8044205352790003  0.7629170281281573  0.8394654360163187  1.0000
  O   O23       1.0  0.3004266300897527  0.23857561123899976  0.9653641821559731  1.0000
  O   O24       1.0  0.6995686088576675  0.7614161012732907  0.03466494329007473  1.0000
  O   O25       1.0  0.5057549385942934  0.7883323667898381  0.7703504323840492  1.0000
  O   O26       1.0  0.4942213384806635  0.21166830300590797  0.229630547726984  1.0000
  O   O27       1.0  0.7378588002602554  0.5193339971075873  0.4399152856649166  1.0000
  O   O28       1.0  0.26213410509595286  0.4806550699949951  0.5600869468455373  1.0000
