data_image0
_chemical_formula_structural       Al4H48C64I4O20
_chemical_formula_sum              "Al4 H48 C64 I4 O20"
_cell_length_a       6.668100129678492
_cell_length_b       18.544129996048415
_cell_length_c       21.52930919728808
_cell_angle_alpha    102.01704085225624
_cell_angle_beta     89.99753492297145
_cell_angle_gamma    90.00391538695482

_space_group_name_H-M_alt    "P 1"
_space_group_IT_number       1

loop_
  _space_group_symop_operation_xyz
  'x, y, z'

loop_
  _atom_site_type_symbol
  _atom_site_label
  _atom_site_symmetry_multiplicity
  _atom_site_fract_x
  _atom_site_fract_y
  _atom_site_fract_z
  _atom_site_occupancy
  Al  Al1       1.0  0.8373931455109868  0.7496299592156606  0.25040640083452104  1.0000
  Al  Al2       1.0  0.16261801511308963  0.25038514613529383  0.7495948176459281  1.0000
  Al  Al3       1.0  0.33734981086100657  0.7504306080459814  0.24945266122094986  1.0000
  Al  Al4       1.0  0.6626508519633275  0.249583850614279  0.7505480743223744  1.0000
  H   H1        1.0  0.18058756221856243  0.4390953408545217  0.8846610043846538  1.0000
  H   H2        1.0  0.8194205978282056  0.5609151413499804  0.11535339431390672  1.0000
  H   H3        1.0  0.680459105134574  0.060779231477731364  0.6153808114379232  1.0000
  H   H4        1.0  0.3195430567181177  0.9392258719293811  0.38460937152455443  1.0000
  H   H5        1.0  0.2147345032115098  0.4295643834354409  0.41598220766245225  1.0000
  H   H6        1.0  0.7852706548165429  0.5704180554706114  0.5840152035699546  1.0000
  H   H7        1.0  0.7148739346644319  0.07029332408143321  0.0840391603586994  1.0000
  H   H8        1.0  0.2851627170424251  0.9296893812692351  0.9159497366771705  1.0000
  H   H9        1.0  0.5844773753270118  0.3129407062152654  0.9991646520513201  1.0000
  H   H10       1.0  0.4764156090397833  0.33850956641877167  0.9316302216327018  1.0000
  H   H11       1.0  0.6787553107366834  0.27632491359239014  0.9221920920278991  1.0000
  H   H12       1.0  0.41553528249586685  0.6870568297770063  0.0008424522115078033  1.0000
  H   H13       1.0  0.32121385722316376  0.7236755941202448  0.0778065395750716  1.0000
  H   H14       1.0  0.523580553361441  0.6615007825883766  0.06838843413625992  1.0000
  H   H15       1.0  0.08491802832250532  0.18716538724886092  0.5009019889681882  1.0000
  H   H16       1.0  0.9763363483020555  0.16146107759758627  0.5682926533481663  1.0000
  H   H17       1.0  0.17877161701025562  0.22362386198879858  0.5779653938333383  1.0000
  H   H18       1.0  0.9150136465081146  0.8128264479085916  0.499098877679245  1.0000
  H   H19       1.0  0.8212260434386068  0.7763637913113542  0.42202878387507065  1.0000
  H   H20       1.0  0.023640316752455696  0.8385355452993012  0.4317224821295014  1.0000
  H   H21       1.0  0.511880380714622  0.5893369213133045  0.9495710216148653  1.0000
  H   H22       1.0  0.4637930106578311  0.4942273984815274  0.9261119150044196  1.0000
  H   H23       1.0  0.3303928054393311  0.557086905860949  0.8899378398028263  1.0000
  H   H24       1.0  0.4881322764667858  0.4106586195132139  0.05044409720355961  1.0000
  H   H25       1.0  0.6696483469907762  0.4429178624416609  0.11007268633365193  1.0000
  H   H26       1.0  0.5362166484097486  0.5057762873014513  0.07389859497428121  1.0000
  H   H27       1.0  0.011706045180695  0.9105524393932715  0.5504183955625237  1.0000
  H   H28       1.0  0.9638813290177666  0.005679001089852427  0.5738480336107302  1.0000
  H   H29       1.0  0.8303031403675973  0.9428875115040828  0.6100537457765612  1.0000
  H   H30       1.0  0.9882781180172842  0.08944052858611685  0.4495924255068787  1.0000
  H   H31       1.0  0.1696555294534292  0.057110923158738634  0.3899476938402984  1.0000
  H   H32       1.0  0.0360833393096698  0.994315356782153  0.4261471923320813  1.0000
  H   H33       1.0  0.5104374142776179  0.5267363337675377  0.4593161931834474  1.0000
  H   H34       1.0  0.6420010740269362  0.6086018988081465  0.45441359825400707  1.0000
  H   H35       1.0  0.6586288230504209  0.5302085639746184  0.39117685811157094  1.0000
  H   H36       1.0  0.48957074425570113  0.47325519932739735  0.5406808825377141  1.0000
  H   H37       1.0  0.3413868337934289  0.4697825334810873  0.6088206841772107  1.0000
  H   H38       1.0  0.3580115834453678  0.3913881301434474  0.5455815617650189  1.0000
  H   H39       1.0  0.010432617791281  0.9732292833246775  0.040695893678588405  1.0000
  H   H40       1.0  0.14198288507962792  0.8913543043007268  0.0455438367256988  1.0000
  H   H41       1.0  0.15870045994262233  0.9697078744952852  0.10880669713070293  1.0000
  H   H42       1.0  0.9895845380164375  0.02675437108869266  0.9592972768752049  1.0000
  H   H43       1.0  0.841352688465207  0.030277206516807133  0.8911831822046353  1.0000
  H   H44       1.0  0.8580567662063032  0.10863226696898926  0.9544503242788879  1.0000
  H   H45       1.0  0.5852025042021012  0.6530071358373066  0.22630693793368548  1.0000
  H   H46       1.0  0.41479665034127317  0.34698786055148656  0.7738198531157608  1.0000
  H   H47       1.0  0.08524371002482668  0.8466214681398586  0.27603332201810105  1.0000
  H   H48       1.0  0.9147659431520268  0.1533741662545723  0.7240769158475261  1.0000
  C   C1        1.0  0.5905917070858635  0.8328205006381213  0.17652386724110875  1.0000
  C   C2        1.0  0.40939995418836617  0.16715835233977575  0.823457400237821  1.0000
  C   C3        1.0  0.09046037499231122  0.6670027503202436  0.3232856305972973  1.0000
  C   C4        1.0  0.9095282888996009  0.3329989452979803  0.6767134920718334  1.0000
  C   C5        1.0  0.5860444554491694  0.8389005532917154  0.34969028004515934  1.0000
  C   C6        1.0  0.4139487085596939  0.16110596258879187  0.6502989779334173  1.0000
  C   C7        1.0  0.08602009018857612  0.6612151107441522  0.15022924262751053  1.0000
  C   C8        1.0  0.9139970678538134  0.3387923769994714  0.8497789587665139  1.0000
  C   C9        1.0  0.9170162549469654  0.3903934365602951  0.9129869345170577  1.0000
  C   C10       1.0  0.0829904047958863  0.6096099328052278  0.08702215102623971  1.0000
  C   C11       1.0  0.4169807268236099  0.10954537944754614  0.5870617566494617  1.0000
  C   C12       1.0  0.5830019377988193  0.8904497444567315  0.4129320610937414  1.0000
  C   C13       1.0  0.23235383346131042  0.5541920740856485  0.9856507192492858  1.0000
  C   C14       1.0  0.7676693229394759  0.44581163943883706  0.014355058828634505  1.0000
  C   C15       1.0  0.7322847685697697  0.9457803413276411  0.5143319017553623  1.0000
  C   C16       1.0  0.2676903973157394  0.05421346163343804  0.48566568181379216  1.0000
  C   C17       1.0  0.2333235407942382  0.6107511835600548  0.039726048131271306  1.0000
  C   C18       1.0  0.7666966154695202  0.3892482785187641  0.9602848710214646  1.0000
  C   C19       1.0  0.7332611616741502  0.8892541593459601  0.46023454157802496  1.0000
  C   C20       1.0  0.2667140039899322  0.11073823108182525  0.5397639670418927  1.0000
  C   C21       1.0  0.9308480641545033  0.5576541480010848  0.07797684070465041  1.0000
  C   C22       1.0  0.0691600951178728  0.44234952394609206  0.9220360351854353  1.0000
  C   C23       1.0  0.43090167794899503  0.9424160947081083  0.42199405946576724  1.0000
  C   C24       1.0  0.5690914852412233  0.05758531219421311  0.5779989069117519  1.0000
  C   C25       1.0  0.9221440528538594  0.500928517797533  0.023083886024736  1.0000
  C   C26       1.0  0.0778746045940508  0.49907808475195037  0.9769276145050512  1.0000
  C   C27       1.0  0.4221479359821815  0.9990979118021099  0.4769186611635802  1.0000
  C   C28       1.0  0.5778377286356005  0.0009029400694871257  0.5230766629739989  1.0000
  C   C29       1.0  0.11919806145087361  0.46049484012390735  0.453537777550885  1.0000
  C   C30       1.0  0.8808010985477566  0.5394929048262328  0.5464592408658575  1.0000
  C   C31       1.0  0.6192779831896472  0.039435605266568516  0.04647098853284601  1.0000
  C   C32       1.0  0.38075416937703477  0.9605469807624873  0.9535197996174745  1.0000
  C   C33       1.0  0.9001983382262893  0.44023168255673556  0.46918062957848156  1.0000
  C   C34       1.0  0.09980232204709688  0.5597597588482799  0.530813605478933  1.0000
  C   C35       1.0  0.40029686515794793  0.05974635002044692  0.0308780983907866  1.0000
  C   C36       1.0  0.5997307901298542  0.940250200542451  0.969112428067092  1.0000
  C   C37       1.0  0.9080154338020775  0.37683682031860155  0.6287004095809081  1.0000
  C   C38       1.0  0.0919507330197789  0.6231463064261648  0.37129038725563396  1.0000
  C   C39       1.0  0.407916455486344  0.12333753574841214  0.8714745494248107  1.0000
  C   C40       1.0  0.5921021978097087  0.8766168512839486  0.1284888380979297  1.0000
  C   C41       1.0  0.1714829509176496  0.4780554708114552  0.5261296359677844  1.0000
  C   C42       1.0  0.8285192095521055  0.5219429641408837  0.47387180332589907  1.0000
  C   C43       1.0  0.6715256135928342  0.02195331744925261  0.9738736513516956  1.0000
  C   C44       1.0  0.32850354047410946  0.9780352350905023  0.02611486107554841  1.0000
  C   C45       1.0  0.9497567040904401  0.45733847785664505  0.5428592509789852  1.0000
  C   C46       1.0  0.05024995503993069  0.5426563937982324  0.4571407146481902  1.0000
  C   C47       1.0  0.44981069164382603  0.04270711595543738  0.957199081502303  1.0000
  C   C48       1.0  0.5502274598012845  0.9572749566102203  0.04278696660704641  1.0000
  C   C49       1.0  0.9129109727123178  0.4137363293974803  0.5880912814524706  1.0000
  C   C50       1.0  0.0870791895335543  0.586251878833558  0.41190053860731274  1.0000
  C   C51       1.0  0.4129127848460001  0.0863802545218348  0.9120344594443424  1.0000
  C   C52       1.0  0.5871178680367919  0.9136011575472627  0.08795347160584303  1.0000
  C   C53       1.0  0.6190998477289894  0.3262094974094652  0.9530071100431031  1.0000
  C   C54       1.0  0.3809038124006463  0.6737916018503116  0.047001467919663815  1.0000
  C   C55       1.0  0.11921622495582801  0.17379679938991904  0.547044723460516  1.0000
  C   C56       1.0  0.8807514415993155  0.8261907067672569  0.4529560773522762  1.0000
  C   C57       1.0  0.392359231270369  0.5488860636562125  0.9353868074722415  1.0000
  C   C58       1.0  0.6076639246205034  0.45111428364670314  0.06462081251130061  1.0000
  C   C59       1.0  0.8922745610451059  0.9510459693284548  0.5645890060778669  1.0000
  C   C60       1.0  0.10769310634514538  0.04894771429105303  0.435410468628021  1.0000
  C   C61       1.0  0.6500458520788824  0.548078160018541  0.44309500250501804  1.0000
  C   C62       1.0  0.34996230637725734  0.4519129373872419  0.5569025398394772  1.0000
  C   C63       1.0  0.1500491410857805  0.9518744211054015  0.056889229926845516  1.0000
  C   C64       1.0  0.849986011335787  0.04811163663102754  0.9431001911147875  1.0000
  I   I1        1.0  0.7419609675129237  0.3458686123928346  0.4207910763813275  1.0000
  I   I2        1.0  0.2580306942144475  0.654122879114816  0.579213097163155  1.0000
  I   I3        1.0  0.24214576178450636  0.15409488476812783  0.0793038863398721  1.0000
  I   I4        1.0  0.7579058859082793  0.8458861280882959  0.92069681549809  1.0000
  O   O1        1.0  0.4169952570249151  0.82020193434974  0.3234852617839294  1.0000
  O   O2        1.0  0.5829964084363509  0.17981388662137487  0.6765046103552877  1.0000
  O   O3        1.0  0.9170194512342319  0.6798803783248321  0.17646331542544405  1.0000
  O   O4        1.0  0.0829932077185873  0.32012646276802326  0.823544402986883  1.0000
  O   O5        1.0  0.7601751660425223  0.8159161821071665  0.19630468007269286  1.0000
  O   O6        1.0  0.2398299941922488  0.1840829409634282  0.8036901445130981  1.0000
  O   O7        1.0  0.2601069726916165  0.6838797658534406  0.3034857597620899  1.0000
  O   O8        1.0  0.7398876905798913  0.3161310741361732  0.6965229657937186  1.0000
  O   O9        1.0  0.7562071808913302  0.8195589588426986  0.3246886761131123  1.0000
  O   O10       1.0  0.24381447664043782  0.18044996911581287  0.6753138683962305  1.0000
  O   O11       1.0  0.2561582075196895  0.6806553704585029  0.1751985452036919  1.0000
  O   O12       1.0  0.743848454027507  0.319361436141648  0.8248079045175983  1.0000
  O   O13       1.0  0.9180484348676005  0.6840066134286505  0.30519531569098757  1.0000
  O   O14       1.0  0.08194173028357452  0.3160108396824982  0.6948116171680142  1.0000
  O   O15       1.0  0.41818128139135524  0.8159321210960117  0.19470895356483453  1.0000
  O   O16       1.0  0.5818058822016141  0.18405744948581326  0.8052720030462696  1.0000
  O   O17       1.0  0.5870258750802931  0.7056920133539465  0.24276234098832822  1.0000
  O   O18       1.0  0.41298228627857003  0.2943258755661519  0.7572441251136227  1.0000
  O   O19       1.0  0.08701523973687128  0.7944421776119487  0.25732307506631  1.0000
  O   O20       1.0  0.9129974212986625  0.20558015986964062  0.7426815654883826  1.0000
