data_image0
_chemical_formula_structural       Nd4H32C24N4O28
_chemical_formula_sum              "Nd4 H32 C24 N4 O28"
_cell_length_a       6.713744178004522
_cell_length_b       6.9130924882625004
_cell_length_c       19.762701940635477
_cell_angle_alpha    93.56339171216413
_cell_angle_beta     90.0001077803707
_cell_angle_gamma    89.9999198672303

_space_group_name_H-M_alt    "P 1"
_space_group_IT_number       1

loop_
  _space_group_symop_operation_xyz
  'x, y, z'

loop_
  _atom_site_type_symbol
  _atom_site_label
  _atom_site_symmetry_multiplicity
  _atom_site_fract_x
  _atom_site_fract_y
  _atom_site_fract_z
  _atom_site_occupancy
  Nd  Nd1       1.0  0.7627181233616225  0.26888878552362167  0.8996819407821804  1.0000
  Nd  Nd2       1.0  0.26270874644188064  0.23110376757182383  0.6003220517628165  1.0000
  Nd  Nd3       1.0  0.23729203312295508  0.7311038066738148  0.10031812752297502  1.0000
  Nd  Nd4       1.0  0.7372805572882012  0.7688975153044096  0.39967718791016443  1.0000
  H   H1        1.0  0.9253761759456295  0.36628442119171467  0.0452738865012776  1.0000
  H   H2        1.0  0.42534049460974893  0.13371284545215187  0.45472923866278603  1.0000
  H   H3        1.0  0.07465781225036489  0.6337052723313618  0.9547261206463489  1.0000
  H   H4        1.0  0.5746354037887969  0.8662869960739171  0.5452714886050247  1.0000
  H   H5        1.0  0.723372536025259  0.48241466200753524  0.0357886733657651  1.0000
  H   H6        1.0  0.22333261307745997  0.017587194920579897  0.46421593013261037  1.0000
  H   H7        1.0  0.27666592062237777  0.5175793981058304  0.9642149679555203  1.0000
  H   H8        1.0  0.7766432853267915  0.9824083039295741  0.5357857175085031  1.0000
  H   H9        1.0  0.724680525539476  0.8157607422758132  0.7912696779449606  1.0000
  H   H10       1.0  0.2246762536173249  0.684248741402463  0.7087278899748101  1.0000
  H   H11       1.0  0.27532516248989225  0.1842492472022741  0.2087317694716546  1.0000
  H   H12       1.0  0.7753234764777089  0.3157525255230808  0.291268313337909  1.0000
  H   H13       1.0  0.5297328697674004  0.6858189422810169  0.828122536039416  1.0000
  H   H14       1.0  0.02972969677603739  0.8141835208792186  0.6718747519700231  1.0000
  H   H15       1.0  0.470268349815022  0.31418378726113616  0.1718762281594834  1.0000
  H   H16       1.0  0.9702670543528239  0.18582499801425456  0.32812261637615603  1.0000
  H   H17       1.0  0.3906496285766963  0.9027325230561087  0.9316741179627074  1.0000
  H   H18       1.0  0.8906351986444035  0.5972507040806502  0.5683275621312802  1.0000
  H   H19       1.0  0.609364996344432  0.0972745650988287  0.06832676223091742  1.0000
  H   H20       1.0  0.10935112613285719  0.40273898947006603  0.43167244500082813  1.0000
  H   H21       1.0  0.21735269910358565  0.9176019790285321  0.8645045282646535  1.0000
  H   H22       1.0  0.7173416208893427  0.5823901424501158  0.6354967163724227  1.0000
  H   H23       1.0  0.78265596789884  0.0824022237565387  0.1354988210648074  1.0000
  H   H24       1.0  0.2826506618111537  0.41760534841821323  0.3645034130921944  1.0000
  H   H25       1.0  0.29786856192667693  0.004616374893032599  0.7629539971296142  1.0000
  H   H26       1.0  0.7978737663348665  0.4953993134174509  0.7370479773378805  1.0000
  H   H27       1.0  0.7021147838840989  0.995392181212395  0.23705045606074296  1.0000
  H   H28       1.0  0.20212149532314064  0.5046048734307432  0.2629523356235453  1.0000
  H   H29       1.0  0.5475197895062961  0.9869636567796857  0.7351256033665338  1.0000
  H   H30       1.0  0.04752202964303359  0.5130489576313407  0.76487697091644  1.0000
  H   H31       1.0  0.45247398267134975  0.013034727433428397  0.26487357514263016  1.0000
  H   H32       1.0  0.9524747214937219  0.4869595772067824  0.23512343379339748  1.0000
  C   C1        1.0  0.6268350925017002  0.813382502607318  0.8359365999007905  1.0000
  C   C2        1.0  0.12682313676683776  0.6866154972738624  0.6640601535539121  1.0000
  C   C3        1.0  0.3731691060435195  0.18661587096998025  0.1640605543693212  1.0000
  C   C4        1.0  0.8731587195586243  0.3133756349799484  0.3359378599169389  1.0000
  C   C5        1.0  0.7669821018150953  0.7889145113635293  0.8955210313935354  1.0000
  C   C6        1.0  0.2669712876687811  0.7110746219963954  0.604474111681789  1.0000
  C   C7        1.0  0.23302358621825897  0.2110824235124084  0.1044781165368605  1.0000
  C   C8        1.0  0.7330209950179662  0.28891793832210766  0.3955198838902163  1.0000
  C   C9        1.0  0.3474202206805258  0.9889900928395291  0.8891879804627152  1.0000
  C   C10       1.0  0.8474180597759824  0.5110033297468987  0.6108138855522185  1.0000
  C   C11       1.0  0.6525884463262984  0.011009764612182898  0.110815783179433  1.0000
  C   C12       1.0  0.15258167033501013  0.48899216377454735  0.3891867499754298  1.0000
  C   C13       1.0  0.28944580889063326  0.18975736895929882  0.9195931045929129  1.0000
  C   C14       1.0  0.7894355850216497  0.3102322571301598  0.5804113502587285  1.0000
  C   C15       1.0  0.710567326553054  0.8102453738631396  0.08040818991291591  1.0000
  C   C16       1.0  0.21055818716565255  0.6897617923793574  0.41959026680555683  1.0000
  C   C17       1.0  0.45075492765975866  0.05473354205648209  0.7746629777862566  1.0000
  C   C18       1.0  0.9507556791548023  0.4452906622367576  0.7253387737119326  1.0000
  C   C19       1.0  0.5492462919245539  0.9452720941185219  0.22533736575975644  1.0000
  C   C20       1.0  0.049251498344240495  0.5547309139102692  0.27466140018445634  1.0000
  C   C21       1.0  0.45980929958597727  0.2726391004947714  0.766330108733662  1.0000
  C   C22       1.0  0.9597985115515538  0.22737353054950657  0.733677476725383  1.0000
  C   C23       1.0  0.5401934094828106  0.7273665409942537  0.23367124693405122  1.0000
  C   C24       1.0  0.040198239600421494  0.772632132202503  0.26632792742528016  1.0000
  N   N1        1.0  0.517368477676925  0.9984646454750034  0.8417177812898374  1.0000
  N   N2        1.0  0.017356774557491395  0.5015305986684168  0.6582818760519586  1.0000
  N   N3        1.0  0.48263274190710337  0.0015395387122935996  0.1582820256129196  1.0000
  N   N4        1.0  0.9826340186544228  0.49847068420695717  0.3417173636215126  1.0000
  O   O1        1.0  0.8422517219928806  0.6207704996559967  0.9019235917270194  1.0000
  O   O2        1.0  0.34224806503526384  0.8792214583368219  0.5980741918529162  1.0000
  O   O3        1.0  0.15775098707972285  0.37922789252425554  0.09807710496688322  1.0000
  O   O4        1.0  0.6577516650610845  0.12077981124615886  0.4019225175204113  1.0000
  O   O5        1.0  0.8102425975260131  0.9372487359401375  0.9333554006139552  1.0000
  O   O6        1.0  0.3102228759120748  0.5627403392716414  0.5666382524584322  1.0000
  O   O7        1.0  0.18976160102081957  0.06275109228231199  0.0666427963600214  1.0000
  O   O8        1.0  0.6897545119593997  0.4372478730646988  0.43335565136079884  1.0000
  O   O9        1.0  0.1124640341595011  0.24748631926045306  0.9159530466922379  1.0000
  O   O10       1.0  0.6124509384697561  0.2525063868682338  0.5840467994845326  1.0000
  O   O11       1.0  0.8875520802551761  0.7525135355295016  0.08405021089171781  1.0000
  O   O12       1.0  0.3875353862953402  0.7474948933522897  0.41595193412686643  1.0000
  O   O13       1.0  0.42794527339814437  0.2926843282009486  0.9482488074891933  1.0000
  O   O14       1.0  0.927933567956934  0.2072979065271169  0.5517586210370669  1.0000
  O   O15       1.0  0.5720693515286966  0.707318417278067  0.0517529930777343  1.0000
  O   O16       1.0  0.0720557357949829  0.7926874549757272  0.448244330711745  1.0000
  O   O17       1.0  0.3991559187217034  0.3326914295150374  0.7106135650906609  1.0000
  O   O18       1.0  0.8991499812003095  0.1673284680426264  0.7893845186192865  1.0000
  O   O19       1.0  0.6008393429137583  0.6673185174500416  0.2893797853527857  1.0000
  O   O20       1.0  0.10086166476269648  0.8326800827315136  0.2106189224590622  1.0000
  O   O21       1.0  0.5311644580046248  0.3816204332336353  0.814247093112769  1.0000
  O   O22       1.0  0.031163145924601593  0.11838687378335068  0.6857555362351918  1.0000
  O   O23       1.0  0.46884271951159207  0.6183750523111725  0.1857520242354767  1.0000
  O   O24       1.0  0.968836584172031  0.8816158477873371  0.3142417097813919  1.0000
  O   O25       1.0  0.7940976599120971  0.3601200918027986  0.02216154726086471  1.0000
  O   O26       1.0  0.29407251597816497  0.1398831297503733  0.47784262683781265  1.0000
  O   O27       1.0  0.20592441243140056  0.6398739603477492  0.9778405758732448  1.0000
  O   O28       1.0  0.705906361378041  0.8601196024621698  0.5221566434144195  1.0000
