data_image0
_chemical_formula_structural       Cu4H36C28S4N8Cl4
_chemical_formula_sum              "Cu4 H36 C28 S4 N8 Cl4"
_cell_length_a       7.622430459996726
_cell_length_b       7.871525679179286
_cell_length_c       15.536963385007907
_cell_angle_alpha    90.00009771619531
_cell_angle_beta     90.00001792329299
_cell_angle_gamma    109.16165451612113

_space_group_name_H-M_alt    "P 1"
_space_group_IT_number       1

loop_
  _space_group_symop_operation_xyz
  'x, y, z'

loop_
  _atom_site_type_symbol
  _atom_site_label
  _atom_site_symmetry_multiplicity
  _atom_site_fract_x
  _atom_site_fract_y
  _atom_site_fract_z
  _atom_site_occupancy
  Cu  Cu1       1.0  0.13376865621760461  0.5178419712118298  0.7549579143979772  1.0000
  Cu  Cu2       1.0  0.36623365544013353  0.48215787337555577  0.2549612458769772  1.0000
  Cu  Cu3       1.0  0.8662300175156687  0.4821631737352732  0.24504042936018075  1.0000
  Cu  Cu4       1.0  0.6337694672625602  0.5178377028413266  0.7450390287568498  1.0000
  H   H1        1.0  0.6109973019698388  0.9999968330129577  0.8730187773684008  1.0000
  H   H2        1.0  0.8889993574641365  2.6440974423037207e-06  0.37302148360582527  1.0000
  H   H3        1.0  0.3890028790328087  8.69784230401138e-07  0.12698366126677743  1.0000
  H   H4        1.0  0.1110001424894165  4.893795519999242e-07  0.6269790241522983  1.0000
  H   H5        1.0  0.48690134212189656  0.1403259347688247  0.83590796949742  1.0000
  H   H6        1.0  0.01309982923991983  0.8596742735775038  0.3359121966349221  1.0000
  H   H7        1.0  0.5130978720220867  0.8596697194998125  0.16409552326818042  1.0000
  H   H8        1.0  0.9869035747466556  0.14032942265146886  0.6640887216286799  1.0000
  H   H9        1.0  0.553361741549395  0.1451204128032231  0.9471150356682686  1.0000
  H   H10       1.0  0.946636846169966  0.8548813329015417  0.4471193299686362  1.0000
  H   H11       1.0  0.44663829428207447  0.8548738707842602  0.05288716984401281  1.0000
  H   H12       1.0  0.0533652549619887  0.14512238934109686  0.552880944668452  1.0000
  H   H13       1.0  0.07935193483469762  0.555127818659436  0.5651853212306224  1.0000
  H   H14       1.0  0.4206504769040009  0.4448725788195701  0.06518991827475422  1.0000
  H   H15       1.0  0.9206555183496262  0.4448798595177834  0.43480980439724  1.0000
  H   H16       1.0  0.579348737237396  0.5551230754436957  0.9348109999851957  1.0000
  H   H17       1.0  0.24985920625016425  0.7503010753133879  0.4480782332577321  1.0000
  H   H18       1.0  0.2501428121674821  0.24970500569754248  0.9480804933557112  1.0000
  H   H19       1.0  0.750150852644701  0.24970655083917132  0.5519194668759654  1.0000
  H   H20       1.0  0.7498533151001112  0.7502893559309526  0.05191978127704292  1.0000
  H   H21       1.0  0.6104835414982616  0.08058032911799975  0.643662538418049  1.0000
  H   H22       1.0  0.8895139556840307  0.919418805842433  0.14366301457908295  1.0000
  H   H23       1.0  0.389512526527703  0.9194248678604706  0.35633644896633143  1.0000
  H   H24       1.0  0.11048169041835369  0.0805742111226166  0.8563372600530813  1.0000
  H   H25       1.0  0.42874762614507494  0.8637969878871558  0.7509328410199957  1.0000
  H   H26       1.0  0.07124754135150368  0.1361975653095655  0.25093455283555954  1.0000
  H   H27       1.0  0.571247139024969  0.1362082351022949  0.24906421548504915  1.0000
  H   H28       1.0  0.9287484452738184  0.8637927363122202  0.7490650781691102  1.0000
  H   H29       1.0  0.8444186427303038  0.3188891851091427  0.9879268380386039  1.0000
  H   H30       1.0  0.6555756372159394  0.6811114642516001  0.4879302983137138  1.0000
  H   H31       1.0  0.1555833177613195  0.681110477130808  0.012074723849636402  1.0000
  H   H32       1.0  0.3444268044395926  0.31888954264911706  0.5120699763222947  1.0000
  H   H33       1.0  0.013722947732503588  0.44594402258692867  0.9127943801042804  1.0000
  H   H34       1.0  0.48627495062735443  0.5540579292511153  0.41279650304690574  1.0000
  H   H35       1.0  0.9862759258846693  0.5540543470169152  0.08720589453034933  1.0000
  H   H36       1.0  0.5137287938828051  0.44594305163593617  0.5872044152156095  1.0000
  C   C1        1.0  0.776471052464828  0.2754287769623359  0.860423778742714  1.0000
  C   C2        1.0  0.723530307397823  0.7245698396704937  0.3604259985892995  1.0000
  C   C3        1.0  0.22353042686288657  0.7245695406168478  0.1395790703977582  1.0000
  C   C4        1.0  0.27647213425706235  0.2754311672288877  0.6395736324202874  1.0000
  C   C5        1.0  0.5958896685111056  0.13347619109128317  0.8804430615882951  1.0000
  C   C6        1.0  0.9041083041572973  0.8665239317780401  0.3804467148471461  1.0000
  C   C7        1.0  0.4041082427769567  0.8665194891883417  0.11955850029797695  1.0000
  C   C8        1.0  0.09589331581010191  0.13347844580248847  0.6195542034157671  1.0000
  C   C9        1.0  0.19958558174035787  0.6722658700505799  0.5794751727789915  1.0000
  C   C10       1.0  0.3004142529846519  0.32773463907604145  0.07947836668080303  1.0000
  C   C11       1.0  0.8004194656192494  0.32773508481206187  0.42052124009872943  1.0000
  C   C12       1.0  0.6995823554494294  0.6722610672185992  0.9205231952053696  1.0000
  C   C13       1.0  0.2950321604958077  0.7851384313787617  0.514114964781058  1.0000
  C   C14       1.0  0.20496589959996922  0.21486454640555053  0.0141174067349894  1.0000
  C   C15       1.0  0.704976454902166  0.21486516078076076  0.4858814480980414  1.0000
  C   C16       1.0  0.7950259785821031  0.7851326086098991  0.9858828678985676  1.0000
  C   C17       1.0  0.44740657627212954  0.9383869289073772  0.53379906674909  1.0000
  C   C18       1.0  0.0525941290581358  0.0616160789704594  0.0338000706431032  1.0000
  C   C19       1.0  0.5526054665238719  0.061615240546338206  0.46619863338252543  1.0000
  C   C20       1.0  0.9473974086003593  0.9383837913869115  0.9662002039915409  1.0000
  C   C21       1.0  0.49467168137820755  0.9664382841372614  0.6213483648597204  1.0000
  C   C22       1.0  0.005324810033450001  0.033563822396366995  0.12134869434487433  1.0000
  C   C23       1.0  0.5053335066262576  0.033566730737462094  0.37865126615174205  1.0000
  C   C24       1.0  0.9946675493138241  0.9664346772825424  0.8786515802892725  1.0000
  C   C25       1.0  0.393284149565268  0.8464349280034538  0.6828152732758712  1.0000
  C   C26       1.0  0.1067128058034541  0.15356471964377497  0.1828163615375544  1.0000
  C   C27       1.0  0.6067197355852156  0.15357011288627828  0.317184357735492  1.0000
  C   C28       1.0  0.8932811969220253  0.8464310386795404  0.8171845567220191  1.0000
  S   S1        1.0  0.8371847624977706  0.3409317075709808  0.7565997904316861  1.0000
  S   S2        1.0  0.662816870040622  0.6590678205505395  0.2566032337961418  1.0000
  S   S3        1.0  0.16281671682865095  0.6590666100055244  0.24340177145595734  1.0000
  S   S4        1.0  0.3371834470721495  0.3409345830436621  0.7433970408402644  1.0000
  N   N1        1.0  0.8876330748129176  0.347398947659407  0.9249550887420741  1.0000
  N   N2        1.0  0.6123623815339415  0.6526014129564713  0.42495980577619724  1.0000
  N   N3        1.0  0.11236627997074321  0.6526007666105683  0.0750464731459672  1.0000
  N   N4        1.0  0.38763957895768186  0.3473982492834863  0.575041756112043  1.0000
  N   N5        1.0  0.24620588129491944  0.7004587487100051  0.6634027850733872  1.0000
  N   N6        1.0  0.2537910350920569  0.29954081794554804  0.16340466092957232  1.0000
  N   N7        1.0  0.7537980038536319  0.2995462921757052  0.3365949150587469  1.0000
  N   N8        1.0  0.746202967634069  0.70045494037911  0.8365969009564085  1.0000
  Cl  Cl1       1.0  0.2622169322949475  0.6650137776492784  0.8844884444272765  1.0000
  Cl  Cl2       1.0  0.2377828931222581  0.3349825993866133  0.3844884158780815  1.0000
  Cl  Cl3       1.0  0.7377829036519757  0.33498728128012084  0.11551118658211833  1.0000
  Cl  Cl4       1.0  0.7622190673680718  0.6650170628506515  0.6155118587573299  1.0000
