data_image0
_chemical_formula_structural       Rb2U2H24C42I6O16
_chemical_formula_sum              "Rb2 U2 H24 C42 I6 O16"
_cell_length_a       7.890405511450012
_cell_length_b       10.79701951572983
_cell_length_c       15.58463551555283
_cell_angle_alpha    74.116361768975
_cell_angle_beta     83.95365098677959
_cell_angle_gamma    78.01954206172438

_space_group_name_H-M_alt    "P 1"
_space_group_IT_number       1

loop_
  _space_group_symop_operation_xyz
  'x, y, z'

loop_
  _atom_site_type_symbol
  _atom_site_label
  _atom_site_symmetry_multiplicity
  _atom_site_fract_x
  _atom_site_fract_y
  _atom_site_fract_z
  _atom_site_occupancy
  Rb  Rb1       1.0  0.6722968855398295  0.5778538609454883  0.06626050801881433  1.0000
  Rb  Rb2       1.0  0.3276991725404629  0.4221407778034845  0.9337419004287426  1.0000
  U   U1        1.0  0.18052705297903054  0.47872411276105004  0.19322171935898066  1.0000
  U   U2        1.0  0.81946935190755  0.521274438668044  0.8067798947367493  1.0000
  H   H1        1.0  0.9704844467928171  0.09329515864099851  0.3917144301786024  1.0000
  H   H2        1.0  0.02953274611883217  0.9067071288189155  0.6082827816473896  1.0000
  H   H3        1.0  0.6507874416497544  0.29987355694881757  0.1697957096659835  1.0000
  H   H4        1.0  0.3492167491621886  0.700119048690631  0.8302053904901215  1.0000
  H   H5        1.0  0.5280495846155306  0.27256120217541735  0.4598610555141605  1.0000
  H   H6        1.0  0.4719610820506689  0.727436311116577  0.5401412971532267  1.0000
  H   H7        1.0  0.6557214573636259  0.6343665303805465  0.2930196704662508  1.0000
  H   H8        1.0  0.3442633981569828  0.3656378164185837  0.7069743431937712  1.0000
  H   H9        1.0  0.8531113615024356  0.8110015495545182  0.9324962892022983  1.0000
  H   H10       1.0  0.14689204294376884  0.18898903685428786  0.0675020442838985  1.0000
  H   H11       1.0  0.3535272331423372  0.8656865110831332  0.9851794401629235  1.0000
  H   H12       1.0  0.6464797829928771  0.1343049922657897  0.014816596161622895  1.0000
  H   H13       1.0  0.44266076658922776  0.149669986999065  0.22525308774311983  1.0000
  H   H14       1.0  0.557348696357252  0.8503217812606323  0.7747562432999615  1.0000
  H   H15       1.0  0.846801568197286  0.641797897950859  0.4079422183254593  1.0000
  H   H16       1.0  0.15317526046133176  0.35822415373023386  0.5920506312150096  1.0000
  H   H17       1.0  0.8110138309640436  0.027672068640782803  0.8211692892747351  1.0000
  H   H18       1.0  0.18898573445473232  0.9723185675753425  0.17883051986515855  1.0000
  H   H19       1.0  0.49743278102678107  0.9688461671306781  0.3630984982686272  1.0000
  H   H20       1.0  0.5025823562908445  0.031148529596308105  0.6369112366216498  1.0000
  H   H21       1.0  0.8787028118461465  0.4650371498020077  0.5494001786610454  1.0000
  H   H22       1.0  0.12127442765633135  0.5349938408198723  0.4505972933557488  1.0000
  H   H23       1.0  0.040747321394583515  0.1628278260865983  0.7882170721081394  1.0000
  H   H24       1.0  0.9592477179424392  0.8371657735276301  0.21178238749682526  1.0000
  C   C1        1.0  0.9448661439984677  0.2991337752219607  0.24668830487176757  1.0000
  C   C2        1.0  0.05514156071021154  0.7008655668356737  0.7533067820843797  1.0000
  C   C3        1.0  0.4532162789850107  0.45640342812653506  0.3058601036211144  1.0000
  C   C4        1.0  0.5467795567959898  0.543592164021412  0.6941408439832131  1.0000
  C   C5        1.0  0.13580771389101187  0.6982092468744626  0.0349318208103782  1.0000
  C   C6        1.0  0.86419604743972  0.30178522551754833  0.965064439653453  1.0000
  C   C7        1.0  0.824070829500471  0.20558078422926224  0.27694942561115005  1.0000
  C   C8        1.0  0.17593766661306637  0.7944205637105526  0.7230477886796294  1.0000
  C   C9        1.0  0.579681787633696  0.4540548373197524  0.3701784548164326  1.0000
  C   C10       1.0  0.4203155684385963  0.5459504926313911  0.6298185560719887  1.0000
  C   C11       1.0  0.10579961313683836  0.8255524119296924  0.9661163004988679  1.0000
  C   C12       1.0  0.8942073878810181  0.1744391314646094  0.03388165383148591  1.0000
  C   C13       1.0  0.8559538700282946  0.10359330054999562  0.3551463481804475  1.0000
  C   C14       1.0  0.1440592414001714  0.896410043510066  0.6448534357970815  1.0000
  C   C15       1.0  0.675986491513939  0.22076357890416887  0.23005272159954157  1.0000
  C   C16       1.0  0.3240212807522909  0.7792300237661679  0.7699499174065139  1.0000
  C   C17       1.0  0.6001979429098442  0.35178950908397877  0.44879336490939187  1.0000
  C   C18       1.0  0.3998057695488131  0.6482158490921462  0.5512065143501061  1.0000
  C   C19       1.0  0.6720836040947732  0.5563133264283806  0.3544415819289171  1.0000
  C   C20       1.0  0.3279066883803382  0.4436949422823986  0.6455532927408711  1.0000
  C   C21       1.0  0.9531076225929739  0.870757285281634  0.9195922909897476  1.0000
  C   C22       1.0  0.046895172434680894  0.12923044863372005  0.08041049068719991  1.0000
  C   C23       1.0  0.23586489827501123  0.9013235613480287  0.9482883823641403  1.0000
  C   C24       1.0  0.7641380262987739  0.09866902529795847  0.051711504782481724  1.0000
  C   C25       1.0  0.7378371369383744  0.0194419292920358  0.3852792796237878  1.0000
  C   C26       1.0  0.26217301962068956  0.9805576643279185  0.6147284627156324  1.0000
  C   C27       1.0  0.5594083465005967  0.13581696677714922  0.261013847703758  1.0000
  C   C28       1.0  0.4405970702365354  0.8641757646434555  0.7389935801439833  1.0000
  C   C29       1.0  0.7120103402496057  0.3556345688816478  0.5109155100909675  1.0000
  C   C30       1.0  0.2879798983143189  0.6443845989617144  0.4890836227097567  1.0000
  C   C31       1.0  0.7794733054637604  0.5599105740485442  0.4187092536075596  1.0000
  C   C32       1.0  0.22050848883606022  0.44010662078497365  0.5812875064895735  1.0000
  C   C33       1.0  0.9311084375388818  0.9916166853303064  0.8563588830899107  1.0000
  C   C34       1.0  0.06888950979632821  0.0083700325606983  0.143641146727596  1.0000
  C   C35       1.0  0.21197566797004438  0.020748566114399104  0.8841377127905475  1.0000
  C   C36       1.0  0.7880217067395993  0.9792459581434014  0.11585951531380796  1.0000
  C   C37       1.0  0.5895322248025465  0.0346807833047222  0.3386622149097249  1.0000
  C   C38       1.0  0.4104774770797024  0.9653207438101035  0.6613438844137676  1.0000
  C   C39       1.0  0.7989973260096479  0.4603012732688826  0.4978743826822409  1.0000
  C   C40       1.0  0.20099293774988078  0.539717827832163  0.5021215534421374  1.0000
  C   C41       1.0  0.05998742250478981  0.0681523618805926  0.8375816335112347  1.0000
  C   C42       1.0  0.9400141062847144  0.9318353530413007  0.16241993515622963  1.0000
  I   I1        1.0  0.7731281804515576  0.8704053787716931  0.5051198384513569  1.0000
  I   I2        1.0  0.22688194235279013  0.12960506058699647  0.4948896046779225  1.0000
  I   I3        1.0  0.7523152025458871  0.20166909509365644  0.6280450764084691  1.0000
  I   I4        1.0  0.24767231000616635  0.7983561078616572  0.3719600617050888  1.0000
  I   I5        1.0  0.41576450898702433  0.12714647259717543  0.854994677586042  1.0000
  I   I6        1.0  0.5842291159283663  0.8728530609862944  0.14500624632382397  1.0000
  O   O1        1.0  0.9182552831068876  0.3954115045665532  0.17611137872716404  1.0000
  O   O2        1.0  0.08175455331247859  0.6045789098402992  0.823880233101093  1.0000
  O   O3        1.0  0.30942234752713216  0.37301814207751244  0.1266542052203903  1.0000
  O   O4        1.0  0.6905802116030133  0.6269813375816894  0.8733462590621173  1.0000
  O   O5        1.0  0.340361746335752  0.3820178784769297  0.32783148982390037  1.0000
  O   O6        1.0  0.6596366420780413  0.6179776982640773  0.6721693264583237  1.0000
  O   O7        1.0  0.45008034766068766  0.5358004446282788  0.22704740137054108  1.0000
  O   O8        1.0  0.5499131779432958  0.46419415613377163  0.7729525810580498  1.0000
  O   O9        1.0  0.020208179044317407  0.6260853978970643  0.05749557478304719  1.0000
  O   O10       1.0  0.979787656736683  0.37391019425088257  0.9425053728212803  1.0000
  O   O11       1.0  0.052070662464942116  0.5929558417762165  0.25133505069540973  1.0000
  O   O12       1.0  0.9479205630402564  0.4070377409030215  0.748662687886906  1.0000
  O   O13       1.0  0.0784016390580078  0.2871025128346573  0.2904077442459752  1.0000
  O   O14       1.0  0.921601974089242  0.7128979125200487  0.7095911935322476  1.0000
  O   O15       1.0  0.28059392034404607  0.6598875680227464  0.07367213082415708  1.0000
  O   O16       1.0  0.7194064767925571  0.34010496728786416  0.9263246909682152  1.0000
