data_image0
_chemical_formula_structural       Cd6H28C36N8O24
_chemical_formula_sum              "Cd6 H28 C36 N8 O24"
_cell_length_a       8.854348874912946
_cell_length_b       8.85431543458
_cell_length_c       16.235109994368578
_cell_angle_alpha    72.70100169618156
_cell_angle_beta     72.7010977367455
_cell_angle_gamma    75.99620677420829

_space_group_name_H-M_alt    "P 1"
_space_group_IT_number       1

loop_
  _space_group_symop_operation_xyz
  'x, y, z'

loop_
  _atom_site_type_symbol
  _atom_site_label
  _atom_site_symmetry_multiplicity
  _atom_site_fract_x
  _atom_site_fract_y
  _atom_site_fract_z
  _atom_site_occupancy
  Cd  Cd1       1.0  0.3369874907421461  0.23965481384788492  0.8446203151021192  1.0000
  Cd  Cd2       1.0  0.7603464431550933  0.6630186562704881  0.6553775979938264  1.0000
  Cd  Cd3       1.0  0.6630189484184825  0.7603493045866969  0.1553763448923107  1.0000
  Cd  Cd4       1.0  0.23965621862232206  0.336986512577326  0.3446207314265591  1.0000
  Cd  Cd5       1.0  0.024452304876753275  0.9755470551650448  0.7500005103337555  1.0000
  Cd  Cd6       1.0  0.9755471461193179  0.024450722987260996  0.2500007519033716  1.0000
  H   H1        1.0  0.30367684267864786  0.3544965478262015  0.035464580427685584  1.0000
  H   H2        1.0  0.6455049570194618  0.6963266274974204  0.4645371616613046  1.0000
  H   H3        1.0  0.6963298282963849  0.645506354651289  0.9645353172374835  1.0000
  H   H4        1.0  0.3544981919662575  0.30367613301849167  0.5354633238499459  1.0000
  H   H5        1.0  0.15763501244579453  0.5887384471855056  0.7411376226676792  1.0000
  H   H6        1.0  0.4112573446465361  0.8423647383296002  0.7588621261672654  1.0000
  H   H7        1.0  0.8423635132107419  0.41125808453367096  0.258863988009871  1.0000
  H   H8        1.0  0.5887400137505665  0.15763175280684294  0.24113844638737436  1.0000
  H   H9        1.0  0.9698240704566672  0.90356393387507  0.9741222179299098  1.0000
  H   H10       1.0  0.0964397216091157  0.030176191118599115  0.525870707064051  1.0000
  H   H11       1.0  0.03017818013751849  0.09643760715890443  0.02587367973533359  1.0000
  H   H12       1.0  0.9035641343757419  0.9698290452631257  0.47412372419281457  1.0000
  H   H13       1.0  0.26238371297012003  0.9812682887428043  0.028339008588403602  1.0000
  H   H14       1.0  0.018791278469215935  0.737619571275921  0.47169524760918324  1.0000
  H   H15       1.0  0.7376172438444685  0.018800640135253805  0.9716980251119336  1.0000
  H   H16       1.0  0.9812623753306866  0.262383799193799  0.5283383059988151  1.0000
  H   H17       1.0  0.4360483101310563  0.9318793297887781  0.9762962258222596  1.0000
  H   H18       1.0  0.06798916000817459  0.5638428394187828  0.523675456046277  1.0000
  H   H19       1.0  0.563835069491887  0.0679895845607277  0.023676578916337104  1.0000
  H   H20       1.0  0.931886139039193  0.4360535464039331  0.4762967014231803  1.0000
  H   H21       1.0  0.6625743955001226  0.23268257955440674  0.8671981575121347  1.0000
  H   H22       1.0  0.7673162746271487  0.33743392816014517  0.63279737041276  1.0000
  H   H23       1.0  0.3374351544665756  0.767318053027907  0.13279548288107174  1.0000
  H   H24       1.0  0.23268121406172068  0.6625734698441618  0.36719773560412233  1.0000
  H   H25       1.0  0.5543890317239146  0.40033536761908556  0.8741197790065411  1.0000
  H   H26       1.0  0.5996635583589622  0.44561606699578254  0.625876219674616  1.0000
  H   H27       1.0  0.445616067545437  0.5996638731996313  0.12587541470897176  1.0000
  H   H28       1.0  0.40033324691027156  0.5543888787249927  0.37412062134601576  1.0000
  C   C1        1.0  0.21224950025901992  0.48660112602771477  0.1744779482886968  1.0000
  C   C2        1.0  0.5134035784268818  0.7877458760923304  0.32552331864860645  1.0000
  C   C3        1.0  0.7877543287778365  0.5134040834028327  0.825521419254599  1.0000
  C   C4        1.0  0.4865998918723022  0.21224964579634087  0.6744776607258982  1.0000
  C   C5        1.0  0.17501761895329795  0.5613782418609362  0.08584537817407772  1.0000
  C   C6        1.0  0.4386301402729557  0.8249821377246536  0.4141533497549401  1.0000
  C   C7        1.0  0.8249836134337869  0.4386280720411547  0.9141542287748832  1.0000
  C   C8        1.0  0.5613756120995389  0.17501952505750043  0.5858456622790483  1.0000
  C   C9        1.0  0.23096266021273246  0.4730612137435557  0.021111660309514883  1.0000
  C   C10       1.0  0.5269406832164734  0.7690382486316878  0.47888917353537835  1.0000
  C   C11       1.0  0.7690404887729869  0.5269415467723565  0.9788888252017356  1.0000
  C   C12       1.0  0.47306129514131356  0.23096446793259426  0.5211108908887565  1.0000
  C   C13       1.0  0.18821234538691567  0.5396862187855832  0.9402131514721428  1.0000
  C   C14       1.0  0.46031230587492183  0.8117864437975799  0.5597869392827305  1.0000
  C   C15       1.0  0.8117913076496065  0.46031415024292255  0.05978640495095534  1.0000
  C   C16       1.0  0.5396887505118215  0.1882150297024836  0.4402128565460257  1.0000
  C   C17       1.0  0.15194521829562288  0.5996935998886813  0.8068677087543532  1.0000
  C   C18       1.0  0.4003076236587972  0.848050082790117  0.6931318804042375  1.0000
  C   C19       1.0  0.8480554100653848  0.40030422895304  0.1931327404982851  1.0000
  C   C20       1.0  0.599691336760479  0.15195010032518744  0.30686784277782647  1.0000
  C   C21       1.0  0.09486600324283496  0.695407406268096  0.9228370132354153  1.0000
  C   C22       1.0  0.3045898552489489  0.9051327998033118  0.577162014319043  1.0000
  C   C23       1.0  0.9051348805120797  0.30458923019882184  0.07716235443734112  1.0000
  C   C24       1.0  0.6954109592178949  0.09486987954714722  0.42283639494637965  1.0000
  C   C25       1.0  0.03947689792917686  0.7836676733786451  0.9873699160864075  1.0000
  C   C26       1.0  0.216335004377278  0.9605245095767571  0.5126278063249428  1.0000
  C   C27       1.0  0.9605253290855059  0.21633384407304135  0.012630300829456978  1.0000
  C   C28       1.0  0.7836688313965752  0.0394807065915828  0.48737032714674894  1.0000
  C   C29       1.0  0.07877440530000972  0.7153247170383493  0.0690308851121912  1.0000
  C   C30       1.0  0.28468478660283836  0.9212273048490686  0.43096608568681194  1.0000
  C   C31       1.0  0.921229178448442  0.28468169487369005  0.9309677129035732  1.0000
  C   C32       1.0  0.7153237485252645  0.0787781039702651  0.56903064695431  1.0000
  C   C33       1.0  0.02678718506048476  0.8168250209904288  0.13467139933742794  1.0000
  C   C34       1.0  0.1831867162184081  0.9732224708428422  0.3653233027791955  1.0000
  C   C35       1.0  0.9732206108339126  0.18318399190451373  0.8653236417568945  1.0000
  C   C36       1.0  0.8168231689064599  0.026787825699059912  0.6346730450334304  1.0000
  N   N1        1.0  0.22068003458724658  0.4815089359351958  0.8653516641620199  1.0000
  N   N2        1.0  0.5184916661111245  0.7793182125588844  0.6346469598976295  1.0000
  N   N3        1.0  0.7793215191133029  0.5184901393396545  0.1346484366501953  1.0000
  N   N4        1.0  0.48150846830458244  0.22068201787693914  0.36535256733574056  1.0000
  N   N5        1.0  0.07385455947537879  0.7305008589188802  0.8378740424586932  1.0000
  N   N6        1.0  0.26949418097861155  0.9261415758885934  0.6621257623914403  1.0000
  N   N7        1.0  0.9261437242612589  0.269496878650699  0.16212618165552314  1.0000
  N   N8        1.0  0.730502431447789  0.07385851258565881  0.3378743526880114  1.0000
  O   O1        1.0  0.3513205265910386  0.4051629513430442  0.17776784501528908  1.0000
  O   O2        1.0  0.5948459481973882  0.6486751718252891  0.3222358050507025  1.0000
  O   O3        1.0  0.6486834683406498  0.5948470883828423  0.8222331847556175  1.0000
  O   O4        1.0  0.40515960459526207  0.3513216269725491  0.6777677151137025  1.0000
  O   O5        1.0  0.10230074158255319  0.5077640502267826  0.24430039429400097  1.0000
  O   O6        1.0  0.4922426483627618  0.8976923779446863  0.255699666178934  1.0000
  O   O7        1.0  0.8976991374392539  0.4922373725838511  0.7557002145192583  1.0000
  O   O8        1.0  0.5077613293557234  0.10230075582547472  0.7442997670716236  1.0000
  O   O9        1.0  0.8797968808155331  0.8594709453805083  0.16922068139553648  1.0000
  O   O10       1.0  0.14053147664137094  0.12021723707332654  0.3307804461878802  1.0000
  O   O11       1.0  0.12021644508394047  0.14052252315817532  0.8307852057309187  1.0000
  O   O12       1.0  0.8594673216222758  0.8797950082267648  0.6692216794301442  1.0000
  O   O13       1.0  0.13634397124761938  0.8727487417357693  0.14915591547659796  1.0000
  O   O14       1.0  0.12727510697342836  0.8636667256886597  0.35083175563399743  1.0000
  O   O15       1.0  0.8636643863327931  0.1272748260542613  0.8508323886202901  1.0000
  O   O16       1.0  0.872744200439442  0.13634397973751794  0.6491574712668535  1.0000
  O   O17       1.0  0.5509212819692023  0.2843160195853471  0.8897732596466876  1.0000
  O   O18       1.0  0.7156840687486152  0.44908309695850346  0.610217754727344  1.0000
  O   O19       1.0  0.4490845276677929  0.7156857004680791  0.11021526277864516  1.0000
  O   O20       1.0  0.2843127634686197  0.5509218757134634  0.3897741500068646  1.0000
  O   O21       1.0  0.34657046641063977  0.021701960582163303  0.9767820945261292  1.0000
  O   O22       1.0  0.9783005920830022  0.6534617320565703  0.5232478013014158  1.0000
  O   O23       1.0  0.6534603249605979  0.9783089620130171  0.023252067608837048  1.0000
  O   O24       1.0  0.02170160390616619  0.34656741966710314  0.47678124849463177  1.0000
